  ver_1.2
  COVID Moonshot Alchemical Binding Energy Results via Folding@home

 21 23  0     1  0  0  0  0  0999 V2000
    6.0189    0.6874   19.0002 C   0  0  0  0  0  0  0  0  0  0  0  0
    7.0065    0.4601   19.9522 C   0  0  0  0  0  0  0  0  0  0  0  0
   13.2814   -0.0579   24.2358 C   0  0  0  0  0  0  0  0  0  0  0  0
    6.3525    0.5172   17.6662 C   0  0  0  0  0  0  0  0  0  0  0  0
    8.5119   -0.0682   18.1885 C   0  0  0  0  0  0  0  0  0  0  0  0
   14.4941   -0.5844   24.6228 C   0  0  0  0  0  0  0  0  0  0  0  0
   13.1826   -2.1747   23.2808 C   0  0  0  0  0  0  0  0  0  0  0  0
   12.5215   -0.9791   23.4585 C   0  0  0  0  0  0  0  0  0  0  0  0
    8.2795    0.0749   19.5469 C   0  0  0  0  0  0  0  0  0  0  0  0
   11.1706    0.4972   21.9011 C   0  0  0  0  0  0  0  0  0  0  0  0
   10.1105   -0.3994   23.9901 C   0  0  0  0  0  0  0  0  0  0  0  0
   11.1467   -0.6765   22.8931 C   0  0  2  0  0  0  0  0  0  0  0  0
    9.7679    0.8433   21.3963 C   0  0  1  0  0  0  0  0  0  0  0  0
    8.7531   -0.0612   23.3770 C   0  0  2  0  0  0  0  0  0  0  0  0
    7.5780    0.1439   17.2343 N   0  0  0  0  0  0  0  0  0  0  0  0
    9.2823   -0.1585   20.4716 N   0  0  0  0  0  0  0  0  0  0  0  0
    8.8651    1.0510   22.4879 O   0  0  0  0  0  0  0  0  0  0  0  0
    7.8601    0.2498   24.4436 O   0  0  0  0  0  0  0  0  0  0  0  0
   14.7127   -2.1832   24.0496 S   0  0  0  0  0  0  0  0  0  0  0  0
    9.7029   -1.0787   20.5057 H   0  0  0  0  0  0  0  0  0  0  0  0
    7.8136   -0.5403   25.0039 H   0  0  0  0  0  0  0  0  0  0  0  0
  1  2  2  0  0  0  0
  1  4  1  0  0  0  0
  2  9  1  0  0  0  0
  3  6  2  0  0  0  0
  3  8  1  0  0  0  0
  4 15  2  0  0  0  0
  5  9  2  0  0  0  0
  5 15  1  0  0  0  0
  6 19  1  0  0  0  0
  7  8  2  0  0  0  0
  7 19  1  0  0  0  0
  8 12  1  0  0  0  0
  9 16  1  0  0  0  0
 10 12  1  0  0  0  0
 10 13  1  0  0  0  0
 11 12  1  0  0  0  0
 11 14  1  0  0  0  0
 13 16  1  0  0  0  0
 13 17  1  0  0  0  0
 14 17  1  0  0  0  0
 14 18  1  0  0  0  0
 16 20  1  0  0  0  0
 18 21  1  0  0  0  0
M  END

> <ref_mols>
a comma separated list of the fragments that inspired the design of the new molecule (codes as they appear in fragalysis - e.g. x0104_0,x0692_0)

> <original SMILES>
the original SMILES of the compound before any computation was carried out

> <Chemgauss4>
The [Chemgauss4 docking score](https://docs.eyesopen.com/toolkits/cpp/dockingtk/scoring.html#section-scoring-chemgauss4) of the best scoring pose and protonation/tautomeric state to any Mpro structure; more negative is better, and fragments score ~ -10

> <ref_pdb>
The name of the fragment (and corresponding Mpro fragment structure) with the best scoring hybrid docking pose

> <ref_url>
https://discuss.postera.ai/t/FoldingAtHome-absolute-FEP-from-structures-docked-to-fragment-bound-mpro-structures/1291

> <submitter_name>
Matthew F.D. Hurley & Vincent A. Voelz

> <submitter_email>
matthew.hurley@temple.edu

> <submitter_institution>
Temple University

> <generation_date>
2020-05-12

> <method>
Folding@home absolute FEP

> <binding_free_energy>

Absolute binding free energy (kT) computed via Expanded Ensemble (Wang-Landau) Sampling using Folding@home

> <binding_std_error>

Standard Error of computed binding free energies (kT)

$$$$
MIH-UNI-6b9ca91a-8
  -OEChem-05122002103D

 21 23  0     1  0  0  0  0  0999 V2000
    6.0189    0.6874   19.0002 C   0  0  0  0  0  0  0  0  0  0  0  0
    7.0065    0.4601   19.9522 C   0  0  0  0  0  0  0  0  0  0  0  0
   13.2814   -0.0579   24.2358 C   0  0  0  0  0  0  0  0  0  0  0  0
    6.3525    0.5172   17.6662 C   0  0  0  0  0  0  0  0  0  0  0  0
    8.5119   -0.0682   18.1885 C   0  0  0  0  0  0  0  0  0  0  0  0
   14.4941   -0.5844   24.6228 C   0  0  0  0  0  0  0  0  0  0  0  0
   13.1826   -2.1747   23.2808 C   0  0  0  0  0  0  0  0  0  0  0  0
   12.5215   -0.9791   23.4585 C   0  0  0  0  0  0  0  0  0  0  0  0
    8.2795    0.0749   19.5469 C   0  0  0  0  0  0  0  0  0  0  0  0
   11.1706    0.4972   21.9011 C   0  0  0  0  0  0  0  0  0  0  0  0
   10.1105   -0.3994   23.9901 C   0  0  0  0  0  0  0  0  0  0  0  0
   11.1467   -0.6765   22.8931 C   0  0  2  0  0  0  0  0  0  0  0  0
    9.7679    0.8433   21.3963 C   0  0  1  0  0  0  0  0  0  0  0  0
    8.7531   -0.0612   23.3770 C   0  0  2  0  0  0  0  0  0  0  0  0
    7.5780    0.1439   17.2343 N   0  0  0  0  0  0  0  0  0  0  0  0
    9.2823   -0.1585   20.4716 N   0  0  0  0  0  0  0  0  0  0  0  0
    8.8651    1.0510   22.4879 O   0  0  0  0  0  0  0  0  0  0  0  0
    7.8601    0.2498   24.4436 O   0  0  0  0  0  0  0  0  0  0  0  0
   14.7127   -2.1832   24.0496 S   0  0  0  0  0  0  0  0  0  0  0  0
    9.7029   -1.0787   20.5057 H   0  0  0  0  0  0  0  0  0  0  0  0
    7.8136   -0.5403   25.0039 H   0  0  0  0  0  0  0  0  0  0  0  0
  1  2  2  0  0  0  0
  1  4  1  0  0  0  0
  2  9  1  0  0  0  0
  3  6  2  0  0  0  0
  3  8  1  0  0  0  0
  4 15  2  0  0  0  0
  5  9  2  0  0  0  0
  5 15  1  0  0  0  0
  6 19  1  0  0  0  0
  7  8  2  0  0  0  0
  7 19  1  0  0  0  0
  8 12  1  0  0  0  0
  9 16  1  0  0  0  0
 10 12  1  0  0  0  0
 10 13  1  0  0  0  0
 11 12  1  0  0  0  0
 11 14  1  0  0  0  0
 13 16  1  0  0  0  0
 13 17  1  0  0  0  0
 14 17  1  0  0  0  0
 14 18  1  0  0  0  0
 16 20  1  0  0  0  0
 18 21  1  0  0  0  0
M  END

> <original SMILES>

O[C@@H]1C[C@H](c2ccsc2)C[C@@H](Nc2cccnc2)O1

> <ref_mols>

x0072_0,x0107_0,x0161_0,x0305_0,x0387_0,x0434_0,x0874_0

> <ref_pdb>

receptors/Mpro-x0874-protein.pdb

> <Chemgauss4>

-6.432608

> <binding_free_energy>

-17.786011531578946

> <binding_std_error>

1.437664422142996

$$$$
DAR-DIA-23aa0b97-19
  -OEChem-05122002103D

 23 25  0     0  0  0  0  0  0999 V2000
    5.6880   -1.0556   18.4218 C   0  0  0  0  0  0  0  0  0  0  0  0
   12.7403    2.2635   23.3297 C   0  0  0  0  0  0  0  0  0  0  0  0
   11.5364    2.2446   24.0301 C   0  0  0  0  0  0  0  0  0  0  0  0
    5.2390    1.0750   21.4409 C   0  0  0  0  0  0  0  0  0  0  0  0
    5.0682    0.5473   20.1611 C   0  0  0  0  0  0  0  0  0  0  0  0
   13.2666    1.0795   22.8136 C   0  0  0  0  0  0  0  0  0  0  0  0
   10.8533    1.0417   24.2175 C   0  0  0  0  0  0  0  0  0  0  0  0
    6.2058    0.5402   22.2925 C   0  0  0  0  0  0  0  0  0  0  0  0
    6.8308   -1.0500   20.5844 C   0  0  0  0  0  0  0  0  0  0  0  0
   13.0686   -1.3505   22.5013 C   0  0  0  0  0  0  0  0  0  0  0  0
   11.2813   -2.5245   23.3392 C   0  0  0  0  0  0  0  0  0  0  0  0
    5.8640   -0.5152   19.7329 C   0  0  0  0  0  0  0  0  0  0  0  0
   12.5877   -0.1367   22.9961 C   0  0  0  0  0  0  0  0  0  0  0  0
   11.3686   -0.1599   23.7046 C   0  0  0  0  0  0  0  0  0  0  0  0
   10.7077   -1.3818   23.8757 C   0  0  0  0  0  0  0  0  0  0  0  0
    7.0016   -0.5222   21.8643 C   0  0  0  0  0  0  0  0  0  0  0  0
    8.2867   -0.6612   24.0263 C   0  0  0  0  0  0  0  0  0  0  0  0
    9.4138   -1.5087   24.6094 C   0  0  0  0  0  0  0  0  0  0  0  0
    5.5452   -1.4945   17.3571 N   0  0  0  0  0  0  0  0  0  0  0  0
   12.4455   -2.5406   22.6559 N   0  0  0  0  0  0  0  0  0  0  0  0
    7.9833   -1.0636   22.7281 N   0  0  0  0  0  0  0  0  0  0  0  0
    7.7589    0.2426   24.6664 O   0  0  0  0  0  0  0  0  0  0  0  0
    8.5313   -1.8372   22.3573 H   0  0  0  0  0  0  0  0  0  0  0  0
  1 12  1  0  0  0  0
  1 19  3  0  0  0  0
  2  3  1  0  0  0  0
  2  6  2  0  0  0  0
  3  7  2  0  0  0  0
  4  5  2  0  0  0  0
  4  8  1  0  0  0  0
  5 12  1  0  0  0  0
  6 13  1  0  0  0  0
  7 14  1  0  0  0  0
  8 16  2  0  0  0  0
  9 12  2  0  0  0  0
  9 16  1  0  0  0  0
 10 13  2  0  0  0  0
 10 20  1  0  0  0  0
 11 15  1  0  0  0  0
 11 20  2  0  0  0  0
 13 14  1  0  0  0  0
 14 15  2  0  0  0  0
 15 18  1  0  0  0  0
 16 21  1  0  0  0  0
 17 18  1  0  0  0  0
 17 21  1  0  0  0  0
 17 22  2  0  0  0  0
 21 23  1  0  0  0  0
M  END

> <original SMILES>

N#Cc1cccc(NC(=O)Cc2cncc3ccccc23)c1

> <ref_mols>

x0104_0,x0305_0,x0434_0,x0678_0,x0995_0,x1093_0,x1249_0

> <ref_pdb>

receptors/protein-0387.pdb

> <Chemgauss4>

-5.25336980819702

> <binding_free_energy>

-17.08888063384616

> <binding_std_error>

0.4624419481668854

$$$$
SEL-UNI-8426c22c-3
  -OEChem-05122002103D

 18 19  0     0  0  0  0  0  0999 V2000
   12.6053    0.4753   23.6870 C   0  0  0  0  0  0  0  0  0  0  0  0
   11.5469   -0.2269   22.9234 C   0  0  0  0  0  0  0  0  0  0  0  0
   11.9526   -1.2396   22.1404 C   0  0  0  0  0  0  0  0  0  0  0  0
    9.6016    0.3194   24.2807 C   0  0  0  0  0  0  0  0  0  0  0  0
    9.6710    0.7315   21.7998 C   0  0  0  0  0  0  0  0  0  0  0  0
   13.4098   -1.6310   22.1341 C   0  0  0  0  0  0  0  0  0  0  0  0
    7.3545    0.1267   19.3897 C   0  0  0  0  0  0  0  0  0  0  0  0
    6.1817    0.4174   20.2779 C   0  0  0  0  0  0  0  0  0  0  0  0
   14.0941   -1.3033   23.4581 C   0  0  0  0  0  0  0  0  0  0  0  0
    7.5242    1.0211   20.5872 C   0  0  0  0  0  0  0  0  0  0  0  0
   11.0719   -2.0343   21.2189 C   0  0  0  0  0  0  0  0  0  0  0  0
   10.0166   -0.6957   25.3242 C   0  0  0  0  0  0  0  0  0  0  0  0
   13.7967    0.0522   23.9307 N   0  0  0  0  0  0  0  0  0  0  0  0
    8.2852    0.5996   21.7297 N   0  0  0  0  0  0  0  0  0  0  0  0
   10.2770    0.2532   23.0213 N   0  0  0  0  0  0  0  0  0  0  0  0
    8.7438    1.1537   24.5853 O   0  0  0  0  0  0  0  0  0  0  0  0
   10.3239    1.2229   20.8732 O   0  0  0  0  0  0  0  0  0  0  0  0
    7.7767    0.1601   22.4900 H   0  0  0  0  0  0  0  0  0  0  0  0
  1  2  1  0  0  0  0
  1 13  2  0  0  0  0
  2  3  2  0  0  0  0
  2 15  1  0  0  0  0
  3  6  1  0  0  0  0
  3 11  1  0  0  0  0
  4 12  1  0  0  0  0
  4 15  1  0  0  0  0
  4 16  2  0  0  0  0
  5 14  1  0  0  0  0
  5 15  1  0  0  0  0
  5 17  2  0  0  0  0
  6  9  1  0  0  0  0
  7  8  1  0  0  0  0
  7 10  1  0  0  0  0
  8 10  1  0  0  0  0
  9 13  1  0  0  0  0
 10 14  1  0  0  0  0
 14 18  1  0  0  0  0
M  END

> <original SMILES>

CC(=O)N(C(=O)NC1CC1)C1=CNCC=C1C

> <ref_mols>

x0107_0,x0397_0,x1374_0,x1425_0,x1478_0

> <ref_pdb>

receptors/Mpro-x1374-protein.pdb

> <Chemgauss4>

-3.871179

> <binding_free_energy>

-15.353481654545433

> <binding_std_error>

0.2953934628734823

$$$$
ANT-DIA-045cfdc4-3
  -OEChem-05122002103D

 20 22  0     1  0  0  0  0  0999 V2000
   10.3418    2.0311   23.4024 C   0  0  0  0  0  0  0  0  0  0  0  0
    7.1777    0.6573   20.6716 C   0  0  0  0  0  0  0  0  0  0  0  0
    8.7304   -0.1910   19.1466 C   0  0  0  0  0  0  0  0  0  0  0  0
   10.2286    3.4028   23.3439 C   0  0  0  0  0  0  0  0  0  0  0  0
   12.5764    2.6703   23.3779 C   0  0  0  0  0  0  0  0  0  0  0  0
    6.7888    0.7522   18.4340 C   0  0  0  0  0  0  0  0  0  0  0  0
   11.7019    1.6067   23.4222 C   0  0  0  0  0  0  0  0  0  0  0  0
    8.3933    0.0376   20.4650 C   0  0  0  0  0  0  0  0  0  0  0  0
   10.6251   -0.4171   21.5310 C   0  0  0  0  0  0  0  0  0  0  0  0
   13.4338   -1.7482   22.8217 C   0  0  0  0  0  0  0  0  0  0  0  0
   13.4549   -0.2258   22.8079 C   0  0  0  0  0  0  0  0  0  0  0  0
   11.9611   -2.1466   22.7082 C   0  0  0  0  0  0  0  0  0  0  0  0
   12.1328    0.1575   23.4838 C   0  0  2  0  0  0  0  0  0  0  0  0
   11.1477   -0.8571   22.8708 C   0  0  1  0  0  0  0  0  0  0  0  0
    6.3473    1.0296   19.6755 N   0  0  0  0  0  0  0  0  0  0  0  0
    7.9491    0.1543   18.1023 N   0  0  0  0  0  0  0  0  0  0  0  0
    9.2383   -0.3387   21.5359 N   0  0  0  0  0  0  0  0  0  0  0  0
   11.3935   -0.1751   20.6058 O   0  0  0  0  0  0  0  0  0  0  0  0
   11.7577    4.1729   23.3130 S   0  0  0  0  0  0  0  0  0  0  0  0
    8.7625   -0.5759   22.4039 H   0  0  0  0  0  0  0  0  0  0  0  0
  1  4  2  0  0  0  0
  1  7  1  0  0  0  0
  2  8  1  0  0  0  0
  2 15  2  0  0  0  0
  3  8  2  0  0  0  0
  3 16  1  0  0  0  0
  4 19  1  0  0  0  0
  5  7  2  0  0  0  0
  5 19  1  0  0  0  0
  6 15  1  0  0  0  0
  6 16  2  0  0  0  0
  7 13  1  0  0  0  0
  8 17  1  0  0  0  0
  9 14  1  0  0  0  0
  9 17  1  0  0  0  0
  9 18  2  0  0  0  0
 10 11  1  0  0  0  0
 10 12  1  0  0  0  0
 11 13  1  0  0  0  0
 12 14  1  0  0  0  0
 13 14  1  0  0  0  0
 17 20  1  0  0  0  0
M  END

> <original SMILES>

O=C(Nc1cncnc1)[C@H]1CCC[C@H]1c1ccsc1

> <ref_mols>

x0874_0

> <ref_pdb>

receptors/protein-0387.pdb

> <Chemgauss4>

-6.6090259552002

> <binding_free_energy>

-14.493424793846174

> <binding_std_error>

2.883657911135859

$$$$
GAB-REV-70cc3ca5-9
  -OEChem-05122002103D

 22 24  0     0  0  0  0  0  0999 V2000
    8.0736   -4.9345   25.6856 C   0  0  0  0  0  0  0  0  0  0  0  0
    6.9761   -4.1203   25.9746 C   0  0  0  0  0  0  0  0  0  0  0  0
    9.1717   -4.4385   24.9717 C   0  0  0  0  0  0  0  0  0  0  0  0
    6.9350   -2.7842   25.5625 C   0  0  0  0  0  0  0  0  0  0  0  0
    5.1937    0.5309   19.5213 C   0  0  0  0  0  0  0  0  0  0  0  0
    5.7806    0.3913   18.2740 C   0  0  0  0  0  0  0  0  0  0  0  0
    7.8514    0.0080   19.1923 C   0  0  0  0  0  0  0  0  0  0  0  0
    6.0062    0.3963   20.6416 C   0  0  0  0  0  0  0  0  0  0  0  0
    9.1472   -3.0985   24.5496 C   0  0  0  0  0  0  0  0  0  0  0  0
    8.0395   -2.3118   24.8529 C   0  0  0  0  0  0  0  0  0  0  0  0
    7.3615    0.1298   20.4826 C   0  0  0  0  0  0  0  0  0  0  0  0
    9.5615   -1.1759   23.7180 C   0  0  0  0  0  0  0  0  0  0  0  0
    9.5880    0.2831   21.6508 C   0  0  0  0  0  0  0  0  0  0  0  0
    5.3998    0.5425   21.9987 C   0  0  0  0  0  0  0  0  0  0  0  0
   10.1696   -0.0175   23.0374 C   0  0  0  0  0  0  0  0  0  0  0  0
    7.0932    0.1324   18.0799 N   0  0  0  0  0  0  0  0  0  0  0  0
   10.0822   -2.3759   23.8447 N   0  0  0  0  0  0  0  0  0  0  0  0
    8.3318   -1.0874   24.3089 N   0  0  0  0  0  0  0  0  0  0  0  0
    8.2292   -0.0162   21.5911 N   0  0  0  0  0  0  0  0  0  0  0  0
   10.2905    0.7299   20.7497 O   0  0  0  0  0  0  0  0  0  0  0  0
    7.7413   -0.2668   24.3415 H   0  0  0  0  0  0  0  0  0  0  0  0
    7.8115   -0.3826   22.4440 H   0  0  0  0  0  0  0  0  0  0  0  0
  1  2  1  0  0  0  0
  1  3  2  0  0  0  0
  2  4  2  0  0  0  0
  3  9  1  0  0  0  0
  4 10  1  0  0  0  0
  5  6  2  0  0  0  0
  5  8  1  0  0  0  0
  6 16  1  0  0  0  0
  7 11  1  0  0  0  0
  7 16  2  0  0  0  0
  8 11  2  0  0  0  0
  8 14  1  0  0  0  0
  9 10  2  0  0  0  0
  9 17  1  0  0  0  0
 10 18  1  0  0  0  0
 11 19  1  0  0  0  0
 12 15  1  0  0  0  0
 12 17  2  0  0  0  0
 12 18  1  0  0  0  0
 13 15  1  0  0  0  0
 13 19  1  0  0  0  0
 13 20  2  0  0  0  0
 18 21  1  0  0  0  0
 19 22  1  0  0  0  0
M  END

> <original SMILES>

Cc1ccncc1NC(=O)Cc1nc2ccccc2[nH]1

> <ref_mols>

x0107_0

> <ref_pdb>

receptors/Mpro-x0107-protein.pdb

> <Chemgauss4>

-10.034979

> <binding_free_energy>

-14.24388398163266

> <binding_std_error>

0.1823184357976179

$$$$
ALV-UNI-7ff1a6f9-25
  -OEChem-05122002103D

 23 26  0     0  0  0  0  0  0999 V2000
   10.3789   -0.8217   25.0287 C   0  0  0  0  0  0  0  0  0  0  0  0
    8.5132   -0.2177   23.6174 C   0  0  0  0  0  0  0  0  0  0  0  0
    9.8870   -2.1235   25.1219 C   0  0  0  0  0  0  0  0  0  0  0  0
    8.0213   -1.5197   23.7106 C   0  0  0  0  0  0  0  0  0  0  0  0
   13.8620    1.2884   23.1576 C   0  0  0  0  0  0  0  0  0  0  0  0
   12.3601   -0.1662   22.4771 C   0  0  0  0  0  0  0  0  0  0  0  0
    9.6920    0.1313   24.2765 C   0  0  0  0  0  0  0  0  0  0  0  0
   12.4770    1.0383   23.1266 C   0  0  0  0  0  0  0  0  0  0  0  0
   11.4396    1.8860   23.6692 C   0  0  0  0  0  0  0  0  0  0  0  0
    8.7082   -2.4726   24.4628 C   0  0  0  0  0  0  0  0  0  0  0  0
   10.2004    1.4774   24.1804 C   0  0  0  0  0  0  0  0  0  0  0  0
   11.4409    3.2559   23.8007 C   0  0  0  0  0  0  0  0  0  0  0  0
    9.8964    4.9238   24.6475 C   0  0  0  0  0  0  0  0  0  0  0  0
   12.0362    5.4328   23.7466 C   0  0  0  0  0  0  0  0  0  0  0  0
   10.7610    5.9052   24.3581 C   0  0  0  0  0  0  0  0  0  0  0  0
   10.5565    7.3597   24.5881 C   0  0  0  0  0  0  0  0  0  0  0  0
   14.0218   -1.7566   21.4815 C   0  0  0  0  0  0  0  0  0  0  0  0
   14.5740    0.3205   22.5743 N   0  0  0  0  0  0  0  0  0  0  0  0
    9.4553    2.4952   24.6096 N   0  0  0  0  0  0  0  0  0  0  0  0
   12.3657    4.2049   23.4815 N   0  0  0  0  0  0  0  0  0  0  0  0
   13.6326   -0.5496   22.1708 N   0  0  0  0  0  0  0  0  0  0  0  0
   10.2171    3.5962   24.3772 N   0  0  0  0  0  0  0  0  0  0  0  0
    8.2359   -3.7228   24.5524 F   0  0  0  0  0  0  0  0  0  0  0  0
  1  3  2  0  0  0  0
  1  7  1  0  0  0  0
  2  4  1  0  0  0  0
  2  7  2  0  0  0  0
  3 10  1  0  0  0  0
  4 10  2  0  0  0  0
  5  8  1  0  0  0  0
  5 18  2  0  0  0  0
  6  8  2  0  0  0  0
  6 21  1  0  0  0  0
  7 11  1  0  0  0  0
  8  9  1  0  0  0  0
  9 11  1  0  0  0  0
  9 12  2  0  0  0  0
 10 23  1  0  0  0  0
 11 19  2  0  0  0  0
 12 20  1  0  0  0  0
 12 22  1  0  0  0  0
 13 15  2  0  0  0  0
 13 22  1  0  0  0  0
 14 15  1  0  0  0  0
 14 20  2  0  0  0  0
 15 16  1  0  0  0  0
 17 21  1  0  0  0  0
 18 21  1  0  0  0  0
 19 22  1  0  0  0  0
M  END

> <original SMILES>

Cc1cnc2c(-c3cnn(C)c3)c(-c3ccc(F)cc3)nn2c1

> <ref_mols>

x0395_0,x0426_0,x0434_0,x0540_0,x0678_0,x0830_0,x1093_0

> <ref_pdb>

receptors/Mpro-x0395-protein.pdb

> <Chemgauss4>

-5.541764

> <binding_free_energy>

-14.116026262471479

> <binding_std_error>

0.14954858452954475

$$$$
ALV-UNI-7ff1a6f9-20
  -OEChem-05122002103D

 24 27  0     0  0  0  0  0  0999 V2000
    9.3408   -1.4457   25.0856 C   0  0  0  0  0  0  0  0  0  0  0  0
    7.1559   -0.7508   24.3239 C   0  0  0  0  0  0  0  0  0  0  0  0
    8.8730   -2.7510   25.2370 C   0  0  0  0  0  0  0  0  0  0  0  0
    6.6880   -2.0561   24.4753 C   0  0  0  0  0  0  0  0  0  0  0  0
   12.2113    0.2926   22.8481 C   0  0  0  0  0  0  0  0  0  0  0  0
    8.4823   -0.4456   24.6291 C   0  0  0  0  0  0  0  0  0  0  0  0
    7.5466   -3.0562   24.9319 C   0  0  0  0  0  0  0  0  0  0  0  0
   10.8141    0.4440   22.7661 C   0  0  0  0  0  0  0  0  0  0  0  0
    8.9627    0.8948   24.4739 C   0  0  0  0  0  0  0  0  0  0  0  0
    9.9918    1.2891   23.6516 C   0  0  0  0  0  0  0  0  0  0  0  0
   12.5226   -0.5769   21.8315 C   0  0  0  0  0  0  0  0  0  0  0  0
    9.1221    3.0082   24.7523 C   0  0  0  0  0  0  0  0  0  0  0  0
    9.0379    4.3890   25.0989 C   0  0  0  0  0  0  0  0  0  0  0  0
   10.8900    4.8483   23.5705 C   0  0  0  0  0  0  0  0  0  0  0  0
   10.9734    3.5493   23.2407 C   0  0  0  0  0  0  0  0  0  0  0  0
    9.8821    5.2822   24.5374 C   0  0  0  0  0  0  0  0  0  0  0  0
   13.8043   -1.1415   21.3794 C   0  0  0  0  0  0  0  0  0  0  0  0
    9.8451    6.7446   24.8596 C   0  0  0  0  0  0  0  0  0  0  0  0
    8.4289    1.9614   25.1516 N   0  0  0  0  0  0  0  0  0  0  0  0
   10.2750   -0.2718   21.7756 N   0  0  0  0  0  0  0  0  0  0  0  0
   11.3391   -0.8814   21.2258 N   0  0  0  0  0  0  0  0  0  0  0  0
   10.0964    2.6448   23.8286 N   0  0  0  0  0  0  0  0  0  0  0  0
    7.0973   -4.3097   25.0773 F   0  0  0  0  0  0  0  0  0  0  0  0
   11.1832   -1.4949   20.4356 H   0  0  0  0  0  0  0  0  0  0  0  0
  1  3  2  0  0  0  0
  1  6  1  0  0  0  0
  2  4  1  0  0  0  0
  2  6  2  0  0  0  0
  3  7  1  0  0  0  0
  4  7  2  0  0  0  0
  5  8  1  0  0  0  0
  5 11  2  0  0  0  0
  6  9  1  0  0  0  0
  7 23  1  0  0  0  0
  8 10  1  0  0  0  0
  8 20  2  0  0  0  0
  9 10  2  0  0  0  0
  9 19  1  0  0  0  0
 10 22  1  0  0  0  0
 11 17  1  0  0  0  0
 11 21  1  0  0  0  0
 12 13  1  0  0  0  0
 12 19  2  0  0  0  0
 12 22  1  0  0  0  0
 13 16  2  0  0  0  0
 14 15  2  0  0  0  0
 14 16  1  0  0  0  0
 15 22  1  0  0  0  0
 16 18  1  0  0  0  0
 20 21  1  0  0  0  0
 21 24  1  0  0  0  0
M  END

> <original SMILES>

Cc1ccn2c(-c3cc(C)n[nH]3)c(-c3ccc(F)cc3)nc2c1

> <ref_mols>

x0395_0,x0426_0,x0434_0,x0540_0,x0678_0,x0830_0,x1093_0

> <ref_pdb>

receptors/Mpro-x0540-protein.pdb

> <Chemgauss4>

-3.537782

> <binding_free_energy>

-13.921099214693879

> <binding_std_error>

1.1643271365951928

$$$$
WAR-XCH-eb7b662f-2
  -OEChem-05122002103D

 21 22  0     0  0  0  0  0  0999 V2000
    5.9587   -4.7623   20.8709 C   0  0  0  0  0  0  0  0  0  0  0  0
   14.5318   -2.8827   26.5033 C   0  0  0  0  0  0  0  0  0  0  0  0
   13.3516   -3.0977   25.8004 C   0  0  0  0  0  0  0  0  0  0  0  0
    7.6946   -3.9109   22.3682 C   0  0  0  0  0  0  0  0  0  0  0  0
    6.0641   -5.4847   23.2055 C   0  0  0  0  0  0  0  0  0  0  0  0
    7.7859   -4.6342   24.6715 C   0  0  0  0  0  0  0  0  0  0  0  0
   14.9277   -1.5728   26.7209 C   0  0  0  0  0  0  0  0  0  0  0  0
   13.0952   -0.7407   25.6127 C   0  0  0  0  0  0  0  0  0  0  0  0
    6.5773   -4.7190   22.1586 C   0  0  0  0  0  0  0  0  0  0  0  0
   12.6136   -2.0116   25.3430 C   0  0  0  0  0  0  0  0  0  0  0  0
    8.2990   -3.8685   23.6246 C   0  0  0  0  0  0  0  0  0  0  0  0
    6.6684   -5.4423   24.4620 C   0  0  0  0  0  0  0  0  0  0  0  0
   10.4918   -3.2559   24.7362 C   0  0  0  0  0  0  0  0  0  0  0  0
    5.4566   -4.7975   19.8252 N   0  0  0  0  0  0  0  0  0  0  0  0
   14.2373   -0.4924   26.2921 N   0  0  0  0  0  0  0  0  0  0  0  0
   11.4090   -2.1987   24.6248 N   0  0  0  0  0  0  0  0  0  0  0  0
    9.4169   -3.0607   23.8348 N   0  0  0  0  0  0  0  0  0  0  0  0
   10.5989   -4.2108   25.4991 O   0  0  0  0  0  0  0  0  0  0  0  0
    6.0356   -6.3876   25.7538 Cl  0  0  0  0  0  0  0  0  0  0  0  0
   11.1792   -1.4789   23.9443 H   0  0  0  0  0  0  0  0  0  0  0  0
    9.4806   -2.2094   23.2664 H   0  0  0  0  0  0  0  0  0  0  0  0
  1  9  1  0  0  0  0
  1 14  3  0  0  0  0
  2  3  2  0  0  0  0
  2  7  1  0  0  0  0
  3 10  1  0  0  0  0
  4  9  2  0  0  0  0
  4 11  1  0  0  0  0
  5  9  1  0  0  0  0
  5 12  2  0  0  0  0
  6 11  2  0  0  0  0
  6 12  1  0  0  0  0
  7 15  2  0  0  0  0
  8 10  2  0  0  0  0
  8 15  1  0  0  0  0
 10 16  1  0  0  0  0
 11 17  1  0  0  0  0
 12 19  1  0  0  0  0
 13 16  1  0  0  0  0
 13 17  1  0  0  0  0
 13 18  2  0  0  0  0
 16 20  1  0  0  0  0
 17 21  1  0  0  0  0
M  END

> <original SMILES>

N#Cc1cc(Cl)cc(NC(=O)Nc2cccnc2)c1

> <ref_mols>

x0305_0,x0434_0

> <ref_pdb>

receptors/protein-0387.pdb

> <Chemgauss4>

-4.55587100982666

> <binding_free_energy>

-12.831381276923084

> <binding_std_error>

0.1086803555972861

$$$$
DAR-DIA-fc970077-13
  -OEChem-05122002103D

 20 22  0     1  0  0  0  0  0999 V2000
   14.3526   -1.5692   23.8479 C   0  0  0  0  0  0  0  0  0  0  0  0
   13.9461   -0.4789   24.6169 C   0  0  0  0  0  0  0  0  0  0  0  0
   13.4506   -2.1863   22.9810 C   0  0  0  0  0  0  0  0  0  0  0  0
    5.7060    0.8806   18.9033 C   0  0  0  0  0  0  0  0  0  0  0  0
   12.6376   -0.0056   24.5193 C   0  0  0  0  0  0  0  0  0  0  0  0
   12.1422   -1.7130   22.8833 C   0  0  0  0  0  0  0  0  0  0  0  0
    6.2954    0.9268   20.1618 C   0  0  0  0  0  0  0  0  0  0  0  0
    6.5283    0.6620   17.8097 C   0  0  0  0  0  0  0  0  0  0  0  0
    8.4039    0.5424   19.1310 C   0  0  0  0  0  0  0  0  0  0  0  0
   11.7356   -0.6226   23.6524 C   0  0  0  0  0  0  0  0  0  0  0  0
    7.6696    0.7555   20.2865 C   0  0  0  0  0  0  0  0  0  0  0  0
    9.6380    1.2460   21.7170 C   0  0  0  0  0  0  0  0  0  0  0  0
   10.2003    1.2326   23.1256 C   0  0  0  0  0  0  0  0  0  0  0  0
    8.1036   -1.0065   23.2838 C   0  0  0  0  0  0  0  0  0  0  0  0
    7.5506    0.3090   22.7446 C   0  0  0  0  0  0  0  0  0  0  0  0
    9.3177   -0.8527   24.2039 C   0  0  0  0  0  0  0  0  0  0  0  0
    7.8668    0.4911   17.8914 N   0  0  0  0  0  0  0  0  0  0  0  0
    8.3111    0.7986   21.5799 N   0  0  0  0  0  0  0  0  0  0  0  0
   10.4260   -0.1491   23.5543 N   0  0  2  0  0  0  0  0  0  0  0  0
   10.3772    1.5962   20.7939 O   0  0  0  0  0  0  0  0  0  0  0  0
  1  2  1  0  0  0  0
  1  3  2  0  0  0  0
  2  5  2  0  0  0  0
  3  6  1  0  0  0  0
  4  7  2  0  0  0  0
  4  8  1  0  0  0  0
  5 10  1  0  0  0  0
  6 10  2  0  0  0  0
  7 11  1  0  0  0  0
  8 17  2  0  0  0  0
  9 11  2  0  0  0  0
  9 17  1  0  0  0  0
 10 19  1  0  0  0  0
 11 18  1  0  0  0  0
 12 13  1  0  0  0  0
 12 18  1  0  0  0  0
 12 20  2  0  0  0  0
 13 19  1  0  0  0  0
 14 15  1  0  0  0  0
 14 16  1  0  0  0  0
 15 18  1  0  0  0  0
 16 19  1  0  0  0  0
M  END

> <original SMILES>

O=C1CN(c2ccccc2)CCCN1c1cccnc1

> <ref_mols>

x0434_0

> <ref_pdb>

receptors/protein-0387.pdb

> <Chemgauss4>

-5.4485445022583

> <binding_free_energy>

-12.811625460000002

> <binding_std_error>

0.13884792778358468

$$$$
DAR-DIA-23aa0b97-4
  -OEChem-05122002103D

 19 20  0     0  0  0  0  0  0999 V2000
   14.4585   -2.0070   26.3366 C   0  0  0  0  0  0  0  0  0  0  0  0
   12.2892   -0.1160   23.9756 C   0  0  0  0  0  0  0  0  0  0  0  0
    7.5017   -6.3099   21.7085 C   0  0  0  0  0  0  0  0  0  0  0  0
   13.3899   -0.4856   24.7485 C   0  0  0  0  0  0  0  0  0  0  0  0
    7.9296   -5.6094   22.8307 C   0  0  0  0  0  0  0  0  0  0  0  0
   11.1286   -0.8894   23.9999 C   0  0  0  0  0  0  0  0  0  0  0  0
   12.1697   -2.4022   25.5698 C   0  0  0  0  0  0  0  0  0  0  0  0
    6.4001   -5.8248   21.0221 C   0  0  0  0  0  0  0  0  0  0  0  0
    6.1622   -4.0588   22.4723 C   0  0  0  0  0  0  0  0  0  0  0  0
   13.3302   -1.6287   25.5456 C   0  0  0  0  0  0  0  0  0  0  0  0
    7.2525   -4.4613   23.2267 C   0  0  0  0  0  0  0  0  0  0  0  0
   11.0689   -2.0326   24.7969 C   0  0  0  0  0  0  0  0  0  0  0  0
    8.7085   -2.5947   24.1206 C   0  0  0  0  0  0  0  0  0  0  0  0
    7.6917   -3.6801   24.4373 C   0  0  0  0  0  0  0  0  0  0  0  0
   15.3748   -2.3141   26.9791 N   0  0  0  0  0  0  0  0  0  0  0  0
    5.7169   -4.7133   21.3764 N   0  0  0  0  0  0  0  0  0  0  0  0
    9.9076   -2.8052   24.8219 N   0  0  0  0  0  0  0  0  0  0  0  0
    8.4651   -1.6739   23.3472 O   0  0  0  0  0  0  0  0  0  0  0  0
    9.9322   -3.6322   25.4297 H   0  0  0  0  0  0  0  0  0  0  0  0
  1 10  1  0  0  0  0
  1 15  3  0  0  0  0
  2  4  2  0  0  0  0
  2  6  1  0  0  0  0
  3  5  2  0  0  0  0
  3  8  1  0  0  0  0
  4 10  1  0  0  0  0
  5 11  1  0  0  0  0
  6 12  2  0  0  0  0
  7 10  2  0  0  0  0
  7 12  1  0  0  0  0
  8 16  2  0  0  0  0
  9 11  2  0  0  0  0
  9 16  1  0  0  0  0
 11 14  1  0  0  0  0
 12 17  1  0  0  0  0
 13 14  1  0  0  0  0
 13 17  1  0  0  0  0
 13 18  2  0  0  0  0
 17 19  1  0  0  0  0
M  END

> <original SMILES>

N#Cc1cccc(NC(=O)Cc2cccnc2)c1

> <ref_mols>

x0104_0,x0305_0,x0434_0,x0678_0,x0995_0,x1093_0,x1249_0

> <ref_pdb>

receptors/Mpro-x0305-protein.pdb

> <Chemgauss4>

-4.21344

> <binding_free_energy>

-12.78427151410255

> <binding_std_error>

0.5662222114901861

$$$$
BEN-VAN-d8fd1356-12
  -OEChem-05122002103D

 24 26  0     0  0  0  0  0  0999 V2000
   13.4910    2.6160   22.4863 C   0  0  0  0  0  0  0  0  0  0  0  0
    9.5204   -1.2741   25.0757 C   0  0  0  0  0  0  0  0  0  0  0  0
   10.0304   -2.3814   22.6346 C   0  0  0  0  0  0  0  0  0  0  0  0
   10.4946    3.8342   24.1887 C   0  0  0  0  0  0  0  0  0  0  0  0
   12.3253    2.9424   23.2074 C   0  0  0  0  0  0  0  0  0  0  0  0
    8.5640   -2.0921   24.4845 C   0  0  0  0  0  0  0  0  0  0  0  0
   11.7428    1.9677   24.0204 C   0  0  0  0  0  0  0  0  0  0  0  0
   11.5271    4.1147   23.3237 C   0  0  0  0  0  0  0  0  0  0  0  0
   12.2699    0.6777   24.1489 C   0  0  0  0  0  0  0  0  0  0  0  0
   14.0294    1.3296   22.6050 C   0  0  0  0  0  0  0  0  0  0  0  0
   13.4266    0.3769   23.4240 C   0  0  0  0  0  0  0  0  0  0  0  0
    8.8161   -2.6602   23.2408 C   0  0  0  0  0  0  0  0  0  0  0  0
   10.7033   -1.0575   24.3875 C   0  0  0  0  0  0  0  0  0  0  0  0
    7.2846   -2.3324   25.2175 C   0  0  0  0  0  0  0  0  0  0  0  0
   10.8831    6.4788   22.8528 C   0  0  0  0  0  0  0  0  0  0  0  0
   10.9839   -1.5919   23.1778 N   0  0  0  0  0  0  0  0  0  0  0  0
   10.6334    2.5369   24.6038 N   0  0  0  0  0  0  0  0  0  0  0  0
   11.7331    5.2966   22.7041 N   0  0  0  0  0  0  0  0  0  0  0  0
   11.6709   -0.2495   24.9544 O   0  0  0  0  0  0  0  0  0  0  0  0
   15.1394    1.0284   21.9143 F   0  0  0  0  0  0  0  0  0  0  0  0
   14.1336   -1.1967   23.5326 Cl  0  0  0  0  0  0  0  0  0  0  0  0
    7.5726   -3.7823   22.3664 Br  0  0  0  0  0  0  0  0  0  0  0  0
   10.0117    2.0642   25.2453 H   0  0  0  0  0  0  0  0  0  0  0  0
   12.5385    5.4118   22.0705 H   0  0  0  0  0  0  0  0  0  0  0  0
  1  5  1  0  0  0  0
  1 10  2  0  0  0  0
  2  6  2  0  0  0  0
  2 13  1  0  0  0  0
  3 12  2  0  0  0  0
  3 16  1  0  0  0  0
  4  8  2  0  0  0  0
  4 17  1  0  0  0  0
  5  7  2  0  0  0  0
  5  8  1  0  0  0  0
  6 12  1  0  0  0  0
  6 14  1  0  0  0  0
  7  9  1  0  0  0  0
  7 17  1  0  0  0  0
  8 18  1  0  0  0  0
  9 11  2  0  0  0  0
  9 19  1  0  0  0  0
 10 11  1  0  0  0  0
 10 20  1  0  0  0  0
 11 21  1  0  0  0  0
 12 22  1  0  0  0  0
 13 16  2  0  0  0  0
 13 19  1  0  0  0  0
 15 18  1  0  0  0  0
 17 23  1  0  0  0  0
 18 24  1  0  0  0  0
M  END

> <original SMILES>

CNc1c[nH]c2c(Oc3cc(C)c(Br)cn3)c(Cl)c(F)cc12

> <ref_mols>

x0104_0,x0107_0,x0946_0,x0995_0

> <ref_pdb>

receptors/Mpro-x0104-protein.pdb

> <Chemgauss4>

-7.925056

> <binding_free_energy>

-12.314507319999997

> <binding_std_error>

0.5575148371256102

$$$$
ALE-HEI-f28a35b5-12
  -OEChem-05122002103D

 15 15  0     0  0  0  0  0  0999 V2000
    5.6013    0.9039   18.8447 C   0  0  0  0  0  0  0  0  0  0  0  0
    6.2987    0.6560   17.6734 C   0  0  0  0  0  0  0  0  0  0  0  0
    8.1831    0.0217   18.8243 C   0  0  0  0  0  0  0  0  0  0  0  0
    6.2583    0.6895   20.0512 C   0  0  0  0  0  0  0  0  0  0  0  0
    7.5741    0.2400   20.0495 C   0  0  0  0  0  0  0  0  0  0  0  0
    9.6560    0.1252   21.4619 C   0  0  0  0  0  0  0  0  0  0  0  0
    5.5304    0.9493   21.3292 C   0  0  0  0  0  0  0  0  0  0  0  0
   10.0073   -0.2194   22.9041 C   0  0  0  0  0  0  0  0  0  0  0  0
   10.3211   -1.6980   23.1271 C   0  0  0  0  0  0  0  0  0  0  0  0
   11.4509   -2.1834   22.2315 C   0  0  0  0  0  0  0  0  0  0  0  0
    7.5773    0.2189   17.6319 N   0  0  0  0  0  0  0  0  0  0  0  0
    8.2852    0.0067   21.2506 N   0  0  0  0  0  0  0  0  0  0  0  0
   10.5060    0.4747   20.6496 O   0  0  0  0  0  0  0  0  0  0  0  0
   13.0512   -1.1226   22.5604 Br  0  0  0  0  0  0  0  0  0  0  0  0
    7.7154   -0.2784   22.0445 H   0  0  0  0  0  0  0  0  0  0  0  0
  1  2  2  0  0  0  0
  1  4  1  0  0  0  0
  2 11  1  0  0  0  0
  3  5  1  0  0  0  0
  3 11  2  0  0  0  0
  4  5  2  0  0  0  0
  4  7  1  0  0  0  0
  5 12  1  0  0  0  0
  6  8  1  0  0  0  0
  6 12  1  0  0  0  0
  6 13  2  0  0  0  0
  8  9  1  0  0  0  0
  9 10  1  0  0  0  0
 10 14  1  0  0  0  0
 12 15  1  0  0  0  0
M  END

> <original SMILES>

Cc1ccncc1NC(=O)CCCBr

> <ref_mols>

x0107_0,x0395_0,x0434_0,x0678_0,x0967_0,x0991_0,x1093_0

> <ref_pdb>

receptors/Mpro-x0395-protein.pdb

> <Chemgauss4>

-4.6852

> <binding_free_energy>

-11.792648074840343

> <binding_std_error>

2.4244564798997548

$$$$
ALV-UNI-7ff1a6f9-14
  -OEChem-05122002103D

 27 31  0     0  0  0  0  0  0999 V2000
    8.6671   -0.3609   20.8854 C   0  0  0  0  0  0  0  0  0  0  0  0
    8.3340    2.8475   23.6062 C   0  0  0  0  0  0  0  0  0  0  0  0
   10.6240    2.1972   24.0185 C   0  0  0  0  0  0  0  0  0  0  0  0
    8.3781   -0.1701   19.5162 C   0  0  0  0  0  0  0  0  0  0  0  0
    8.7502    4.1552   23.3567 C   0  0  0  0  0  0  0  0  0  0  0  0
   11.0403    3.5050   23.7690 C   0  0  0  0  0  0  0  0  0  0  0  0
    6.4726    0.4993   21.7370 C   0  0  0  0  0  0  0  0  0  0  0  0
    5.0671    1.1781   19.8468 C   0  0  0  0  0  0  0  0  0  0  0  0
    6.2187    0.6749   20.3826 C   0  0  0  0  0  0  0  0  0  0  0  0
    9.2709    1.8685   23.9371 C   0  0  0  0  0  0  0  0  0  0  0  0
    7.7574   -0.0412   21.9423 C   0  0  0  0  0  0  0  0  0  0  0  0
    7.1000    0.3693   19.2812 C   0  0  0  0  0  0  0  0  0  0  0  0
   10.1033    4.4840   23.4381 C   0  0  0  0  0  0  0  0  0  0  0  0
    8.8434    0.5258   24.1935 C   0  0  0  0  0  0  0  0  0  0  0  0
    8.1830   -0.2876   23.3032 C   0  0  0  0  0  0  0  0  0  0  0  0
    8.5255   -1.3092   25.2428 C   0  0  0  0  0  0  0  0  0  0  0  0
    8.4311   -2.4193   26.1331 C   0  0  0  0  0  0  0  0  0  0  0  0
    7.2682   -3.6745   24.3868 C   0  0  0  0  0  0  0  0  0  0  0  0
    7.3546   -2.6321   23.5446 C   0  0  0  0  0  0  0  0  0  0  0  0
    7.8292   -3.5608   25.7327 C   0  0  0  0  0  0  0  0  0  0  0  0
    7.6970   -4.7599   26.6205 C   0  0  0  0  0  0  0  0  0  0  0  0
    6.4857    0.6832   18.1268 N   0  0  0  0  0  0  0  0  0  0  0  0
    9.0526   -0.1107   25.3906 N   0  0  0  0  0  0  0  0  0  0  0  0
    5.2822    1.1603   18.4995 N   0  0  0  0  0  0  0  0  0  0  0  0
    7.9774   -1.4656   23.9742 N   0  0  0  0  0  0  0  0  0  0  0  0
   10.5029    5.7398   23.1985 F   0  0  0  0  0  0  0  0  0  0  0  0
    4.6463    1.4608   17.7718 H   0  0  0  0  0  0  0  0  0  0  0  0
  1  4  2  0  0  0  0
  1 11  1  0  0  0  0
  2  5  2  0  0  0  0
  2 10  1  0  0  0  0
  3  6  1  0  0  0  0
  3 10  2  0  0  0  0
  4 12  1  0  0  0  0
  5 13  1  0  0  0  0
  6 13  2  0  0  0  0
  7  9  1  0  0  0  0
  7 11  2  0  0  0  0
  8  9  2  0  0  0  0
  8 24  1  0  0  0  0
  9 12  1  0  0  0  0
 10 14  1  0  0  0  0
 11 15  1  0  0  0  0
 12 22  2  0  0  0  0
 13 26  1  0  0  0  0
 14 15  2  0  0  0  0
 14 23  1  0  0  0  0
 15 25  1  0  0  0  0
 16 17  1  0  0  0  0
 16 23  2  0  0  0  0
 16 25  1  0  0  0  0
 17 20  2  0  0  0  0
 18 19  2  0  0  0  0
 18 20  1  0  0  0  0
 19 25  1  0  0  0  0
 20 21  1  0  0  0  0
 22 24  1  0  0  0  0
 24 27  1  0  0  0  0
M  END

> <original SMILES>

Cc1ccn2c(-c3ccc4[nH]ncc4c3)c(-c3ccc(F)cc3)nc2c1

> <ref_mols>

x0395_0,x0426_0,x0434_0,x0540_0,x0678_0,x0830_0,x1093_0

> <ref_pdb>

receptors/Mpro-x0540-protein.pdb

> <Chemgauss4>

-3.156784

> <binding_free_energy>

-11.600263757237045

> <binding_std_error>

3.714652200213301

$$$$
TRY-UNI-1fd04853-11
  -OEChem-05122002103D

 23 25  0     0  0  0  0  0  0999 V2000
    7.2749   -2.2930   21.1604 C   0  0  0  0  0  0  0  0  0  0  0  0
    8.0278   -3.2233   21.8745 C   0  0  0  0  0  0  0  0  0  0  0  0
   12.0892   -0.7609   25.2344 C   0  0  0  0  0  0  0  0  0  0  0  0
   11.3959   -1.8570   25.7358 C   0  0  0  0  0  0  0  0  0  0  0  0
    5.9934   -2.6409   20.7549 C   0  0  0  0  0  0  0  0  0  0  0  0
   13.8681   -2.2236   24.6406 C   0  0  0  0  0  0  0  0  0  0  0  0
    6.7948   -6.5507   22.7397 C   0  0  0  0  0  0  0  0  0  0  0  0
    7.4428   -4.4707   22.1460 C   0  0  0  0  0  0  0  0  0  0  0  0
    7.8418   -5.6577   22.8155 C   0  0  0  0  0  0  0  0  0  0  0  0
   13.3494   -0.9393   24.6748 C   0  0  0  0  0  0  0  0  0  0  0  0
   12.0019   -3.1003   25.6540 C   0  0  0  0  0  0  0  0  0  0  0  0
    6.1492   -4.6864   21.6798 C   0  0  0  0  0  0  0  0  0  0  0  0
    9.4790   -4.9079   24.5861 C   0  0  0  0  0  0  0  0  0  0  0  0
    9.1400   -5.9018   23.4755 C   0  0  0  0  0  0  0  0  0  0  0  0
   11.2820   -4.3060   26.1851 C   0  0  0  0  0  0  0  0  0  0  0  0
   13.2245   -3.3126   25.1175 N   0  0  0  0  0  0  0  0  0  0  0  0
    5.3803   -3.8248   20.9875 N   0  0  0  0  0  0  0  0  0  0  0  0
    5.7738   -5.9514   22.0486 N   0  0  0  0  0  0  0  0  0  0  0  0
   10.7398   -5.1225   25.1245 N   0  0  0  0  0  0  0  0  0  0  0  0
    8.7029   -4.0242   24.9404 O   0  0  0  0  0  0  0  0  0  0  0  0
   14.2333    0.3887   24.0455 Cl  0  0  0  0  0  0  0  0  0  0  0  0
    4.8812   -6.3773   21.8411 H   0  0  0  0  0  0  0  0  0  0  0  0
   11.3036   -5.8839   24.7581 H   0  0  0  0  0  0  0  0  0  0  0  0
  1  2  2  0  0  0  0
  1  5  1  0  0  0  0
  2  8  1  0  0  0  0
  3  4  2  0  0  0  0
  3 10  1  0  0  0  0
  4 11  1  0  0  0  0
  5 17  2  0  0  0  0
  6 10  2  0  0  0  0
  6 16  1  0  0  0  0
  7  9  2  0  0  0  0
  7 18  1  0  0  0  0
  8  9  1  0  0  0  0
  8 12  2  0  0  0  0
  9 14  1  0  0  0  0
 10 21  1  0  0  0  0
 11 15  1  0  0  0  0
 11 16  2  0  0  0  0
 12 17  1  0  0  0  0
 12 18  1  0  0  0  0
 13 14  1  0  0  0  0
 13 19  1  0  0  0  0
 13 20  2  0  0  0  0
 15 19  1  0  0  0  0
 18 22  1  0  0  0  0
 19 23  1  0  0  0  0
M  END

> <original SMILES>

O=C(Cc1c[nH]c2ncccc12)NCc1ccc(Cl)cn1

> <ref_mols>

x0104_0,x0161_0,x0195_0,x0305_0,x0387_0,x0678_0,x1382_0

> <ref_pdb>

receptors/Mpro-x0161-protein.pdb

> <Chemgauss4>

-7.189248

> <binding_free_energy>

-11.515360384360733

> <binding_std_error>

0.9830072365570409

$$$$
PHI-UNK-c3ab17cb-3
  -OEChem-05122002103D

 22 22  0     0  0  0  0  0  0999 V2000
    9.8527    2.9297   24.3716 C   0  0  0  0  0  0  0  0  0  0  0  0
   12.2577    2.1581   23.1871 C   0  0  0  0  0  0  0  0  0  0  0  0
   10.1924    1.5788   24.2988 C   0  0  0  0  0  0  0  0  0  0  0  0
   11.9180    3.5090   23.2599 C   0  0  0  0  0  0  0  0  0  0  0  0
   10.7155    3.8948   23.8521 C   0  0  0  0  0  0  0  0  0  0  0  0
   11.3949    1.1930   23.7066 C   0  0  0  0  0  0  0  0  0  0  0  0
    9.2730    0.5915   24.8483 C   0  0  0  0  0  0  0  0  0  0  0  0
   12.8372    4.4964   22.7103 C   0  0  0  0  0  0  0  0  0  0  0  0
    9.7692   -1.2171   22.0301 C   0  0  0  0  0  0  0  0  0  0  0  0
   10.3263    5.3341   23.9440 C   0  0  0  0  0  0  0  0  0  0  0  0
   11.7835   -0.2467   23.6165 C   0  0  0  0  0  0  0  0  0  0  0  0
    9.4296    0.2370   26.1840 N   0  0  0  0  0  0  0  0  0  0  0  0
   12.6804    4.8508   21.3746 N   0  0  0  0  0  0  0  0  0  0  0  0
    8.3902    0.0701   24.1467 O   0  0  0  0  0  0  0  0  0  0  0  0
   13.7408    4.9936   23.4029 O   0  0  0  0  0  0  0  0  0  0  0  0
    9.0630    5.7915   22.7195 S   0  0  0  0  0  0  0  0  0  0  0  0
   11.5507   -0.9256   21.9464 S   0  0  0  0  0  0  0  0  0  0  0  0
   10.1677    0.6691   26.7292 H   0  0  0  0  0  0  0  0  0  0  0  0
    8.8206   -0.4450   26.6245 H   0  0  0  0  0  0  0  0  0  0  0  0
   11.9423    4.4186   20.8296 H   0  0  0  0  0  0  0  0  0  0  0  0
   13.2892    5.5329   20.9340 H   0  0  0  0  0  0  0  0  0  0  0  0
    8.9733    7.0771   23.0853 H   0  0  0  0  0  0  0  0  0  0  0  0
  1  3  1  0  0  0  0
  1  5  2  0  0  0  0
  2  4  2  0  0  0  0
  2  6  1  0  0  0  0
  3  6  2  0  0  0  0
  3  7  1  0  0  0  0
  4  5  1  0  0  0  0
  4  8  1  0  0  0  0
  5 10  1  0  0  0  0
  6 11  1  0  0  0  0
  7 12  1  0  0  0  0
  7 14  2  0  0  0  0
  8 13  1  0  0  0  0
  8 15  2  0  0  0  0
  9 17  1  0  0  0  0
 10 16  1  0  0  0  0
 11 17  1  0  0  0  0
 12 18  1  0  0  0  0
 12 19  1  0  0  0  0
 13 20  1  0  0  0  0
 13 21  1  0  0  0  0
 16 22  1  0  0  0  0
M  END

> <original SMILES>

CSCc1cc(C(N)=O)c(CS)cc1C(N)=O

> <ref_mols>

x0104_0,x1093_0,x1249_0

> <ref_pdb>

receptors/Mpro-x1249-protein.pdb

> <Chemgauss4>

-2.840863

> <binding_free_energy>

-11.471376051538428

> <binding_std_error>

0.13745045335997652

$$$$
BEN-VAN-d8fd1356-9
  -OEChem-05122002103D

 28 31  0     0  0  0  0  0  0999 V2000
    4.3726    0.9817   21.2898 C   0  0  0  0  0  0  0  0  0  0  0  0
    6.7688    1.0316   21.4902 C   0  0  0  0  0  0  0  0  0  0  0  0
    8.2046   -1.3462   23.7465 C   0  0  0  0  0  0  0  0  0  0  0  0
    4.3116    0.9464   22.6736 C   0  0  0  0  0  0  0  0  0  0  0  0
   11.9193    1.1044   22.5935 C   0  0  0  0  0  0  0  0  0  0  0  0
    6.7985    0.5401   18.5494 C   0  0  0  0  0  0  0  0  0  0  0  0
    5.2968    1.4558   17.2216 C   0  0  0  0  0  0  0  0  0  0  0  0
   10.8640   -0.8474   23.0253 C   0  0  0  0  0  0  0  0  0  0  0  0
    5.6284    1.0250   20.6946 C   0  0  0  0  0  0  0  0  0  0  0  0
   12.1059   -0.2572   22.6589 C   0  0  0  0  0  0  0  0  0  0  0  0
    9.9441    0.1927   23.1744 C   0  0  0  0  0  0  0  0  0  0  0  0
    8.6093   -0.0253   23.5337 C   0  0  0  0  0  0  0  0  0  0  0  0
    9.1006   -2.4040   23.6049 C   0  0  0  0  0  0  0  0  0  0  0  0
   10.4330   -2.1708   23.2450 C   0  0  0  0  0  0  0  0  0  0  0  0
    5.7470    1.0631   19.2646 C   0  0  0  0  0  0  0  0  0  0  0  0
    6.6005    0.9943   22.8650 C   0  0  0  0  0  0  0  0  0  0  0  0
   15.4144   -2.1080   23.3892 C   0  0  0  0  0  0  0  0  0  0  0  0
   13.3912   -0.9338   22.3854 C   0  0  0  0  0  0  0  0  0  0  0  0
   14.1108   -1.3790   23.6737 C   0  0  0  0  0  0  0  0  0  0  0  0
    5.3970    0.9516   23.4794 N   0  0  0  0  0  0  0  0  0  0  0  0
    4.8155    1.6314   18.4322 N   0  0  0  0  0  0  0  0  0  0  0  0
    6.4957    0.7989   17.2423 N   0  0  0  0  0  0  0  0  0  0  0  0
   10.6124    1.3660   22.9063 N   0  0  0  0  0  0  0  0  0  0  0  0
    7.7187    1.0005   23.6779 O   0  0  0  0  0  0  0  0  0  0  0  0
    8.6690   -3.6563   23.8156 F   0  0  0  0  0  0  0  0  0  0  0  0
   11.5551   -3.4425   23.0634 Cl  0  0  0  0  0  0  0  0  0  0  0  0
    7.0556    0.5506   16.4376 H   0  0  0  0  0  0  0  0  0  0  0  0
   10.1972    2.2871   22.9358 H   0  0  0  0  0  0  0  0  0  0  0  0
  1  4  2  0  0  0  0
  1  9  1  0  0  0  0
  2  9  2  0  0  0  0
  2 16  1  0  0  0  0
  3 12  2  0  0  0  0
  3 13  1  0  0  0  0
  4 20  1  0  0  0  0
  5 10  2  0  0  0  0
  5 23  1  0  0  0  0
  6 15  2  0  0  0  0
  6 22  1  0  0  0  0
  7 21  2  0  0  0  0
  7 22  1  0  0  0  0
  8 10  1  0  0  0  0
  8 11  2  0  0  0  0
  8 14  1  0  0  0  0
  9 15  1  0  0  0  0
 10 18  1  0  0  0  0
 11 12  1  0  0  0  0
 11 23  1  0  0  0  0
 12 24  1  0  0  0  0
 13 14  2  0  0  0  0
 13 25  1  0  0  0  0
 14 26  1  0  0  0  0
 15 21  1  0  0  0  0
 16 20  2  0  0  0  0
 16 24  1  0  0  0  0
 17 19  1  0  0  0  0
 18 19  1  0  0  0  0
 22 27  1  0  0  0  0
 23 28  1  0  0  0  0
M  END

> <original SMILES>

CCCc1c[nH]c2c(Oc3cc(-c4cnc[nH]4)ccn3)cc(F)c(Cl)c12

> <ref_mols>

x0104_0,x0107_0,x0946_0,x0995_0

> <ref_pdb>

receptors/Mpro-x0104_0.pdb

> <Chemgauss4>

-8.861107

> <binding_free_energy>

-10.91037953061224

> <binding_std_error>

0.0

$$$$
AUS-ARG-7cfdce8f-9
  -OEChem-05122002103D

 25 28  0     0  0  0  0  0  0999 V2000
   11.1725    0.9869   25.0018 C   0  0  0  0  0  0  0  0  0  0  0  0
   11.5821    1.8643   24.0040 C   0  0  0  0  0  0  0  0  0  0  0  0
    5.1922    1.1437   18.8590 C   0  0  0  0  0  0  0  0  0  0  0  0
   10.0353    0.2092   24.8076 C   0  0  0  0  0  0  0  0  0  0  0  0
    5.8706    1.0375   20.0681 C   0  0  0  0  0  0  0  0  0  0  0  0
   10.8543    1.9620   22.8144 C   0  0  0  0  0  0  0  0  0  0  0  0
    9.0832   -2.9460   23.2203 C   0  0  0  0  0  0  0  0  0  0  0  0
    9.5799   -4.2461   23.1275 C   0  0  0  0  0  0  0  0  0  0  0  0
    8.2373   -4.8947   25.0285 C   0  0  0  0  0  0  0  0  0  0  0  0
    5.8864    0.8457   17.6975 C   0  0  0  0  0  0  0  0  0  0  0  0
    7.8076    0.3661   18.8625 C   0  0  0  0  0  0  0  0  0  0  0  0
    9.3089    0.3132   23.6086 C   0  0  0  0  0  0  0  0  0  0  0  0
    7.2035    0.6419   20.0786 C   0  0  0  0  0  0  0  0  0  0  0  0
    9.7127    1.1956   22.5933 C   0  0  0  0  0  0  0  0  0  0  0  0
    8.1636   -2.6202   24.2172 C   0  0  0  0  0  0  0  0  0  0  0  0
    9.1569   -5.2205   24.0316 C   0  0  0  0  0  0  0  0  0  0  0  0
    7.7406   -3.5946   25.1213 C   0  0  0  0  0  0  0  0  0  0  0  0
    8.1640   -0.4356   23.3513 C   0  0  0  0  0  0  0  0  0  0  0  0
    7.9329    0.5231   21.3141 C   0  0  0  0  0  0  0  0  0  0  0  0
    7.1813    0.4582   17.6680 N   0  0  0  0  0  0  0  0  0  0  0  0
    9.0255    1.3029   21.4426 N   0  0  0  0  0  0  0  0  0  0  0  0
    7.4525   -0.3529   22.2113 N   0  0  0  0  0  0  0  0  0  0  0  0
    7.6918   -1.3247   24.2818 O   0  0  0  0  0  0  0  0  0  0  0  0
    9.6341   -6.4689   23.9421 F   0  0  0  0  0  0  0  0  0  0  0  0
    6.4921   -3.1884   26.4881 Br  0  0  0  0  0  0  0  0  0  0  0  0
  1  2  1  0  0  0  0
  1  4  2  0  0  0  0
  2  6  2  0  0  0  0
  3  5  2  0  0  0  0
  3 10  1  0  0  0  0
  4 12  1  0  0  0  0
  5 13  1  0  0  0  0
  6 14  1  0  0  0  0
  7  8  2  0  0  0  0
  7 15  1  0  0  0  0
  8 16  1  0  0  0  0
  9 16  2  0  0  0  0
  9 17  1  0  0  0  0
 10 20  2  0  0  0  0
 11 13  2  0  0  0  0
 11 20  1  0  0  0  0
 12 14  1  0  0  0  0
 12 18  2  0  0  0  0
 13 19  1  0  0  0  0
 14 21  2  0  0  0  0
 15 17  2  0  0  0  0
 15 23  1  0  0  0  0
 16 24  1  0  0  0  0
 17 25  1  0  0  0  0
 18 22  1  0  0  0  0
 18 23  1  0  0  0  0
 19 21  1  0  0  0  0
 19 22  2  0  0  0  0
M  END

> <original SMILES>

Fc1ccc(Oc2nc(-c3cccnc3)nc3ccccc23)c(Br)c1

> <ref_mols>

x0678_0

> <ref_pdb>

receptors/Mpro-x0678_0.pdb

> <Chemgauss4>

-11.828602

> <binding_free_energy>

-10.37691534957736

> <binding_std_error>

0.5945637667491042

$$$$
GIA-UNK-5ec6c2b8-3
  -OEChem-05122002103D

 17 18  0     0  0  0  0  0  0999 V2000
   14.2824   -0.7369   24.4681 C   0  0  0  0  0  0  0  0  0  0  0  0
   14.4883   -1.6268   23.4139 C   0  0  0  0  0  0  0  0  0  0  0  0
   13.0047   -0.2368   24.7194 C   0  0  0  0  0  0  0  0  0  0  0  0
   13.4164   -2.0166   22.6109 C   0  0  0  0  0  0  0  0  0  0  0  0
   11.9329   -0.6267   23.9164 C   0  0  0  0  0  0  0  0  0  0  0  0
   12.1387   -1.5165   22.8621 C   0  0  0  0  0  0  0  0  0  0  0  0
    7.7142    0.4793   19.2136 C   0  0  0  0  0  0  0  0  0  0  0  0
    7.5184   -0.3836   21.5483 C   0  0  0  0  0  0  0  0  0  0  0  0
    9.2850    1.3293   20.9580 C   0  0  0  0  0  0  0  0  0  0  0  0
    8.5837   -1.4728   21.5193 C   0  0  0  0  0  0  0  0  0  0  0  0
   10.3318    0.2220   20.9353 C   0  0  0  0  0  0  0  0  0  0  0  0
    7.8732    0.8167   20.6695 C   0  0  0  0  0  0  0  0  0  0  0  0
   10.9854   -1.9352   21.9987 C   0  0  0  0  0  0  0  0  0  0  0  0
    9.9218   -0.8782   21.8827 N   0  3  0  0  0  0  0  0  0  0  0  0
    8.6218    0.0521   18.5122 O   0  0  0  0  0  0  0  0  0  0  0  0
    6.1223    0.6941   18.3948 S   0  5  0  0  0  0  0  0  0  0  0  0
    9.8270   -0.4583   22.8177 H   0  0  0  0  0  0  0  0  0  0  0  0
  1  2  1  0  0  0  0
  1  3  2  0  0  0  0
  2  4  2  0  0  0  0
  3  5  1  0  0  0  0
  4  6  1  0  0  0  0
  5  6  2  0  0  0  0
  6 13  1  0  0  0  0
  7 12  1  0  0  0  0
  7 15  2  0  0  0  0
  7 16  1  0  0  0  0
  8 10  1  0  0  0  0
  8 12  1  0  0  0  0
  9 11  1  0  0  0  0
  9 12  1  0  0  0  0
 10 14  1  0  0  0  0
 11 14  1  0  0  0  0
 13 14  1  0  0  0  0
 14 17  1  0  0  0  0
M  CHG  2  14   1  16  -1
M  END

> <original SMILES>

O=C(S)C1CCN(Cc2ccccc2)CC1

> <ref_mols>

x1380_0,x1386_0

> <ref_pdb>

receptors/protein-0387.pdb

> <Chemgauss4>

-5.12282752990723

> <binding_free_energy>

-10.356218785461564

> <binding_std_error>

0.5153495154688302

$$$$
CHR-SOS-7098f804-5
  -OEChem-05122002103D

 21 22  0     0  0  0  0  0  0999 V2000
   13.0404    0.2352   24.2976 C   0  0  0  0  0  0  0  0  0  0  0  0
   13.6664   -0.7865   23.5835 C   0  0  0  0  0  0  0  0  0  0  0  0
   11.7245    0.5893   23.9996 C   0  0  0  0  0  0  0  0  0  0  0  0
    7.2579    1.4952   21.2457 C   0  0  0  0  0  0  0  0  0  0  0  0
    7.5587   -0.3212   19.6814 C   0  0  0  0  0  0  0  0  0  0  0  0
    6.0317    1.8007   20.6553 C   0  0  0  0  0  0  0  0  0  0  0  0
    6.3324   -0.0159   19.0910 C   0  0  0  0  0  0  0  0  0  0  0  0
   12.9766   -1.4540   22.5714 C   0  0  0  0  0  0  0  0  0  0  0  0
   11.0347   -0.0781   22.9875 C   0  0  0  0  0  0  0  0  0  0  0  0
    8.0215    0.4343   20.7587 C   0  0  0  0  0  0  0  0  0  0  0  0
    5.5689    1.0451   19.5779 C   0  0  0  0  0  0  0  0  0  0  0  0
   11.6608   -1.0998   22.2734 C   0  0  0  0  0  0  0  0  0  0  0  0
    9.6618    0.3074   22.6924 C   0  0  0  0  0  0  0  0  0  0  0  0
    9.2679    0.1240   21.3587 N   0  0  0  0  0  0  0  0  0  0  0  0
    4.3205    1.3559   18.9770 N   0  0  0  0  0  0  0  0  0  0  0  0
    8.9230    0.7923   23.5592 O   0  0  0  0  0  0  0  0  0  0  0  0
    3.6492    2.3143   19.4304 O   0  0  0  0  0  0  0  0  0  0  0  0
    3.9227    0.6640   18.0087 O   0  0  0  0  0  0  0  0  0  0  0  0
   11.0028   -1.7650   21.2823 O   0  0  0  0  0  0  0  0  0  0  0  0
    9.9666   -0.2844   20.7428 H   0  0  0  0  0  0  0  0  0  0  0  0
   11.5795   -2.4405   20.8928 H   0  0  0  0  0  0  0  0  0  0  0  0
  1  2  1  0  0  0  0
  1  3  2  0  0  0  0
  2  8  2  0  0  0  0
  3  9  1  0  0  0  0
  4  6  2  0  0  0  0
  4 10  1  0  0  0  0
  5  7  1  0  0  0  0
  5 10  2  0  0  0  0
  6 11  1  0  0  0  0
  7 11  2  0  0  0  0
  8 12  1  0  0  0  0
  9 12  2  0  0  0  0
  9 13  1  0  0  0  0
 10 14  1  0  0  0  0
 11 15  1  0  0  0  0
 12 19  1  0  0  0  0
 13 14  1  0  0  0  0
 13 16  2  0  0  0  0
 15 17  2  0  0  0  0
 15 18  2  0  0  0  0
 14 20  1  0  0  0  0
 19 21  1  0  0  0  0
M  END

> <original SMILES>

O=C(Nc1ccc([N+](=O)[O-])cc1)c1ccccc1O

> <ref_mols>

x0107_0,x0161_0,x0195_0,x0678_0,x0946_0

> <ref_pdb>

receptors/protein-0387.pdb

> <Chemgauss4>

-4.61848163604736

> <binding_free_energy>

-9.910455770663688

> <binding_std_error>

0.5530153784847444

$$$$
DAR-DIA-23aa0b97-3
  -OEChem-05122002103D

 22 23  0     0  0  0  0  0  0999 V2000
    1.3800   -5.9338   22.5645 C   0  0  0  0  0  0  0  0  0  0  0  0
    3.5787   -7.5390   25.1031 C   0  0  0  0  0  0  0  0  0  0  0  0
    2.4347   -7.0951   24.4400 C   0  0  0  0  0  0  0  0  0  0  0  0
    4.8404   -7.2755   24.5699 C   0  0  0  0  0  0  0  0  0  0  0  0
    3.8141   -6.1243   22.7103 C   0  0  0  0  0  0  0  0  0  0  0  0
    9.2443   -5.5535   23.6673 C   0  0  0  0  0  0  0  0  0  0  0  0
    8.9992   -3.4833   22.5225 C   0  0  0  0  0  0  0  0  0  0  0  0
   10.0894   -3.5109   24.5446 C   0  0  0  0  0  0  0  0  0  0  0  0
    2.5524   -6.3878   23.2435 C   0  0  0  0  0  0  0  0  0  0  0  0
    8.7743   -4.8498   22.5641 C   0  0  0  0  0  0  0  0  0  0  0  0
    4.9582   -6.5682   23.3735 C   0  0  0  0  0  0  0  0  0  0  0  0
    9.9154   -4.8787   24.6810 C   0  0  0  0  0  0  0  0  0  0  0  0
    6.5378   -5.6134   21.6594 C   0  0  0  0  0  0  0  0  0  0  0  0
    8.0426   -5.5512   21.4498 C   0  0  0  0  0  0  0  0  0  0  0  0
    0.4277   -5.5651   22.0130 N   0  0  0  0  0  0  0  0  0  0  0  0
    9.6470   -2.7932   23.4878 N   0  0  0  0  0  0  0  0  0  0  0  0
   10.4018   -5.5634   25.8067 N   0  0  0  0  0  0  0  0  0  0  0  0
    6.2203   -6.3037   22.8412 N   0  0  0  0  0  0  0  0  0  0  0  0
    5.7445   -5.1121   20.8692 O   0  0  0  0  0  0  0  0  0  0  0  0
   10.2220   -6.5453   25.9032 H   0  0  0  0  0  0  0  0  0  0  0  0
   10.8408   -5.0478   26.5464 H   0  0  0  0  0  0  0  0  0  0  0  0
    7.0180   -6.6584   23.3814 H   0  0  0  0  0  0  0  0  0  0  0  0
  1  9  1  0  0  0  0
  1 15  3  0  0  0  0
  2  3  2  0  0  0  0
  2  4  1  0  0  0  0
  3  9  1  0  0  0  0
  4 11  2  0  0  0  0
  5  9  2  0  0  0  0
  5 11  1  0  0  0  0
  6 10  2  0  0  0  0
  6 12  1  0  0  0  0
  7 10  1  0  0  0  0
  7 16  2  0  0  0  0
  8 12  2  0  0  0  0
  8 16  1  0  0  0  0
 10 14  1  0  0  0  0
 11 18  1  0  0  0  0
 12 17  1  0  0  0  0
 13 14  1  0  0  0  0
 13 18  1  0  0  0  0
 13 19  2  0  0  0  0
 17 20  1  0  0  0  0
 17 21  1  0  0  0  0
 18 22  1  0  0  0  0
M  END

> <original SMILES>

N#Cc1cccc(NC(=O)Cc2cncc(N)c2)c1

> <ref_mols>

x0104_0,x0305_0,x0434_0,x0678_0,x0995_0,x1093_0,x1249_0

> <ref_pdb>

receptors/protein-0387.pdb

> <Chemgauss4>

-6.12448024749756

> <binding_free_energy>

-9.786032222841442

> <binding_std_error>

0.26929857276329966

$$$$
ALV-UNI-7ff1a6f9-47
  -OEChem-05122002103D

 23 25  0     0  0  0  0  0  0999 V2000
   11.6066   -1.6774   22.9799 C   0  0  0  0  0  0  0  0  0  0  0  0
   12.6188   -1.2295   22.1363 C   0  0  0  0  0  0  0  0  0  0  0  0
   10.9103   -0.7700   23.7787 C   0  0  0  0  0  0  0  0  0  0  0  0
   12.9387    0.1276   22.0884 C   0  0  0  0  0  0  0  0  0  0  0  0
   10.5284    1.5271   24.5404 C   0  0  0  0  0  0  0  0  0  0  0  0
   10.8483    2.8842   24.4925 C   0  0  0  0  0  0  0  0  0  0  0  0
    6.3578    7.4882   22.8186 C   0  0  0  0  0  0  0  0  0  0  0  0
   12.5569    2.4248   22.8501 C   0  0  0  0  0  0  0  0  0  0  0  0
    8.4950    7.1444   23.8669 C   0  0  0  0  0  0  0  0  0  0  0  0
    6.7100    6.5096   21.9030 C   0  0  0  0  0  0  0  0  0  0  0  0
   11.2189    0.5996   23.7433 C   0  0  0  0  0  0  0  0  0  0  0  0
   12.2483    1.0552   22.8855 C   0  0  0  0  0  0  0  0  0  0  0  0
   11.8606    3.3322   23.6490 C   0  0  0  0  0  0  0  0  0  0  0  0
    7.2729    7.8058   23.8161 C   0  0  0  0  0  0  0  0  0  0  0  0
    8.7514    6.1811   22.9046 C   0  0  0  0  0  0  0  0  0  0  0  0
   11.0207    5.7071   23.8896 C   0  0  0  0  0  0  0  0  0  0  0  0
    7.9592    9.0344   25.7332 C   0  0  0  0  0  0  0  0  0  0  0  0
   12.2010    4.7836   23.5989 C   0  0  0  0  0  0  0  0  0  0  0  0
    7.8874    5.8455   21.9204 N   0  0  0  0  0  0  0  0  0  0  0  0
    9.9978    5.5134   22.9647 N   0  0  0  0  0  0  0  0  0  0  0  0
   11.0332    6.4958   24.8292 O   0  0  0  0  0  0  0  0  0  0  0  0
    6.9734    8.7599   24.7385 O   0  0  0  0  0  0  0  0  0  0  0  0
   10.1661    4.8098   22.2487 H   0  0  0  0  0  0  0  0  0  0  0  0
  1  2  1  0  0  0  0
  1  3  2  0  0  0  0
  2  4  2  0  0  0  0
  3 11  1  0  0  0  0
  4 12  1  0  0  0  0
  5  6  2  0  0  0  0
  5 11  1  0  0  0  0
  6 13  1  0  0  0  0
  7 10  2  0  0  0  0
  7 14  1  0  0  0  0
  8 12  1  0  0  0  0
  8 13  2  0  0  0  0
  9 14  2  0  0  0  0
  9 15  1  0  0  0  0
 10 19  1  0  0  0  0
 11 12  2  0  0  0  0
 13 18  1  0  0  0  0
 14 22  1  0  0  0  0
 15 19  2  0  0  0  0
 15 20  1  0  0  0  0
 16 18  1  0  0  0  0
 16 20  1  0  0  0  0
 16 21  2  0  0  0  0
 17 22  1  0  0  0  0
 20 23  1  0  0  0  0
M  END

> <original SMILES>

COc1ccnc(NC(=O)Cc2ccc3ccccc3c2)c1

> <ref_mols>

x0395_0,x0426_0,x0434_0,x0540_0,x0678_0,x0830_0,x1093_0

> <ref_pdb>

receptors/Mpro-x0434-protein.pdb

> <Chemgauss4>

-6.484867

> <binding_free_energy>

-9.737808760000007

> <binding_std_error>

0.20996368061338613

$$$$
DAN-LON-a5fc619e-3
  -OEChem-05122002103D

 23 24  0     1  0  0  0  0  0999 V2000
   13.6174   -0.8303   21.8336 C   0  0  0  0  0  0  0  0  0  0  0  0
   12.4099   -1.4947   22.0488 C   0  0  0  0  0  0  0  0  0  0  0  0
   13.8568    0.3983   22.4492 C   0  0  0  0  0  0  0  0  0  0  0  0
   11.6812    0.2983   23.4951 C   0  0  0  0  0  0  0  0  0  0  0  0
   11.4419   -0.9304   22.8795 C   0  0  0  0  0  0  0  0  0  0  0  0
   12.8887    0.9626   23.2799 C   0  0  0  0  0  0  0  0  0  0  0  0
    6.3815   -1.4091   19.0216 C   0  0  0  0  0  0  0  0  0  0  0  0
    8.1752   -0.1120   20.2293 C   0  0  0  0  0  0  0  0  0  0  0  0
    6.7344   -1.7181   21.4520 C   0  0  0  0  0  0  0  0  0  0  0  0
    8.9365   -0.1256   21.5471 C   0  0  0  0  0  0  0  0  0  0  0  0
    7.9332   -2.3806   22.1433 C   0  0  1  0  0  0  0  0  0  0  0  0
    7.2854   -6.1617   21.3351 C   0  0  0  0  0  0  0  0  0  0  0  0
    6.7478   -4.8299   23.3846 C   0  0  0  0  0  0  0  0  0  0  0  0
   10.1428   -1.6450   23.1096 C   0  0  0  0  0  0  0  0  0  0  0  0
    6.2370   -0.2923   18.0162 C   0  0  0  0  0  0  0  0  0  0  0  0
    8.1791   -3.7903   21.6078 C   0  0  0  0  0  0  0  0  0  0  0  0
    7.0169   -4.7580   21.8797 C   0  0  0  0  0  0  0  0  0  0  0  0
    7.0977   -1.1020   20.1795 N   0  0  0  0  0  0  0  0  0  0  0  0
    9.2061   -1.5599   21.9331 N   0  3  2  0  0  0  0  0  0  0  0  0
    5.8849   -2.5120   18.7824 O   0  0  0  0  0  0  0  0  0  0  0  0
   13.1842    2.4790   24.0381 Cl  0  0  0  0  0  0  0  0  0  0  0  0
    4.7430    0.5503   18.4108 Cl  0  0  0  0  0  0  0  0  0  0  0  0
    9.7116   -2.0003   21.1366 H   0  0  0  0  0  0  0  0  0  0  0  0
  1  2  2  0  0  0  0
  1  3  1  0  0  0  0
  2  5  1  0  0  0  0
  3  6  2  0  0  0  0
  4  5  2  0  0  0  0
  4  6  1  0  0  0  0
  5 14  1  0  0  0  0
  6 21  1  0  0  0  0
  7 15  1  0  0  0  0
  7 18  1  0  0  0  0
  7 20  2  0  0  0  0
  8 10  1  0  0  0  0
  8 18  1  0  0  0  0
  9 11  1  0  0  0  0
  9 18  1  0  0  0  0
 10 19  1  0  0  0  0
 11 16  1  0  0  0  0
 11 19  1  0  0  0  0
 12 17  1  0  0  0  0
 13 17  1  0  0  0  0
 14 19  1  0  0  0  0
 15 22  1  0  0  0  0
 16 17  1  0  0  0  0
 19 23  1  0  0  0  0
M  CHG  1  19   1
M  END

> <original SMILES>

CC(C)C[C@@H]1CN(C(=O)CCl)CCN1Cc1cccc(Cl)c1

> <ref_mols>

x0770_0

> <ref_pdb>

receptors/protein-0387.pdb

> <Chemgauss4>

-4.79421854019165

> <binding_free_energy>

-9.565713715959632

> <binding_std_error>

4.337640992811418

$$$$
AUS-ARG-7cfdce8f-7
  -OEChem-05122002103D

 25 28  0     0  0  0  0  0  0999 V2000
    8.2792   -5.2473   23.8654 C   0  0  0  0  0  0  0  0  0  0  0  0
    7.6309   -5.7456   22.7408 C   0  0  0  0  0  0  0  0  0  0  0  0
    5.7296    1.3508   19.0217 C   0  0  0  0  0  0  0  0  0  0  0  0
    8.5424   -3.8843   23.9584 C   0  0  0  0  0  0  0  0  0  0  0  0
    6.1052    0.5280   20.0778 C   0  0  0  0  0  0  0  0  0  0  0  0
   12.4868   -0.3127   24.9778 C   0  0  0  0  0  0  0  0  0  0  0  0
    7.2471   -4.8805   21.7120 C   0  0  0  0  0  0  0  0  0  0  0  0
   11.0963   -0.4079   25.0310 C   0  0  0  0  0  0  0  0  0  0  0  0
   11.0850   -1.4599   22.8561 C   0  0  0  0  0  0  0  0  0  0  0  0
    6.2686    1.0894   17.7724 C   0  0  0  0  0  0  0  0  0  0  0  0
    7.4779   -0.6944   18.5686 C   0  0  0  0  0  0  0  0  0  0  0  0
    8.1533   -3.0208   22.9196 C   0  0  0  0  0  0  0  0  0  0  0  0
    6.9957   -0.5164   19.8553 C   0  0  0  0  0  0  0  0  0  0  0  0
   13.1765   -0.7910   23.8636 C   0  0  0  0  0  0  0  0  0  0  0  0
   12.4756   -1.3646   22.8028 C   0  0  0  0  0  0  0  0  0  0  0  0
    7.4978   -3.5121   21.7788 C   0  0  0  0  0  0  0  0  0  0  0  0
   10.3953   -0.9815   23.9702 C   0  0  0  0  0  0  0  0  0  0  0  0
    8.3861   -1.6487   22.9503 C   0  0  0  0  0  0  0  0  0  0  0  0
    7.4040   -1.3852   20.9283 C   0  0  0  0  0  0  0  0  0  0  0  0
   14.6652   -0.6780   23.8295 C   0  0  0  0  0  0  0  0  0  0  0  0
   13.1925   -1.8825   21.5994 C   0  0  0  0  0  0  0  0  0  0  0  0
    7.1362    0.0844   17.5177 N   0  0  0  0  0  0  0  0  0  0  0  0
    7.1210   -2.6952   20.7796 N   0  0  0  0  0  0  0  0  0  0  0  0
    8.0228   -0.8028   21.9679 N   0  0  0  0  0  0  0  0  0  0  0  0
    9.0193   -1.0754   24.0226 O   0  0  0  0  0  0  0  0  0  0  0  0
  1  2  1  0  0  0  0
  1  4  2  0  0  0  0
  2  7  2  0  0  0  0
  3  5  2  0  0  0  0
  3 10  1  0  0  0  0
  4 12  1  0  0  0  0
  5 13  1  0  0  0  0
  6  8  2  0  0  0  0
  6 14  1  0  0  0  0
  7 16  1  0  0  0  0
  8 17  1  0  0  0  0
  9 15  1  0  0  0  0
  9 17  2  0  0  0  0
 10 22  2  0  0  0  0
 11 13  2  0  0  0  0
 11 22  1  0  0  0  0
 12 16  1  0  0  0  0
 12 18  2  0  0  0  0
 13 19  1  0  0  0  0
 14 15  2  0  0  0  0
 14 20  1  0  0  0  0
 15 21  1  0  0  0  0
 16 23  2  0  0  0  0
 17 25  1  0  0  0  0
 18 24  1  0  0  0  0
 18 25  1  0  0  0  0
 19 23  1  0  0  0  0
 19 24  2  0  0  0  0
M  END

> <original SMILES>

Cc1ccc(Oc2nc(-c3cccnc3)nc3ccccc23)cc1C

> <ref_mols>

x0678_0

> <ref_pdb>

receptors/Mpro-x0678_0.pdb

> <Chemgauss4>

-10.603008

> <binding_free_energy>

-9.281704555555535

> <binding_std_error>

0.11677870000001178

$$$$
CHR-SOS-7098f804-6
  -OEChem-05122002103D

 19 20  0     0  0  0  0  0  0999 V2000
   13.3840   -1.1614   23.3421 C   0  0  0  0  0  0  0  0  0  0  0  0
   13.2554    0.2275   23.3506 C   0  0  0  0  0  0  0  0  0  0  0  0
   12.3187   -1.9580   22.9224 C   0  0  0  0  0  0  0  0  0  0  0  0
   12.0613    0.8198   22.9395 C   0  0  0  0  0  0  0  0  0  0  0  0
   11.1246   -1.3657   22.5114 C   0  0  0  0  0  0  0  0  0  0  0  0
    6.8646    1.0625   21.2051 C   0  0  0  0  0  0  0  0  0  0  0  0
    7.4776   -0.2588   19.2776 C   0  0  0  0  0  0  0  0  0  0  0  0
    5.6588    1.3997   20.5905 C   0  0  0  0  0  0  0  0  0  0  0  0
    6.2717    0.0784   18.6629 C   0  0  0  0  0  0  0  0  0  0  0  0
   10.9959    0.0232   22.5199 C   0  0  0  0  0  0  0  0  0  0  0  0
    7.7741    0.2332   20.5487 C   0  0  0  0  0  0  0  0  0  0  0  0
    5.3623    0.9077   19.3194 C   0  0  0  0  0  0  0  0  0  0  0  0
    9.7509    0.6408   22.0913 C   0  0  0  0  0  0  0  0  0  0  0  0
    8.9997   -0.1095   21.1734 N   0  0  0  0  0  0  0  0  0  0  0  0
    4.1347    1.2509   18.6938 N   0  0  0  0  0  0  0  0  0  0  0  0
    9.4098    1.7632   22.4896 O   0  0  0  0  0  0  0  0  0  0  0  0
    3.3305    1.9982   19.3016 O   0  0  0  0  0  0  0  0  0  0  0  0
    3.8876    0.7980   17.5499 O   0  0  0  0  0  0  0  0  0  0  0  0
    9.3847   -1.0172   20.9239 H   0  0  0  0  0  0  0  0  0  0  0  0
  1  2  1  0  0  0  0
  1  3  2  0  0  0  0
  2  4  2  0  0  0  0
  3  5  1  0  0  0  0
  4 10  1  0  0  0  0
  5 10  2  0  0  0  0
  6  8  2  0  0  0  0
  6 11  1  0  0  0  0
  7  9  1  0  0  0  0
  7 11  2  0  0  0  0
  8 12  1  0  0  0  0
  9 12  2  0  0  0  0
 10 13  1  0  0  0  0
 11 14  1  0  0  0  0
 12 15  1  0  0  0  0
 13 14  1  0  0  0  0
 13 16  2  0  0  0  0
 15 17  2  0  0  0  0
 15 18  2  0  0  0  0
 14 19  1  0  0  0  0
M  END

> <original SMILES>

O=C(Nc1ccc([N+](=O)[O-])cc1)c1ccccc1

> <ref_mols>

x0107_0,x0161_0,x0195_0,x0678_0,x0946_0

> <ref_pdb>

receptors/Mpro-x0195-protein.pdb

> <Chemgauss4>

-6.996593

> <binding_free_energy>

-9.172983602040821

> <binding_std_error>

1.9815490178976076

$$$$
AGN-NEW-c7b24fe3-4
  -OEChem-05122002103D

 20 21  0     0  0  0  0  0  0999 V2000
    6.0594   -2.9073   21.6584 C   0  0  0  0  0  0  0  0  0  0  0  0
   12.6456   -0.6265   23.5039 C   0  0  0  0  0  0  0  0  0  0  0  0
    7.4328   -6.7730   22.3179 C   0  0  0  0  0  0  0  0  0  0  0  0
   11.3192   -1.0027   23.7154 C   0  0  0  0  0  0  0  0  0  0  0  0
    8.0178   -5.7405   23.0424 C   0  0  0  0  0  0  0  0  0  0  0  0
   13.6208   -0.9482   24.4480 C   0  0  0  0  0  0  0  0  0  0  0  0
   11.9430   -2.0220   25.8151 C   0  0  0  0  0  0  0  0  0  0  0  0
    6.4278   -6.4478   21.4213 C   0  0  0  0  0  0  0  0  0  0  0  0
    6.5744   -4.2123   21.9300 C   0  0  0  0  0  0  0  0  0  0  0  0
   10.9679   -1.7004   24.8710 C   0  0  0  0  0  0  0  0  0  0  0  0
    7.5861   -4.4327   22.8507 C   0  0  0  0  0  0  0  0  0  0  0  0
   13.2695   -1.6459   25.6036 C   0  0  0  0  0  0  0  0  0  0  0  0
    9.1965   -3.4759   24.5347 C   0  0  0  0  0  0  0  0  0  0  0  0
    9.5492   -2.1012   25.0970 C   0  0  0  0  0  0  0  0  0  0  0  0
    5.6412   -1.8475   21.4379 N   0  0  0  0  0  0  0  0  0  0  0  0
    5.9819   -5.1896   21.2079 N   0  0  0  0  0  0  0  0  0  0  0  0
    8.1799   -3.3806   23.5878 N   0  0  0  0  0  0  0  0  0  0  0  0
    9.7691   -4.4940   24.9101 O   0  0  0  0  0  0  0  0  0  0  0  0
   14.4728   -2.0415   26.7686 Cl  0  0  0  0  0  0  0  0  0  0  0  0
    7.8223   -2.4454   23.4044 H   0  0  0  0  0  0  0  0  0  0  0  0
  1  9  1  0  0  0  0
  1 15  3  0  0  0  0
  2  4  2  0  0  0  0
  2  6  1  0  0  0  0
  3  5  2  0  0  0  0
  3  8  1  0  0  0  0
  4 10  1  0  0  0  0
  5 11  1  0  0  0  0
  6 12  2  0  0  0  0
  7 10  2  0  0  0  0
  7 12  1  0  0  0  0
  8 16  2  0  0  0  0
  9 11  2  0  0  0  0
  9 16  1  0  0  0  0
 10 14  1  0  0  0  0
 11 17  1  0  0  0  0
 12 19  1  0  0  0  0
 13 14  1  0  0  0  0
 13 17  1  0  0  0  0
 13 18  2  0  0  0  0
 17 20  1  0  0  0  0
M  END

> <original SMILES>

N#Cc1ncccc1NC(=O)Cc1cccc(Cl)c1

> <ref_mols>

x0434_0

> <ref_pdb>

receptors/protein-0387.pdb

> <Chemgauss4>

-5.19027233123779

> <binding_free_energy>

-9.14339161789475

> <binding_std_error>

0.49976824876090636

$$$$
DAR-DIA-43a5904b-1
  -OEChem-05122002103D

 24 26  0     1  0  0  0  0  0999 V2000
   13.5013   -1.2947   21.1302 C   0  0  0  0  0  0  0  0  0  0  0  0
    5.7274    1.5714   19.0527 C   0  0  0  0  0  0  0  0  0  0  0  0
   12.1340   -1.2416   21.4006 C   0  0  0  0  0  0  0  0  0  0  0  0
    5.9290    0.6532   20.0771 C   0  0  0  0  0  0  0  0  0  0  0  0
   14.4191   -1.3293   22.1801 C   0  0  0  0  0  0  0  0  0  0  0  0
   12.6020   -1.2576   23.7708 C   0  0  0  0  0  0  0  0  0  0  0  0
    6.3884    1.3605   17.8533 C   0  0  0  0  0  0  0  0  0  0  0  0
    7.3875   -0.5539   18.6377 C   0  0  0  0  0  0  0  0  0  0  0  0
   11.6843   -1.2230   22.7209 C   0  0  0  0  0  0  0  0  0  0  0  0
    6.7735   -0.4326   19.8738 C   0  0  0  0  0  0  0  0  0  0  0  0
   13.9694   -1.3107   23.5004 C   0  0  0  0  0  0  0  0  0  0  0  0
    9.2867   -1.8043   22.0076 C   0  0  0  0  0  0  0  0  0  0  0  0
    8.1628   -1.0974   21.8371 C   0  0  0  0  0  0  0  0  0  0  0  0
   10.3088    1.2871   22.2979 C   0  0  0  0  0  0  0  0  0  0  0  0
    8.1469    0.1364   22.6881 C   0  0  0  0  0  0  0  0  0  0  0  0
   10.2010   -1.1641   23.0134 C   0  0  2  0  0  0  0  0  0  0  0  0
    9.6083    0.2584   23.1457 C   0  0  1  0  0  0  0  0  0  0  0  0
    7.0122   -1.4463   20.9650 C   0  0  0  0  0  0  0  0  0  0  0  0
    7.2162    0.3178   17.6186 N   0  0  0  0  0  0  0  0  0  0  0  0
   11.3348    1.9338   22.9455 N   0  0  0  0  0  0  0  0  0  0  0  0
    9.9873    1.5003   21.1315 O   0  0  0  0  0  0  0  0  0  0  0  0
   15.1022   -1.3523   24.7953 Cl  0  0  0  0  0  0  0  0  0  0  0  0
   11.5385    1.6828   23.9073 H   0  0  0  0  0  0  0  0  0  0  0  0
   11.8966    2.6521   22.5001 H   0  0  0  0  0  0  0  0  0  0  0  0
  1  3  2  0  0  0  0
  1  5  1  0  0  0  0
  2  4  2  0  0  0  0
  2  7  1  0  0  0  0
  3  9  1  0  0  0  0
  4 10  1  0  0  0  0
  5 11  2  0  0  0  0
  6  9  2  0  0  0  0
  6 11  1  0  0  0  0
  7 19  2  0  0  0  0
  8 10  2  0  0  0  0
  8 19  1  0  0  0  0
  9 16  1  0  0  0  0
 10 18  1  0  0  0  0
 11 22  1  0  0  0  0
 12 13  2  0  0  0  0
 12 16  1  0  0  0  0
 13 15  1  0  0  0  0
 13 18  1  0  0  0  0
 14 17  1  0  0  0  0
 14 20  1  0  0  0  0
 14 21  2  0  0  0  0
 15 17  1  0  0  0  0
 16 17  1  0  0  0  0
 20 23  1  0  0  0  0
 20 24  1  0  0  0  0
M  END

> <original SMILES>

NC(=O)[C@H]1CC(Cc2cccnc2)=C[C@H]1c1cccc(Cl)c1

> <ref_mols>

x0874_0

> <ref_pdb>

receptors/Mpro-x0874_0.pdb

> <Chemgauss4>

-10.474063

> <binding_free_energy>

-9.0288834

> <binding_std_error>

0.0

$$$$
ANT-DIA-b7f58f21-1
  -OEChem-05122002103D

 14 14  0     0  0  0  0  0  0999 V2000
    5.1738    1.2228   18.9197 C   0  0  0  0  0  0  0  0  0  0  0  0
    5.4881    0.4041   19.9987 C   0  0  0  0  0  0  0  0  0  0  0  0
    5.9454    1.1109   17.7743 C   0  0  0  0  0  0  0  0  0  0  0  0
    7.2593   -0.5242   18.7113 C   0  0  0  0  0  0  0  0  0  0  0  0
    6.5494   -0.4889   19.9007 C   0  0  0  0  0  0  0  0  0  0  0  0
    5.4355   -5.7637   23.2966 C   0  0  0  0  0  0  0  0  0  0  0  0
    6.9152   -1.3912   21.0536 C   0  0  0  0  0  0  0  0  0  0  0  0
    6.1849   -2.7314   21.0158 C   0  0  0  0  0  0  0  0  0  0  0  0
    6.9838    0.2555   17.6418 N   0  0  0  0  0  0  0  0  0  0  0  0
    6.5282   -3.5950   22.1598 N   0  0  0  0  0  0  0  0  0  0  0  0
    7.8244   -5.8332   22.2297 O   0  0  0  0  0  0  0  0  0  0  0  0
    5.8179   -5.5988   20.7213 O   0  0  0  0  0  0  0  0  0  0  0  0
    6.5076   -5.2903   21.9593 S   0  0  0  0  0  0  0  0  0  0  0  0
    7.2598   -3.2080   22.7701 H   0  0  0  0  0  0  0  0  0  0  0  0
  1  2  2  0  0  0  0
  1  3  1  0  0  0  0
  2  5  1  0  0  0  0
  3  9  2  0  0  0  0
  4  5  2  0  0  0  0
  4  9  1  0  0  0  0
  5  7  1  0  0  0  0
  6 13  1  0  0  0  0
  7  8  1  0  0  0  0
  8 10  1  0  0  0  0
 10 13  1  0  0  0  0
 11 13  2  0  0  0  0
 12 13  2  0  0  0  0
 10 14  1  0  0  0  0
M  END

> <original SMILES>

CS(=O)(=O)NCCc1cccnc1

> <ref_mols>

x0072_0,x0305_0,x0387_0

> <ref_pdb>

receptors/Mpro-x0305-protein.pdb

> <Chemgauss4>

-5.547242

> <binding_free_energy>

-8.971111390306646

> <binding_std_error>

0.08064876779674984

$$$$
JOO-IND-b2fae8f6-2
  -OEChem-05122002103D

 17 19  0     0  0  0  0  0  0999 V2000
   13.8590   -1.7687   26.2277 C   0  0  0  0  0  0  0  0  0  0  0  0
    6.4550   -4.7517   21.5572 C   0  0  0  0  0  0  0  0  0  0  0  0
    6.9180   -5.9074   22.1763 C   0  0  0  0  0  0  0  0  0  0  0  0
    7.1155   -3.5336   21.7416 C   0  0  0  0  0  0  0  0  0  0  0  0
    8.0503   -5.8779   22.9942 C   0  0  0  0  0  0  0  0  0  0  0  0
   11.8308    0.3495   24.2314 C   0  0  0  0  0  0  0  0  0  0  0  0
   12.8265   -1.3137   25.3623 C   0  0  0  0  0  0  0  0  0  0  0  0
    8.2622   -3.4759   22.5631 C   0  0  0  0  0  0  0  0  0  0  0  0
    8.7088   -4.6510   23.1751 C   0  0  0  0  0  0  0  0  0  0  0  0
   10.9973   -1.7319   24.1311 C   0  0  0  0  0  0  0  0  0  0  0  0
   10.0082   -2.6601   23.6368 C   0  0  0  0  0  0  0  0  0  0  0  0
   14.7017   -2.1400   26.9339 N   0  0  0  0  0  0  0  0  0  0  0  0
   12.8339   -0.0080   25.0496 N   0  0  0  0  0  0  0  0  0  0  0  0
   10.8782   -0.4550   23.7330 N   0  0  0  0  0  0  0  0  0  0  0  0
   11.9426   -2.2331   24.9423 N   0  0  0  0  0  0  0  0  0  0  0  0
    9.0164   -2.3443   22.8372 N   0  0  0  0  0  0  0  0  0  0  0  0
   10.1125   -4.2997   24.1128 S   0  0  0  0  0  0  0  0  0  0  0  0
  1  7  1  0  0  0  0
  1 12  3  0  0  0  0
  2  3  1  0  0  0  0
  2  4  2  0  0  0  0
  3  5  2  0  0  0  0
  4  8  1  0  0  0  0
  5  9  1  0  0  0  0
  6 13  2  0  0  0  0
  6 14  1  0  0  0  0
  7 13  1  0  0  0  0
  7 15  2  0  0  0  0
  8  9  2  0  0  0  0
  8 16  1  0  0  0  0
  9 17  1  0  0  0  0
 10 11  1  0  0  0  0
 10 14  2  0  0  0  0
 10 15  1  0  0  0  0
 11 16  2  0  0  0  0
 11 17  1  0  0  0  0
M  END

> <original SMILES>

N#Cc1ncnc(-c2nc3ccccc3s2)n1

> <ref_mols>

x0749_0

> <ref_pdb>

receptors/Mpro-x0749_0.pdb

> <Chemgauss4>

-9.441189

> <binding_free_energy>

-8.86218467171716

> <binding_std_error>

1.1467921717171734

$$$$
WAR-XCH-bdd24732-19
  -OEChem-05122002103D

 26 28  0     1  0  0  0  0  0999 V2000
    9.5427    0.0558   26.8970 C   0  0  0  0  0  0  0  0  0  0  0  0
    9.2582    3.3151   25.1216 C   0  0  0  0  0  0  0  0  0  0  0  0
    8.9420    2.2141   25.9174 C   0  0  0  0  0  0  0  0  0  0  0  0
   10.5000    3.3857   24.4902 C   0  0  0  0  0  0  0  0  0  0  0  0
   13.3417   -0.6291   22.6819 C   0  0  0  0  0  0  0  0  0  0  0  0
   11.1095    1.2543   25.4507 C   0  0  0  0  0  0  0  0  0  0  0  0
   11.0411    0.0078   22.3888 C   0  0  0  0  0  0  0  0  0  0  0  0
   12.9231   -1.9497   22.6566 C   0  0  0  0  0  0  0  0  0  0  0  0
    9.8677    1.1837   26.0820 C   0  0  0  0  0  0  0  0  0  0  0  0
   11.4257    2.3554   24.6548 C   0  0  0  0  0  0  0  0  0  0  0  0
   12.3765    0.3623   22.5449 C   0  0  0  0  0  0  0  0  0  0  0  0
   10.7255   -1.3413   22.3764 C   0  0  0  0  0  0  0  0  0  0  0  0
    6.4909   -1.6331   19.8894 C   0  0  0  0  0  0  0  0  0  0  0  0
    7.5067   -3.4815   22.7684 C   0  0  0  0  0  0  0  0  0  0  0  0
    8.9659   -3.0686   22.9689 C   0  0  0  0  0  0  0  0  0  0  0  0
    7.1547   -3.5651   21.2858 C   0  0  0  0  0  0  0  0  0  0  0  0
    8.8810   -1.8898   20.7259 C   0  0  0  0  0  0  0  0  0  0  0  0
    9.2758   -1.7661   22.2079 C   0  0  2  0  0  0  0  0  0  0  0  0
   12.7694    2.4321   23.9717 C   0  0  0  0  0  0  0  0  0  0  0  0
   12.7727    1.7995   22.5657 C   0  0  0  0  0  0  0  0  0  0  0  0
    6.9050   -0.3488   19.2165 C   0  0  0  0  0  0  0  0  0  0  0  0
    9.2788   -0.8601   27.5589 N   0  0  0  0  0  0  0  0  0  0  0  0
   11.6353   -2.3327   22.5069 N   0  0  0  0  0  0  0  0  0  0  0  0
    7.4787   -2.3118   20.6019 N   0  0  0  0  0  0  0  0  0  0  0  0
    5.3235   -2.0185   19.7858 O   0  0  0  0  0  0  0  0  0  0  0  0
    5.4841    0.2602   18.3749 Cl  0  0  0  0  0  0  0  0  0  0  0  0
  1  9  1  0  0  0  0
  1 22  3  0  0  0  0
  2  3  2  0  0  0  0
  2  4  1  0  0  0  0
  3  9  1  0  0  0  0
  4 10  2  0  0  0  0
  5  8  2  0  0  0  0
  5 11  1  0  0  0  0
  6  9  2  0  0  0  0
  6 10  1  0  0  0  0
  7 11  2  0  0  0  0
  7 12  1  0  0  0  0
  8 23  1  0  0  0  0
 10 19  1  0  0  0  0
 11 20  1  0  0  0  0
 12 18  1  0  0  0  0
 12 23  2  0  0  0  0
 13 21  1  0  0  0  0
 13 24  1  0  0  0  0
 13 25  2  0  0  0  0
 14 15  1  0  0  0  0
 14 16  1  0  0  0  0
 15 18  1  0  0  0  0
 16 24  1  0  0  0  0
 17 18  1  0  0  0  0
 17 24  1  0  0  0  0
 19 20  1  0  0  0  0
 21 26  1  0  0  0  0
M  END

> <original SMILES>

N#Cc1cccc(CCc2ccnc(C3CCCN(C(=O)CCl)C3)c2)c1

> <ref_mols>

x1334_0,x1336_0

> <ref_pdb>

receptors/Mpro-x1334_0.pdb

> <Chemgauss4>

-3.700049

> <binding_free_energy>

-8.79480759838383

> <binding_std_error>

2.8438655228800727

$$$$
ANN-UNI-26382800-5
  -OEChem-05122002103D

 19 20  0     0  0  0  0  0  0999 V2000
    6.7517   -2.7136   20.9226 C   0  0  0  0  0  0  0  0  0  0  0  0
    6.0716   -6.1415   22.2044 C   0  0  0  0  0  0  0  0  0  0  0  0
   13.7799   -1.5567   25.2076 C   0  0  0  0  0  0  0  0  0  0  0  0
    5.9550   -4.9583   21.4750 C   0  0  0  0  0  0  0  0  0  0  0  0
    7.1052   -6.2919   23.1289 C   0  0  0  0  0  0  0  0  0  0  0  0
   13.0441   -2.6548   24.7763 C   0  0  0  0  0  0  0  0  0  0  0  0
    7.9058   -4.0760   22.5944 C   0  0  0  0  0  0  0  0  0  0  0  0
   13.1306   -0.6009   25.9723 C   0  0  0  0  0  0  0  0  0  0  0  0
   11.1445   -1.7524   25.8868 C   0  0  0  0  0  0  0  0  0  0  0  0
    6.8721   -3.9255   21.6699 C   0  0  0  0  0  0  0  0  0  0  0  0
    8.0223   -5.2591   23.3239 C   0  0  0  0  0  0  0  0  0  0  0  0
   11.7006   -2.7621   25.1180 C   0  0  0  0  0  0  0  0  0  0  0  0
    9.5798   -4.1115   24.9549 C   0  0  0  0  0  0  0  0  0  0  0  0
    9.1274   -5.4203   24.3123 C   0  0  0  0  0  0  0  0  0  0  0  0
    6.6538   -1.7293   20.3157 N   0  0  0  0  0  0  0  0  0  0  0  0
   11.8272   -0.6707   26.3243 N   0  0  0  0  0  0  0  0  0  0  0  0
   10.9258   -3.8678   24.6936 N   0  0  0  0  0  0  0  0  0  0  0  0
    8.8108   -3.4113   25.6057 O   0  0  0  0  0  0  0  0  0  0  0  0
   11.4086   -4.5662   24.1321 H   0  0  0  0  0  0  0  0  0  0  0  0
  1 10  1  0  0  0  0
  1 15  3  0  0  0  0
  2  4  2  0  0  0  0
  2  5  1  0  0  0  0
  3  6  2  0  0  0  0
  3  8  1  0  0  0  0
  4 10  1  0  0  0  0
  5 11  2  0  0  0  0
  6 12  1  0  0  0  0
  7 10  2  0  0  0  0
  7 11  1  0  0  0  0
  8 16  2  0  0  0  0
  9 12  2  0  0  0  0
  9 16  1  0  0  0  0
 11 14  1  0  0  0  0
 12 17  1  0  0  0  0
 13 14  1  0  0  0  0
 13 17  1  0  0  0  0
 13 18  2  0  0  0  0
 17 19  1  0  0  0  0
M  END

> <original SMILES>

N#Cc1cccc(CC(=O)Nc2cccnc2)c1

> <ref_mols>

x0104_0,x0305_0,x0434_0,x0678_0,x1093_0,x1249_0

> <ref_pdb>

receptors/protein-0387.pdb

> <Chemgauss4>

-4.88376092910767

> <binding_free_energy>

-8.768037939999985

> <binding_std_error>

1.6051925388989923

$$$$
MAK-UNK-5e88aa6a-15
  -OEChem-05122002103D

 12 13  0     0  0  0  0  0  0999 V2000
    8.7966   -5.7254   23.4569 C   0  0  0  0  0  0  0  0  0  0  0  0
    9.7703   -5.0947   24.2234 C   0  0  0  0  0  0  0  0  0  0  0  0
   12.2101   -3.6196   25.3204 C   0  0  0  0  0  0  0  0  0  0  0  0
    8.5005   -3.6942   22.2558 C   0  0  0  0  0  0  0  0  0  0  0  0
   12.9555   -2.6634   25.9744 C   0  0  0  0  0  0  0  0  0  0  0  0
   10.9518   -1.7079   24.9151 C   0  0  0  0  0  0  0  0  0  0  0  0
   11.0495   -3.0662   24.7066 C   0  0  0  0  0  0  0  0  0  0  0  0
    8.1449   -5.0188   22.4523 C   0  0  0  0  0  0  0  0  0  0  0  0
   10.0533   -3.7667   23.9474 C   0  0  0  0  0  0  0  0  0  0  0  0
    7.0984   -5.6647   21.6161 C   0  0  0  0  0  0  0  0  0  0  0  0
    9.4412   -3.0476   22.9800 N   0  0  0  0  0  0  0  0  0  0  0  0
   12.2560   -1.1056   25.8472 S   0  0  0  0  0  0  0  0  0  0  0  0
  1  2  2  0  0  0  0
  1  8  1  0  0  0  0
  2  9  1  0  0  0  0
  3  5  2  0  0  0  0
  3  7  1  0  0  0  0
  4  8  2  0  0  0  0
  4 11  1  0  0  0  0
  5 12  1  0  0  0  0
  6  7  2  0  0  0  0
  6 12  1  0  0  0  0
  7  9  1  0  0  0  0
  8 10  1  0  0  0  0
  9 11  2  0  0  0  0
M  END

> <original SMILES>

Cc1ccc(-c2ccsc2)nc1

> <ref_mols>

x0195_0,x0387_0

> <ref_pdb>

receptors/Mpro-x0195_0.pdb

> <Chemgauss4>

-8.038471

> <binding_free_energy>

-8.626686300000024

> <binding_std_error>

0.0

$$$$
MAK-UNK-5e88aa6a-14
  -OEChem-05122002103D

 12 13  0     0  0  0  0  0  0999 V2000
   13.3173    2.7764   22.6157 C   0  0  0  0  0  0  0  0  0  0  0  0
   12.9821    4.1153   22.7840 C   0  0  0  0  0  0  0  0  0  0  0  0
   11.9499   -0.6954   23.0548 C   0  0  0  0  0  0  0  0  0  0  0  0
   11.4445    2.1923   23.9604 C   0  0  0  0  0  0  0  0  0  0  0  0
   12.5940   -1.9007   22.8818 C   0  0  0  0  0  0  0  0  0  0  0  0
   14.1633   -0.0068   22.8842 C   0  0  0  0  0  0  0  0  0  0  0  0
   12.5390    1.7904   23.2118 C   0  0  0  0  0  0  0  0  0  0  0  0
   12.8589    0.4018   23.0561 C   0  0  0  0  0  0  0  0  0  0  0  0
   11.8677    4.4132   23.5516 C   0  0  0  0  0  0  0  0  0  0  0  0
   11.4778    5.8396   23.7523 C   0  0  0  0  0  0  0  0  0  0  0  0
   11.0875    3.4829   24.1463 N   0  0  0  0  0  0  0  0  0  0  0  0
   14.2879   -1.7069   22.7220 S   0  0  0  0  0  0  0  0  0  0  0  0
  1  2  2  0  0  0  0
  1  7  1  0  0  0  0
  2  9  1  0  0  0  0
  3  5  2  0  0  0  0
  3  8  1  0  0  0  0
  4  7  2  0  0  0  0
  4 11  1  0  0  0  0
  5 12  1  0  0  0  0
  6  8  2  0  0  0  0
  6 12  1  0  0  0  0
  7  8  1  0  0  0  0
  9 10  1  0  0  0  0
  9 11  2  0  0  0  0
M  END

> <original SMILES>

Cc1ccc(-c2ccsc2)cn1

> <ref_mols>

x0195_0,x0387_0

> <ref_pdb>

receptors/Mpro-x0195_0.pdb

> <Chemgauss4>

-8.162913

> <binding_free_energy>

-8.272066797567511

> <binding_std_error>

3.649655879200167

$$$$
CHR-SOS-7098f804-2
  -OEChem-05122002103D

 21 22  0     0  0  0  0  0  0999 V2000
   10.0551    7.5322   24.8218 C   0  0  0  0  0  0  0  0  0  0  0  0
   10.4789    6.2052   24.8920 C   0  0  0  0  0  0  0  0  0  0  0  0
   12.2427   -0.0451   23.6641 C   0  0  0  0  0  0  0  0  0  0  0  0
   11.6394    1.2039   23.8112 C   0  0  0  0  0  0  0  0  0  0  0  0
    9.1020    7.9109   23.8763 C   0  0  0  0  0  0  0  0  0  0  0  0
    8.9967    5.6355   23.0711 C   0  0  0  0  0  0  0  0  0  0  0  0
   13.8423    0.9089   22.1252 C   0  0  0  0  0  0  0  0  0  0  0  0
    9.9497    5.2568   24.0167 C   0  0  0  0  0  0  0  0  0  0  0  0
   13.3442   -0.1926   22.8211 C   0  0  0  0  0  0  0  0  0  0  0  0
   12.1375    2.3054   23.1153 C   0  0  0  0  0  0  0  0  0  0  0  0
    8.5728    6.9626   23.0010 C   0  0  0  0  0  0  0  0  0  0  0  0
   13.2389    2.1579   22.2723 C   0  0  0  0  0  0  0  0  0  0  0  0
   10.3926    3.8737   24.0901 C   0  0  0  0  0  0  0  0  0  0  0  0
   11.5004    3.5602   23.2873 N   0  0  0  0  0  0  0  0  0  0  0  0
   13.9575   -1.4643   22.6719 N   0  0  0  0  0  0  0  0  0  0  0  0
    9.8028    3.0371   24.7881 O   0  0  0  0  0  0  0  0  0  0  0  0
   13.4932   -2.4418   23.3071 O   0  0  0  0  0  0  0  0  0  0  0  0
   14.9472   -1.5765   21.9085 O   0  0  0  0  0  0  0  0  0  0  0  0
    7.3964    7.4305   21.8349 Cl  0  0  0  0  0  0  0  0  0  0  0  0
   13.8881    3.4960   21.3928 Cl  0  0  0  0  0  0  0  0  0  0  0  0
   11.8979    4.3339   22.7603 H   0  0  0  0  0  0  0  0  0  0  0  0
  1  2  2  0  0  0  0
  1  5  1  0  0  0  0
  2  8  1  0  0  0  0
  3  4  2  0  0  0  0
  3  9  1  0  0  0  0
  4 10  1  0  0  0  0
  5 11  2  0  0  0  0
  6  8  2  0  0  0  0
  6 11  1  0  0  0  0
  7  9  2  0  0  0  0
  7 12  1  0  0  0  0
  8 13  1  0  0  0  0
  9 15  1  0  0  0  0
 10 12  2  0  0  0  0
 10 14  1  0  0  0  0
 11 19  1  0  0  0  0
 12 20  1  0  0  0  0
 13 14  1  0  0  0  0
 13 16  2  0  0  0  0
 15 17  2  0  0  0  0
 15 18  2  0  0  0  0
 14 21  1  0  0  0  0
M  END

> <original SMILES>

O=C(Nc1ccc([N+](=O)[O-])cc1Cl)c1cccc(Cl)c1

> <ref_mols>

x0107_0,x0161_0,x0195_0,x0678_0,x0946_0

> <ref_pdb>

receptors/Mpro-x0195-protein.pdb

> <Chemgauss4>

-7.2591

> <binding_free_energy>

-8.157967469880724

> <binding_std_error>

4.550001999769831

$$$$
DAN-PUR-19f24f0c-1
  -OEChem-05122002103D

 14 14  0     0  0  0  0  0  0999 V2000
    5.9574    0.5622   20.3637 C   0  0  0  0  0  0  0  0  0  0  0  0
    6.2787    0.8941   18.0306 C   0  0  0  0  0  0  0  0  0  0  0  0
    7.8324   -0.3274   19.2020 C   0  0  0  0  0  0  0  0  0  0  0  0
    5.5122    1.1080   19.1648 C   0  0  0  0  0  0  0  0  0  0  0  0
    7.1388   -0.1706   20.3912 C   0  0  0  0  0  0  0  0  0  0  0  0
    8.7720   -1.4893   21.7760 C   0  0  0  0  0  0  0  0  0  0  0  0
    8.9266   -1.9112   23.2156 C   0  0  0  0  0  0  0  0  0  0  0  0
    7.4314    0.1879   18.0182 N   0  0  0  0  0  0  0  0  0  0  0  0
    4.3232    1.8531   19.1059 N   0  0  0  0  0  0  0  0  0  0  0  0
    7.6099   -0.7294   21.5768 N   0  0  0  0  0  0  0  0  0  0  0  0
    9.6065   -1.8077   20.9351 O   0  0  0  0  0  0  0  0  0  0  0  0
    3.7623    1.9542   19.9310 H   0  0  0  0  0  0  0  0  0  0  0  0
    3.9991    2.1963   18.2210 H   0  0  0  0  0  0  0  0  0  0  0  0
    7.0404   -0.5690   22.4170 H   0  0  0  0  0  0  0  0  0  0  0  0
  1  4  1  0  0  0  0
  1  5  2  0  0  0  0
  2  4  2  0  0  0  0
  2  8  1  0  0  0  0
  3  5  1  0  0  0  0
  3  8  2  0  0  0  0
  4  9  1  0  0  0  0
  5 10  1  0  0  0  0
  6  7  1  0  0  0  0
  6 10  1  0  0  0  0
  6 11  2  0  0  0  0
  9 12  1  0  0  0  0
  9 13  1  0  0  0  0
 10 14  1  0  0  0  0
M  END

> <original SMILES>

CC(=O)Nc1cncc(N)c1

> <ref_mols>

x0107_0,x0995_0,x1093_0

> <ref_pdb>

receptors/Mpro-x1093-protein.pdb

> <Chemgauss4>

-4.731558

> <binding_free_energy>

-8.110683441980186

> <binding_std_error>

1.9058965724851753

$$$$
GUZ-UNI-5a173832-2
  -OEChem-05122002103D

 19 21  0     0  0  0  0  0  0999 V2000
   14.2365   -2.1977   22.9592 C   0  0  0  0  0  0  0  0  0  0  0  0
    8.8067    7.5465   24.1595 C   0  0  0  0  0  0  0  0  0  0  0  0
   14.1741   -0.9161   23.5566 C   0  0  0  0  0  0  0  0  0  0  0  0
    9.5821    6.7031   23.3285 C   0  0  0  0  0  0  0  0  0  0  0  0
   14.1837   -1.9889   21.6007 C   0  0  0  0  0  0  0  0  0  0  0  0
    9.5250    7.7022   25.3222 C   0  0  0  0  0  0  0  0  0  0  0  0
   14.0877   -0.0155   22.5205 C   0  0  0  0  0  0  0  0  0  0  0  0
   10.7190    6.4037   24.0424 C   0  0  0  0  0  0  0  0  0  0  0  0
   12.9347    3.5826   22.8190 C   0  0  0  0  0  0  0  0  0  0  0  0
   12.8505    2.0919   22.7299 C   0  0  0  0  0  0  0  0  0  0  0  0
   11.6958    4.2925   23.2652 C   0  0  0  0  0  0  0  0  0  0  0  0
   13.9994    1.4090   22.6156 C   0  0  0  0  0  0  0  0  0  0  0  0
   11.8113    5.5790   23.6268 C   0  0  0  0  0  0  0  0  0  0  0  0
   11.5184    1.4047   22.7938 C   0  0  0  0  0  0  0  0  0  0  0  0
   10.3855    3.5641   23.3223 C   0  0  0  0  0  0  0  0  0  0  0  0
   10.5627    2.1120   23.7450 C   0  0  0  0  0  0  0  0  0  0  0  0
   13.9656    4.1905   22.5437 O   0  0  0  0  0  0  0  0  0  0  0  0
   14.0930   -0.6614   21.3249 O   0  0  0  0  0  0  0  0  0  0  0  0
   10.6920    7.0089   25.2588 O   0  0  0  0  0  0  0  0  0  0  0  0
  1  3  1  0  0  0  0
  1  5  2  0  0  0  0
  2  4  1  0  0  0  0
  2  6  2  0  0  0  0
  3  7  2  0  0  0  0
  4  8  2  0  0  0  0
  5 18  1  0  0  0  0
  6 19  1  0  0  0  0
  7 12  1  0  0  0  0
  7 18  1  0  0  0  0
  8 13  1  0  0  0  0
  8 19  1  0  0  0  0
  9 10  1  0  0  0  0
  9 11  1  0  0  0  0
  9 17  2  0  0  0  0
 10 12  2  0  0  0  0
 10 14  1  0  0  0  0
 11 13  2  0  0  0  0
 11 15  1  0  0  0  0
 14 16  1  0  0  0  0
 15 16  1  0  0  0  0
M  END

> <original SMILES>

O=C1/C(=C/c2ccco2)CCC/C1=C\c1ccco1

> <ref_mols>

x0104_0,x0305_0,x0434_0,x0830_0

> <ref_pdb>

receptors/Mpro-x0104-protein.pdb

> <Chemgauss4>

-8.12715

> <binding_free_energy>

-8.06657880000003

> <binding_std_error>

0.40151944551793567

$$$$
DOU-UNK-b5326f8f-10
  -OEChem-05122002103D

 21 24  0     1  0  0  0  0  0999 V2000
   14.2505    2.1404   22.3073 C   0  0  0  0  0  0  0  0  0  0  0  0
   13.5225    0.9429   22.5861 C   0  0  0  0  0  0  0  0  0  0  0  0
   13.4738    3.2684   22.4541 C   0  0  0  0  0  0  0  0  0  0  0  0
   12.2077    1.2165   22.9151 C   0  0  0  0  0  0  0  0  0  0  0  0
    9.7894   -1.0946   22.0863 C   0  0  0  0  0  0  0  0  0  0  0  0
   13.8394    4.6359   22.2729 C   0  0  0  0  0  0  0  0  0  0  0  0
    8.4894   -1.7652   24.5128 C   0  0  0  0  0  0  0  0  0  0  0  0
    8.3434   -3.1239   23.8865 C   0  0  0  0  0  0  0  0  0  0  0  0
   12.9152   -1.4680   22.3481 C   0  0  0  0  0  0  0  0  0  0  0  0
   14.0535   -0.4534   22.5388 C   0  0  2  0  0  0  0  0  0  0  0  0
   11.1614    0.1984   23.2478 C   0  0  2  0  0  0  0  0  0  0  0  0
   10.5231   -2.0880   22.9328 C   0  0  2  0  0  0  0  0  0  0  0  0
    9.7069   -2.5395   24.1047 C   0  0  0  0  0  0  0  0  0  0  0  0
   11.7309   -1.2364   23.3216 C   0  0  1  0  0  0  0  0  0  0  0  0
   10.1153    0.1531   22.1985 N   0  0  0  0  0  0  0  0  0  0  0  0
   12.8668    5.6278   22.4816 N   0  0  0  0  0  0  0  0  0  0  0  0
   14.9945    4.9849   21.9175 O   0  0  0  0  0  0  0  0  0  0  0  0
   11.8720    2.8893   22.9202 S   0  0  0  0  0  0  0  0  0  0  0  0
   14.9319   -0.7676   24.0644 Cl  0  0  0  0  0  0  0  0  0  0  0  0
   11.9320    5.3451   22.7552 H   0  0  0  0  0  0  0  0  0  0  0  0
   13.0648    6.6168   22.3687 H   0  0  0  0  0  0  0  0  0  0  0  0
  1  2  1  0  0  0  0
  1  3  2  0  0  0  0
  2  4  2  0  0  0  0
  2 10  1  0  0  0  0
  3  6  1  0  0  0  0
  3 18  1  0  0  0  0
  4 11  1  0  0  0  0
  4 18  1  0  0  0  0
  5 12  1  0  0  0  0
  5 15  2  0  0  0  0
  6 16  1  0  0  0  0
  6 17  2  0  0  0  0
  7  8  1  0  0  0  0
  7 13  1  0  0  0  0
  8 13  1  0  0  0  0
  9 10  1  0  0  0  0
  9 14  1  0  0  0  0
 10 19  1  0  0  0  0
 11 14  1  0  0  0  0
 11 15  1  0  0  0  0
 12 13  1  0  0  0  0
 12 14  1  0  0  0  0
 16 20  1  0  0  0  0
 16 21  1  0  0  0  0
M  END

> <original SMILES>

NC(=O)c1cc2c(s1)C1NC=C(C3CC3)C1CC2Cl

> <ref_mols>

x0104_0,x0107_0,x0387_0,x0397_0,x0708_0,x0770_0,x1093_0,x1392_0

> <ref_pdb>

receptors/Mpro-x0107-protein.pdb

> <Chemgauss4>

-5.928128

> <binding_free_energy>

-7.882021724081634

> <binding_std_error>

0.14197353843974347

$$$$
NIM-UNI-534877e5-1
  -OEChem-05122002103D

 21 23  0     0  0  0  0  0  0999 V2000
   13.3080    0.1995   23.5153 C   0  0  0  0  0  0  0  0  0  0  0  0
    5.6789    0.8633   19.2522 C   0  0  0  0  0  0  0  0  0  0  0  0
   11.9895   -0.0614   23.1425 C   0  0  0  0  0  0  0  0  0  0  0  0
    6.3506    0.1562   20.2432 C   0  0  0  0  0  0  0  0  0  0  0  0
   14.2655   -0.8125   23.4466 C   0  0  0  0  0  0  0  0  0  0  0  0
   12.5859   -2.3464   22.6323 C   0  0  0  0  0  0  0  0  0  0  0  0
    6.2212    0.8667   17.9772 C   0  0  0  0  0  0  0  0  0  0  0  0
    7.9868   -0.4516   18.6277 C   0  0  0  0  0  0  0  0  0  0  0  0
   11.6284   -1.3343   22.7010 C   0  0  0  0  0  0  0  0  0  0  0  0
    7.5274   -0.5165   19.9333 C   0  0  0  0  0  0  0  0  0  0  0  0
   13.9044   -2.0855   23.0051 C   0  0  0  0  0  0  0  0  0  0  0  0
    9.5163   -2.5459   22.9404 C   0  0  0  0  0  0  0  0  0  0  0  0
   10.2358   -1.6091   22.3084 C   0  0  0  0  0  0  0  0  0  0  0  0
    9.5679   -0.8573   21.2033 C   0  0  0  0  0  0  0  0  0  0  0  0
    7.6549   -2.2923   21.6615 C   0  0  0  0  0  0  0  0  0  0  0  0
    6.2780   -2.8004   21.2846 C   0  0  0  0  0  0  0  0  0  0  0  0
    7.3618    0.2252   17.6381 N   0  0  0  0  0  0  0  0  0  0  0  0
    8.2364   -2.9115   22.6430 N   0  0  0  0  0  0  0  0  0  0  0  0
    8.2442   -1.2556   20.9356 N   0  0  0  0  0  0  0  0  0  0  0  0
   10.1669    0.0694   20.6577 O   0  0  0  0  0  0  0  0  0  0  0  0
   15.2025   -3.4562   22.9133 Br  0  0  0  0  0  0  0  0  0  0  0  0
  1  3  2  0  0  0  0
  1  5  1  0  0  0  0
  2  4  2  0  0  0  0
  2  7  1  0  0  0  0
  3  9  1  0  0  0  0
  4 10  1  0  0  0  0
  5 11  2  0  0  0  0
  6  9  2  0  0  0  0
  6 11  1  0  0  0  0
  7 17  2  0  0  0  0
  8 10  2  0  0  0  0
  8 17  1  0  0  0  0
  9 13  1  0  0  0  0
 10 19  1  0  0  0  0
 11 21  1  0  0  0  0
 12 13  2  0  0  0  0
 12 18  1  0  0  0  0
 13 14  1  0  0  0  0
 14 19  1  0  0  0  0
 14 20  2  0  0  0  0
 15 16  1  0  0  0  0
 15 18  2  0  0  0  0
 15 19  1  0  0  0  0
M  END

> <original SMILES>

C=C1NC=C(c2cccc(Br)c2)C(=O)N1c1cccnc1

> <ref_mols>

x0434_0,x0770_0,x0786_0

> <ref_pdb>

receptors/Mpro-x0786-protein.pdb

> <Chemgauss4>

-1.350153

> <binding_free_energy>

-7.8780735200000045

> <binding_std_error>

0.13138627341646028

$$$$
WAR-XCH-b72a1bbc-14
  -OEChem-05122002103D

 21 22  0     0  0  0  0  0  0999 V2000
    9.4549   -4.6308   23.4009 C   0  0  0  0  0  0  0  0  0  0  0  0
    8.7233   -2.3998   22.8314 C   0  0  0  0  0  0  0  0  0  0  0  0
    8.2964   -5.1567   22.8293 C   0  0  0  0  0  0  0  0  0  0  0  0
    7.5648   -2.9257   22.2597 C   0  0  0  0  0  0  0  0  0  0  0  0
    9.6684   -3.2523   23.4021 C   0  0  0  0  0  0  0  0  0  0  0  0
    7.3513   -4.3042   22.2586 C   0  0  0  0  0  0  0  0  0  0  0  0
   12.5525   -2.8963   25.7327 C   0  0  0  0  0  0  0  0  0  0  0  0
   12.8895   -1.3854   23.7669 C   0  0  0  0  0  0  0  0  0  0  0  0
   11.0631   -2.9897   25.4022 C   0  0  0  0  0  0  0  0  0  0  0  0
   11.3995   -1.4834   23.4378 C   0  0  0  0  0  0  0  0  0  0  0  0
   13.1898   -1.5860   25.2561 C   0  0  0  0  0  0  0  0  0  0  0  0
   12.7420   -0.3892   26.0977 C   0  0  0  0  0  0  0  0  0  0  0  0
   10.8314   -2.7238   23.9760 N   0  0  0  0  0  0  0  0  0  0  0  0
    4.8465   -4.9632   22.8881 N   0  0  0  0  0  0  0  0  0  0  0  0
    5.4033   -4.0118   20.5578 O   0  0  0  0  0  0  0  0  0  0  0  0
    6.1612   -6.3398   21.1523 O   0  0  0  0  0  0  0  0  0  0  0  0
   11.3362   -0.2644   25.9894 O   0  0  0  0  0  0  0  0  0  0  0  0
    5.9006   -4.9614   21.5434 S   0  0  0  0  0  0  0  0  0  0  0  0
    4.0808   -4.2784   22.9011 H   0  0  0  0  0  0  0  0  0  0  0  0
    4.6010   -5.8684   23.3070 H   0  0  0  0  0  0  0  0  0  0  0  0
   11.0745    0.5001   26.5306 H   0  0  0  0  0  0  0  0  0  0  0  0
  1  3  2  0  0  0  0
  1  5  1  0  0  0  0
  2  4  1  0  0  0  0
  2  5  2  0  0  0  0
  3  6  1  0  0  0  0
  4  6  2  0  0  0  0
  5 13  1  0  0  0  0
  6 18  1  0  0  0  0
  7  9  1  0  0  0  0
  7 11  1  0  0  0  0
  8 10  1  0  0  0  0
  8 11  1  0  0  0  0
  9 13  1  0  0  0  0
 10 13  1  0  0  0  0
 11 12  1  0  0  0  0
 12 17  1  0  0  0  0
 14 18  1  0  0  0  0
 15 18  2  0  0  0  0
 16 18  2  0  0  0  0
 14 19  1  0  0  0  0
 14 20  1  0  0  0  0
 17 21  1  0  0  0  0
M  END

> <original SMILES>

NS(=O)(=O)c1ccc(N2CCC(CO)CC2)cc1

> <ref_mols>

x0072_0,x0104_0,x0107_0,x0161_0,x0165_0

> <ref_pdb>

receptors/Mpro-x0072_0.pdb

> <Chemgauss4>

-7.208499

> <binding_free_energy>

-7.862138608860894

> <binding_std_error>

0.0

$$$$
DOU-UNK-b5326f8f-11
  -OEChem-05122002103D

 20 22  0     0  0  0  0  0  0999 V2000
   13.3942   -1.6849   24.8232 C   0  0  0  0  0  0  0  0  0  0  0  0
   12.7880   -0.8315   23.9062 C   0  0  0  0  0  0  0  0  0  0  0  0
   12.7766   -2.8850   25.1779 C   0  0  0  0  0  0  0  0  0  0  0  0
   11.5605   -1.1726   23.3381 C   0  0  0  0  0  0  0  0  0  0  0  0
    9.6961   -4.8145   24.4175 C   0  0  0  0  0  0  0  0  0  0  0  0
    7.7955   -4.1614   22.8003 C   0  0  0  0  0  0  0  0  0  0  0  0
   11.5414   -3.2510   24.6199 C   0  0  0  0  0  0  0  0  0  0  0  0
   10.9222   -2.3840   23.6863 C   0  0  0  0  0  0  0  0  0  0  0  0
    9.0457   -3.9769   23.4825 C   0  0  0  0  0  0  0  0  0  0  0  0
   10.9241   -4.4500   24.9729 C   0  0  0  0  0  0  0  0  0  0  0  0
    9.6618   -2.7702   23.1241 C   0  0  0  0  0  0  0  0  0  0  0  0
    7.4870   -3.1233   21.9575 C   0  0  0  0  0  0  0  0  0  0  0  0
    6.3401   -2.9596   21.1247 C   0  0  0  0  0  0  0  0  0  0  0  0
    6.2373   -1.8004   20.3376 N   0  0  0  0  0  0  0  0  0  0  0  0
    5.4102   -3.8059   21.0810 O   0  0  0  0  0  0  0  0  0  0  0  0
   11.4928   -5.3098   25.8702 O   0  0  0  0  0  0  0  0  0  0  0  0
    8.6851   -1.9169   21.9709 S   0  0  0  0  0  0  0  0  0  0  0  0
    6.9808   -1.1120   20.3829 H   0  0  0  0  0  0  0  0  0  0  0  0
    5.4468   -1.6262   19.7254 H   0  0  0  0  0  0  0  0  0  0  0  0
   10.9250   -6.0851   25.9910 H   0  0  0  0  0  0  0  0  0  0  0  0
  1  2  1  0  0  0  0
  1  3  2  0  0  0  0
  2  4  2  0  0  0  0
  3  7  1  0  0  0  0
  4  8  1  0  0  0  0
  5  9  2  0  0  0  0
  5 10  1  0  0  0  0
  6  9  1  0  0  0  0
  6 12  2  0  0  0  0
  7  8  1  0  0  0  0
  7 10  2  0  0  0  0
  8 11  2  0  0  0  0
  9 11  1  0  0  0  0
 10 16  1  0  0  0  0
 11 17  1  0  0  0  0
 12 13  1  0  0  0  0
 12 17  1  0  0  0  0
 13 14  1  0  0  0  0
 13 15  2  0  0  0  0
 14 18  1  0  0  0  0
 14 19  1  0  0  0  0
 16 20  1  0  0  0  0
M  END

> <original SMILES>

NC(=O)c1cc2c(s1)-c1ccccc1C(=O)C2

> <ref_mols>

x0104_0,x0107_0,x0387_0,x0397_0,x0708_0,x0770_0,x1093_0,x1392_0

> <ref_pdb>

receptors/Mpro-x1392-protein.pdb

> <Chemgauss4>

-6.245037

> <binding_free_energy>

-7.860019811236068

> <binding_std_error>

0.0886810121155086

$$$$
JOH-UNI-9dc98897-2
  -OEChem-05122002103D

 19 20  0     1  0  0  0  0  0999 V2000
    6.3810   -3.4489   21.5653 C   0  0  0  0  0  0  0  0  0  0  0  0
    9.6245   -3.8660   23.3163 C   0  0  0  0  0  0  0  0  0  0  0  0
    9.0810   -1.5782   22.9597 C   0  0  0  0  0  0  0  0  0  0  0  0
    7.6218   -3.1931   22.2243 C   0  0  0  0  0  0  0  0  0  0  0  0
    8.4340   -4.2152   22.6885 C   0  0  0  0  0  0  0  0  0  0  0  0
    9.9616   -2.5245   23.4585 C   0  0  0  0  0  0  0  0  0  0  0  0
   12.8435   -2.8514   25.7980 C   0  0  0  0  0  0  0  0  0  0  0  0
   11.3816   -2.5388   25.4775 C   0  0  0  0  0  0  0  0  0  0  0  0
   12.1377   -1.3646   23.3269 C   0  0  0  0  0  0  0  0  0  0  0  0
   13.6921   -1.6089   26.0264 C   0  0  0  0  0  0  0  0  0  0  0  0
   12.8802   -0.3438   24.1807 C   0  0  0  0  0  0  0  0  0  0  0  0
    8.0730   -5.6537   22.5385 C   0  0  0  0  0  0  0  0  0  0  0  0
    5.3727   -3.6568   21.0297 N   0  0  0  0  0  0  0  0  0  0  0  0
    7.9156   -1.8790   22.3440 N   0  0  0  0  0  0  0  0  0  0  0  0
   11.1547   -2.1429   24.0855 N   0  0  3  0  0  0  0  0  0  0  0  0
   14.0056   -0.9290   24.8206 O   0  0  0  0  0  0  0  0  0  0  0  0
    9.0008   -6.5092   23.0619 F   0  0  0  0  0  0  0  0  0  0  0  0
    6.8969   -5.9893   23.1473 F   0  0  0  0  0  0  0  0  0  0  0  0
    7.9282   -6.0261   21.2331 F   0  0  0  0  0  0  0  0  0  0  0  0
  1  4  1  0  0  0  0
  1 13  3  0  0  0  0
  2  5  1  0  0  0  0
  2  6  2  0  0  0  0
  3  6  1  0  0  0  0
  3 14  2  0  0  0  0
  4  5  2  0  0  0  0
  4 14  1  0  0  0  0
  5 12  1  0  0  0  0
  6 15  1  0  0  0  0
  7  8  1  0  0  0  0
  7 10  1  0  0  0  0
  8 15  1  0  0  0  0
  9 11  1  0  0  0  0
  9 15  1  0  0  0  0
 10 16  1  0  0  0  0
 11 16  1  0  0  0  0
 12 17  1  0  0  0  0
 12 18  1  0  0  0  0
 12 19  1  0  0  0  0
M  END

> <original SMILES>

N#Cc1ncc(N2CCCOCC2)cc1C(F)(F)F

> <ref_mols>

x1077_0

> <ref_pdb>

receptors/Mpro-x1077-protein.pdb

> <Chemgauss4>

-6.727108

> <binding_free_energy>

-7.838601934285705

> <binding_std_error>

0.11465647949364523

$$$$
MIH-UNI-6b9ca91a-1
  -OEChem-05122002103D

 17 18  0     0  0  0  0  0  0999 V2000
    6.1298    0.4058   19.1988 C   0  0  0  0  0  0  0  0  0  0  0  0
   12.0645   -1.1756   22.5268 C   0  0  0  0  0  0  0  0  0  0  0  0
    6.6830    0.1989   17.9454 C   0  0  0  0  0  0  0  0  0  0  0  0
    8.8197    0.4671   18.7458 C   0  0  0  0  0  0  0  0  0  0  0  0
   13.0532   -1.9474   23.0963 C   0  0  0  0  0  0  0  0  0  0  0  0
   13.3134    0.4369   23.6415 C   0  0  0  0  0  0  0  0  0  0  0  0
    6.9945    0.6537   20.2590 C   0  0  0  0  0  0  0  0  0  0  0  0
   12.2152    0.2057   22.8425 C   0  0  0  0  0  0  0  0  0  0  0  0
    8.3666    0.6867   20.0366 C   0  0  0  0  0  0  0  0  0  0  0  0
   10.6758    0.9935   20.9951 C   0  0  0  0  0  0  0  0  0  0  0  0
    6.4252    0.8808   21.6210 C   0  0  0  0  0  0  0  0  0  0  0  0
   11.2817    1.2845   22.3591 C   0  0  0  0  0  0  0  0  0  0  0  0
    8.0104    0.2233   17.6907 N   0  0  0  0  0  0  0  0  0  0  0  0
    9.2738    0.9310   21.0674 N   0  0  0  0  0  0  0  0  0  0  0  0
   11.3641    0.8392   19.9914 O   0  0  0  0  0  0  0  0  0  0  0  0
   14.1572   -1.0076   24.0074 S   0  0  0  0  0  0  0  0  0  0  0  0
    8.8654    1.0847   21.9969 H   0  0  0  0  0  0  0  0  0  0  0  0
  1  3  2  0  0  0  0
  1  7  1  0  0  0  0
  2  5  2  0  0  0  0
  2  8  1  0  0  0  0
  3 13  1  0  0  0  0
  4  9  1  0  0  0  0
  4 13  2  0  0  0  0
  5 16  1  0  0  0  0
  6  8  2  0  0  0  0
  6 16  1  0  0  0  0
  7  9  2  0  0  0  0
  7 11  1  0  0  0  0
  8 12  1  0  0  0  0
  9 14  1  0  0  0  0
 10 12  1  0  0  0  0
 10 14  1  0  0  0  0
 10 15  2  0  0  0  0
 14 17  1  0  0  0  0
M  END

> <original SMILES>

Cc1ccncc1NC(=O)Cc1ccsc1

> <ref_mols>

x0072_0,x0107_0,x0161_0,x0305_0,x0387_0,x0434_0,x0874_0

> <ref_pdb>

receptors/Mpro-x0107-protein.pdb

> <Chemgauss4>

-9.332361

> <binding_free_energy>

-7.722006931313132

> <binding_std_error>

2.087130153233517

$$$$
TRY-UNI-1fd04853-7
  -OEChem-05122002103D

 23 25  0     0  0  0  0  0  0999 V2000
    5.7179    1.0113   18.7480 C   0  0  0  0  0  0  0  0  0  0  0  0
    6.2970    1.0661   20.0145 C   0  0  0  0  0  0  0  0  0  0  0  0
   12.6030   -2.1929   23.7758 C   0  0  0  0  0  0  0  0  0  0  0  0
   13.1490    0.1499   23.5520 C   0  0  0  0  0  0  0  0  0  0  0  0
   13.7317   -2.5275   23.0277 C   0  0  0  0  0  0  0  0  0  0  0  0
   14.2778   -0.1847   22.8039 C   0  0  0  0  0  0  0  0  0  0  0  0
    6.4680    0.5119   17.6918 C   0  0  0  0  0  0  0  0  0  0  0  0
    9.7081   -0.0437   20.7019 C   0  0  0  0  0  0  0  0  0  0  0  0
    7.6177    0.6092   20.1520 C   0  0  0  0  0  0  0  0  0  0  0  0
   12.3116   -0.8542   24.0380 C   0  0  0  0  0  0  0  0  0  0  0  0
    8.5482    0.4924   21.2182 C   0  0  0  0  0  0  0  0  0  0  0  0
   14.5691   -1.5234   22.5418 C   0  0  0  0  0  0  0  0  0  0  0  0
    8.2531    0.1337   19.0086 C   0  0  0  0  0  0  0  0  0  0  0  0
    9.5959    0.9327   23.4734 C   0  0  0  0  0  0  0  0  0  0  0  0
    8.3245    0.8735   22.6272 C   0  0  0  0  0  0  0  0  0  0  0  0
   11.0977   -0.4938   24.8446 C   0  0  0  0  0  0  0  0  0  0  0  0
    7.7412    0.0592   17.7654 N   0  0  0  0  0  0  0  0  0  0  0  0
    9.5181   -0.2569   19.3611 N   0  0  0  0  0  0  0  0  0  0  0  0
    9.9334   -0.3008   24.0121 N   0  0  0  0  0  0  0  0  0  0  0  0
   10.2309    1.9711   23.6388 O   0  0  0  0  0  0  0  0  0  0  0  0
   15.9615   -1.9363   21.6191 Cl  0  0  0  0  0  0  0  0  0  0  0  0
   10.2058   -0.6418   18.7286 H   0  0  0  0  0  0  0  0  0  0  0  0
    9.3382   -1.0995   23.8131 H   0  0  0  0  0  0  0  0  0  0  0  0
  1  2  2  0  0  0  0
  1  7  1  0  0  0  0
  2  9  1  0  0  0  0
  3  5  2  0  0  0  0
  3 10  1  0  0  0  0
  4  6  1  0  0  0  0
  4 10  2  0  0  0  0
  5 12  1  0  0  0  0
  6 12  2  0  0  0  0
  7 17  2  0  0  0  0
  8 11  2  0  0  0  0
  8 18  1  0  0  0  0
  9 11  1  0  0  0  0
  9 13  2  0  0  0  0
 10 16  1  0  0  0  0
 11 15  1  0  0  0  0
 12 21  1  0  0  0  0
 13 17  1  0  0  0  0
 13 18  1  0  0  0  0
 14 15  1  0  0  0  0
 14 19  1  0  0  0  0
 14 20  2  0  0  0  0
 16 19  1  0  0  0  0
 18 22  1  0  0  0  0
 19 23  1  0  0  0  0
M  END

> <original SMILES>

O=C(Cc1c[nH]c2ncccc12)NCc1ccc(Cl)cc1

> <ref_mols>

x0104_0,x0161_0,x0195_0,x0305_0,x0387_0,x0678_0,x1382_0

> <ref_pdb>

receptors/protein-0387.pdb

> <Chemgauss4>

-4.65786695480347

> <binding_free_energy>

-7.592122864238622

> <binding_std_error>

1.6258605174826493

$$$$
ALV-UNI-7ff1a6f9-34
  -OEChem-05122002103D

 26 29  0     0  0  0  0  0  0999 V2000
   10.9207   -1.6108   22.1656 C   0  0  0  0  0  0  0  0  0  0  0  0
   12.0672    0.1335   20.9490 C   0  0  0  0  0  0  0  0  0  0  0  0
   12.1330   -2.0206   22.7205 C   0  0  0  0  0  0  0  0  0  0  0  0
   13.2795   -0.2763   21.5040 C   0  0  0  0  0  0  0  0  0  0  0  0
    9.0335    1.3781   23.5460 C   0  0  0  0  0  0  0  0  0  0  0  0
    7.2113   -0.1860   23.4121 C   0  0  0  0  0  0  0  0  0  0  0  0
    8.7512    1.5088   24.8962 C   0  0  0  0  0  0  0  0  0  0  0  0
   10.8878   -0.5337   21.2798 C   0  0  0  0  0  0  0  0  0  0  0  0
    8.2442    0.5126   22.7969 C   0  0  0  0  0  0  0  0  0  0  0  0
    8.4952    0.3427   21.3954 C   0  0  0  0  0  0  0  0  0  0  0  0
   13.3124   -1.3533   22.3897 C   0  0  0  0  0  0  0  0  0  0  0  0
    9.6350   -0.1104   20.7062 C   0  0  0  0  0  0  0  0  0  0  0  0
    7.5854    0.6179   20.4040 C   0  0  0  0  0  0  0  0  0  0  0  0
    7.0108    0.0145   24.7684 C   0  0  0  0  0  0  0  0  0  0  0  0
    6.2608    1.0969   20.3518 C   0  0  0  0  0  0  0  0  0  0  0  0
    5.6663    1.2465   19.1620 C   0  0  0  0  0  0  0  0  0  0  0  0
    6.4602    0.8894   17.9483 C   0  0  0  0  0  0  0  0  0  0  0  0
    5.7694    1.0663   16.6213 C   0  0  0  0  0  0  0  0  0  0  0  0
    7.7566    0.8469   25.5290 N   0  0  0  0  0  0  0  0  0  0  0  0
    9.4709   -0.1248   19.3809 N   0  0  0  0  0  0  0  0  0  0  0  0
    7.6829    0.4452   17.9602 N   0  0  0  0  0  0  0  0  0  0  0  0
    8.2087    0.3241   19.2096 N   0  0  0  0  0  0  0  0  0  0  0  0
    5.9547   -0.7038   25.3818 N   0  0  0  0  0  0  0  0  0  0  0  0
   14.4766   -1.7469   22.9227 F   0  0  0  0  0  0  0  0  0  0  0  0
    5.3729   -1.2818   24.8152 H   0  0  0  0  0  0  0  0  0  0  0  0
    5.7592   -0.5422   26.3458 H   0  0  0  0  0  0  0  0  0  0  0  0
  1  3  2  0  0  0  0
  1  8  1  0  0  0  0
  2  4  1  0  0  0  0
  2  8  2  0  0  0  0
  3 11  1  0  0  0  0
  4 11  2  0  0  0  0
  5  7  2  0  0  0  0
  5  9  1  0  0  0  0
  6  9  2  0  0  0  0
  6 14  1  0  0  0  0
  7 19  1  0  0  0  0
  8 12  1  0  0  0  0
  9 10  1  0  0  0  0
 10 12  1  0  0  0  0
 10 13  2  0  0  0  0
 11 24  1  0  0  0  0
 12 20  2  0  0  0  0
 13 15  1  0  0  0  0
 13 22  1  0  0  0  0
 14 19  2  0  0  0  0
 14 23  1  0  0  0  0
 15 16  2  0  0  0  0
 16 17  1  0  0  0  0
 17 18  1  0  0  0  0
 17 21  2  0  0  0  0
 20 22  1  0  0  0  0
 21 22  1  0  0  0  0
 23 25  1  0  0  0  0
 23 26  1  0  0  0  0
M  END

> <original SMILES>

Cc1ccc2c(-c3ccnc(N)c3)c(-c3ccc(F)cc3)nn2n1

> <ref_mols>

x0395_0,x0426_0,x0434_0,x0540_0,x0678_0,x0830_0,x1093_0

> <ref_pdb>

receptors/Mpro-x1093-protein.pdb

> <Chemgauss4>

-8.800723

> <binding_free_energy>

-7.574736671020446

> <binding_std_error>

6.7171637323155675

$$$$
MAT-GIT-deadff56-1
  -OEChem-05122002103D

 19 20  0     0  0  0  0  0  0999 V2000
    6.4581   -4.0941   20.8026 C   0  0  0  0  0  0  0  0  0  0  0  0
    7.7767   -5.8101   21.9324 C   0  0  0  0  0  0  0  0  0  0  0  0
    8.7418   -6.2053   22.8632 C   0  0  0  0  0  0  0  0  0  0  0  0
    8.0800   -3.4743   22.5231 C   0  0  0  0  0  0  0  0  0  0  0  0
   10.6489   -4.0476   25.0594 C   0  0  0  0  0  0  0  0  0  0  0  0
    7.4494   -4.4662   21.7633 C   0  0  0  0  0  0  0  0  0  0  0  0
    9.0562   -3.8487   23.4678 C   0  0  0  0  0  0  0  0  0  0  0  0
    9.8748   -3.1318   24.3848 C   0  0  0  0  0  0  0  0  0  0  0  0
    9.3639   -5.2028   23.6157 C   0  0  0  0  0  0  0  0  0  0  0  0
   12.9898   -0.9185   25.5753 C   0  0  0  0  0  0  0  0  0  0  0  0
   14.2723   -1.5902   25.9392 C   0  0  0  0  0  0  0  0  0  0  0  0
    9.8973   -1.6687   24.5851 C   0  0  0  0  0  0  0  0  0  0  0  0
   11.1104   -0.9667   23.9481 C   0  0  0  0  0  0  0  0  0  0  0  0
    5.6535   -3.7920   20.0228 N   0  0  0  0  0  0  0  0  0  0  0  0
   10.3338   -5.2939   24.5885 N   0  0  0  0  0  0  0  0  0  0  0  0
   12.3572   -1.4605   24.4680 N   0  0  0  0  0  0  0  0  0  0  0  0
   12.5910    0.0262   26.2462 O   0  0  0  0  0  0  0  0  0  0  0  0
   10.7523   -6.1565   24.9081 H   0  0  0  0  0  0  0  0  0  0  0  0
   12.7981   -2.2496   23.9979 H   0  0  0  0  0  0  0  0  0  0  0  0
  1  6  1  0  0  0  0
  1 14  3  0  0  0  0
  2  3  2  0  0  0  0
  2  6  1  0  0  0  0
  3  9  1  0  0  0  0
  4  6  2  0  0  0  0
  4  7  1  0  0  0  0
  5  8  2  0  0  0  0
  5 15  1  0  0  0  0
  7  8  1  0  0  0  0
  7  9  2  0  0  0  0
  8 12  1  0  0  0  0
  9 15  1  0  0  0  0
 10 11  1  0  0  0  0
 10 16  1  0  0  0  0
 10 17  2  0  0  0  0
 12 13  1  0  0  0  0
 13 16  1  0  0  0  0
 15 18  1  0  0  0  0
 16 19  1  0  0  0  0
M  END

> <original SMILES>

CC(=O)NCCc1c[nH]c2ccc(C#N)cc12

> <ref_mols>

x0104_0,x0434_0,x0678_0

> <ref_pdb>

receptors/Mpro-x0678_0.pdb

> <Chemgauss4>

-9.765643

> <binding_free_energy>

-7.574588773922912

> <binding_std_error>

0.5517271371882018

$$$$
ALV-UNI-7ff1a6f9-32
  -OEChem-05122002103D

 23 26  0     0  0  0  0  0  0999 V2000
   11.5728    1.1357   22.2482 C   0  0  0  0  0  0  0  0  0  0  0  0
   11.5042   -1.1776   21.5547 C   0  0  0  0  0  0  0  0  0  0  0  0
   12.7855    0.9052   22.8975 C   0  0  0  0  0  0  0  0  0  0  0  0
   12.7170   -1.4082   22.2041 C   0  0  0  0  0  0  0  0  0  0  0  0
    8.2745    0.2818   23.9711 C   0  0  0  0  0  0  0  0  0  0  0  0
    7.8862    1.0828   25.0617 C   0  0  0  0  0  0  0  0  0  0  0  0
   10.9321    0.0943   21.5768 C   0  0  0  0  0  0  0  0  0  0  0  0
    8.4764    0.7802   21.4837 C   0  0  0  0  0  0  0  0  0  0  0  0
   13.3577   -0.3667   22.8755 C   0  0  0  0  0  0  0  0  0  0  0  0
    9.6786    0.3325   20.9059 C   0  0  0  0  0  0  0  0  0  0  0  0
    8.1822    1.1149   22.8831 C   0  0  0  0  0  0  0  0  0  0  0  0
    7.5962    0.8432   20.4312 C   0  0  0  0  0  0  0  0  0  0  0  0
    6.2430    1.2009   20.2649 C   0  0  0  0  0  0  0  0  0  0  0  0
    5.6957    1.1388   19.0450 C   0  0  0  0  0  0  0  0  0  0  0  0
    6.5709    0.6865   17.9224 C   0  0  0  0  0  0  0  0  0  0  0  0
    5.9319    0.6241   16.5595 C   0  0  0  0  0  0  0  0  0  0  0  0
    7.5139    3.5225   22.6113 C   0  0  0  0  0  0  0  0  0  0  0  0
    7.5709    2.3292   24.6996 N   0  0  0  0  0  0  0  0  0  0  0  0
    9.5788    0.1253   19.5904 N   0  0  0  0  0  0  0  0  0  0  0  0
    7.8219    0.3494   18.0403 N   0  0  0  0  0  0  0  0  0  0  0  0
    7.7610    2.3176   23.3692 N   0  0  0  0  0  0  0  0  0  0  0  0
    8.2957    0.4422   19.3126 N   0  0  0  0  0  0  0  0  0  0  0  0
   14.5223   -0.5881   23.4991 F   0  0  0  0  0  0  0  0  0  0  0  0
  1  3  2  0  0  0  0
  1  7  1  0  0  0  0
  2  4  1  0  0  0  0
  2  7  2  0  0  0  0
  3  9  1  0  0  0  0
  4  9  2  0  0  0  0
  5  6  1  0  0  0  0
  5 11  2  0  0  0  0
  6 18  2  0  0  0  0
  7 10  1  0  0  0  0
  8 10  1  0  0  0  0
  8 11  1  0  0  0  0
  8 12  2  0  0  0  0
  9 23  1  0  0  0  0
 10 19  2  0  0  0  0
 11 21  1  0  0  0  0
 12 13  1  0  0  0  0
 12 22  1  0  0  0  0
 13 14  2  0  0  0  0
 14 15  1  0  0  0  0
 15 16  1  0  0  0  0
 15 20  2  0  0  0  0
 17 21  1  0  0  0  0
 18 21  1  0  0  0  0
 19 22  1  0  0  0  0
 20 22  1  0  0  0  0
M  END

> <original SMILES>

Cc1ccc2c(-c3ccnn3C)c(-c3ccc(F)cc3)nn2n1

> <ref_mols>

x0395_0,x0426_0,x0434_0,x0540_0,x0678_0,x0830_0,x1093_0

> <ref_pdb>

receptors/Mpro-x0678-protein.pdb

> <Chemgauss4>

-9.00619

> <binding_free_energy>

-7.556842426868685

> <binding_std_error>

0.1280489064278267

$$$$
RAJ-NOV-842d5654-2
  -OEChem-05122002103D

 22 24  0     1  0  0  0  0  0999 V2000
    6.4700   -5.1399   23.1101 C   0  0  0  0  0  0  0  0  0  0  0  0
   12.8362    0.6542   22.4552 C   0  0  0  0  0  0  0  0  0  0  0  0
   12.9140   -0.6776   22.0483 C   0  0  0  0  0  0  0  0  0  0  0  0
   11.8807    1.0418   23.3947 C   0  0  0  0  0  0  0  0  0  0  0  0
   12.0362   -1.6220   22.5806 C   0  0  0  0  0  0  0  0  0  0  0  0
   11.0029    0.0975   23.9270 C   0  0  0  0  0  0  0  0  0  0  0  0
    6.9026   -3.2816   21.5740 C   0  0  0  0  0  0  0  0  0  0  0  0
    8.7512   -1.8270   22.0748 C   0  0  0  0  0  0  0  0  0  0  0  0
    7.2255   -3.9965   22.7161 C   0  0  0  0  0  0  0  0  0  0  0  0
    7.6849   -2.1775   21.2542 C   0  0  0  0  0  0  0  0  0  0  0  0
   11.0807   -1.2344   23.5200 C   0  0  0  0  0  0  0  0  0  0  0  0
    8.9913   -2.6068   23.1946 C   0  0  0  0  0  0  0  0  0  0  0  0
    6.2014   -1.9014   19.2291 C   0  0  0  0  0  0  0  0  0  0  0  0
    6.9793    0.0936   20.3143 C   0  0  0  0  0  0  0  0  0  0  0  0
    5.4681    0.1259   20.1882 C   0  0  0  0  0  0  0  0  0  0  0  0
    7.3771   -1.3614   20.0195 C   0  0  1  0  0  0  0  0  0  0  0  0
   10.1267   -2.2597   24.0985 C   0  0  0  0  0  0  0  0  0  0  0  0
    5.8550   -6.0704   23.4307 N   0  0  0  0  0  0  0  0  0  0  0  0
    8.2534   -3.6864   23.5376 N   0  0  0  0  0  0  0  0  0  0  0  0
    5.1596   -0.9897   19.3403 N   0  0  0  0  0  0  0  0  0  0  0  0
    6.1816   -2.9674   18.6311 O   0  0  0  0  0  0  0  0  0  0  0  0
    4.2817   -1.0845   18.8333 H   0  0  0  0  0  0  0  0  0  0  0  0
  1  9  1  0  0  0  0
  1 18  3  0  0  0  0
  2  3  1  0  0  0  0
  2  4  2  0  0  0  0
  3  5  2  0  0  0  0
  4  6  1  0  0  0  0
  5 11  1  0  0  0  0
  6 11  2  0  0  0  0
  7  9  1  0  0  0  0
  7 10  2  0  0  0  0
  8 10  1  0  0  0  0
  8 12  2  0  0  0  0
  9 19  2  0  0  0  0
 10 16  1  0  0  0  0
 11 17  1  0  0  0  0
 12 17  1  0  0  0  0
 12 19  1  0  0  0  0
 13 16  1  0  0  0  0
 13 20  1  0  0  0  0
 13 21  2  0  0  0  0
 14 15  1  0  0  0  0
 14 16  1  0  0  0  0
 15 20  1  0  0  0  0
 20 22  1  0  0  0  0
M  END

> <original SMILES>

N#Cc1cc([C@@H]2CCNC2=O)cc(Cc2ccccc2)n1

> <ref_mols>

x0434_0

> <ref_pdb>

receptors/Mpro-x0434-protein.pdb

> <Chemgauss4>

-6.781113

> <binding_free_energy>

-7.542677662104758

> <binding_std_error>

0.7836704202532877

$$$$
AMD-UAU-3d234461-1
  -OEChem-05122002103D

 19 20  0     0  0  0  0  0  0999 V2000
    8.5353   -0.4025   19.1735 C   0  0  0  0  0  0  0  0  0  0  0  0
    9.0788   -0.6625   20.4340 C   0  0  0  0  0  0  0  0  0  0  0  0
    4.8898    1.5531   18.7780 C   0  0  0  0  0  0  0  0  0  0  0  0
    7.1774    0.3901   21.4604 C   0  0  0  0  0  0  0  0  0  0  0  0
    5.6315    1.1244   17.6958 C   0  0  0  0  0  0  0  0  0  0  0  0
    6.6309    0.6514   20.1924 C   0  0  0  0  0  0  0  0  0  0  0  0
    5.4028    1.3099   20.0439 C   0  0  0  0  0  0  0  0  0  0  0  0
    7.3152    0.2514   19.0255 C   0  0  0  0  0  0  0  0  0  0  0  0
    8.3993   -0.2658   21.5791 C   0  0  0  0  0  0  0  0  0  0  0  0
    4.6104    1.7656   21.1821 C   0  0  0  0  0  0  0  0  0  0  0  0
   10.1814   -1.1934   22.8517 C   0  0  0  0  0  0  0  0  0  0  0  0
    6.8199    0.4861   17.7956 N   0  0  0  0  0  0  0  0  0  0  0  0
    3.5931    3.6423   22.2745 N   0  0  0  0  0  0  0  0  0  0  0  0
    4.3590    3.1366   21.2400 N   0  0  0  0  0  0  0  0  0  0  0  0
    4.1633    0.9883   22.0367 O   0  0  0  0  0  0  0  0  0  0  0  0
    8.9253   -0.5172   22.8080 O   0  0  0  0  0  0  0  0  0  0  0  0
    3.0708    4.4312   21.8957 H   0  0  0  0  0  0  0  0  0  0  0  0
    2.9003    2.9307   22.5030 H   0  0  0  0  0  0  0  0  0  0  0  0
    4.7343    3.7565   20.5302 H   0  0  0  0  0  0  0  0  0  0  0  0
  1  2  2  0  0  0  0
  1  8  1  0  0  0  0
  2  9  1  0  0  0  0
  3  5  1  0  0  0  0
  3  7  2  0  0  0  0
  4  6  1  0  0  0  0
  4  9  2  0  0  0  0
  5 12  2  0  0  0  0
  6  7  1  0  0  0  0
  6  8  2  0  0  0  0
  7 10  1  0  0  0  0
  8 12  1  0  0  0  0
  9 16  1  0  0  0  0
 10 14  1  0  0  0  0
 10 15  2  0  0  0  0
 11 16  1  0  0  0  0
 13 14  1  0  0  0  0
 13 17  1  0  0  0  0
 13 18  1  0  0  0  0
 14 19  1  0  0  0  0
M  END

> <original SMILES>

COc1ccc2nccc(C(=O)NN)c2c1

> <ref_mols>

x0072_0,x0387_0

> <ref_pdb>

receptors/protein-0387.pdb

> <Chemgauss4>

-6.1827974319458

> <binding_free_energy>

-7.491493353748638

> <binding_std_error>

3.6728163996595504

$$$$
ALV-UNI-7ff1a6f9-10
  -OEChem-05122002103D

 23 26  0     0  0  0  0  0  0999 V2000
   12.2796   -2.1554   22.7328 C   0  0  0  0  0  0  0  0  0  0  0  0
   12.2846    0.2411   23.0389 C   0  0  0  0  0  0  0  0  0  0  0  0
   13.4594   -2.2521   23.4707 C   0  0  0  0  0  0  0  0  0  0  0  0
   13.4644    0.1444   23.7768 C   0  0  0  0  0  0  0  0  0  0  0  0
    8.9071   -1.7955   24.4397 C   0  0  0  0  0  0  0  0  0  0  0  0
    8.3516   -3.5324   22.8714 C   0  0  0  0  0  0  0  0  0  0  0  0
    8.4980   -2.6512   25.4498 C   0  0  0  0  0  0  0  0  0  0  0  0
    7.9676   -4.3103   23.9518 C   0  0  0  0  0  0  0  0  0  0  0  0
   11.6923   -0.9087   22.5169 C   0  0  0  0  0  0  0  0  0  0  0  0
    8.8293   -2.2521   23.1287 C   0  0  0  0  0  0  0  0  0  0  0  0
    9.2398   -1.4063   22.0463 C   0  0  0  0  0  0  0  0  0  0  0  0
   14.0517   -1.1022   23.9927 C   0  0  0  0  0  0  0  0  0  0  0  0
   10.4733   -0.8088   21.7542 C   0  0  0  0  0  0  0  0  0  0  0  0
    8.4058   -1.0103   21.0257 C   0  0  0  0  0  0  0  0  0  0  0  0
    8.6193    0.3648   19.0388 C   0  0  0  0  0  0  0  0  0  0  0  0
    6.6091   -0.7241   19.6891 C   0  0  0  0  0  0  0  0  0  0  0  0
    7.3352    0.1495   18.7234 C   0  0  0  0  0  0  0  0  0  0  0  0
    6.6126    0.6903   17.5420 C   0  0  0  0  0  0  0  0  0  0  0  0
    8.0286   -3.9013   25.2389 N   0  0  0  0  0  0  0  0  0  0  0  0
   10.4468   -0.0837   20.6366 N   0  0  0  0  0  0  0  0  0  0  0  0
    7.0937   -1.2698   20.7634 N   0  0  0  0  0  0  0  0  0  0  0  0
    9.1717   -0.2049   20.1828 N   0  0  0  0  0  0  0  0  0  0  0  0
   15.1847   -1.1952   24.7013 F   0  0  0  0  0  0  0  0  0  0  0  0
  1  3  2  0  0  0  0
  1  9  1  0  0  0  0
  2  4  1  0  0  0  0
  2  9  2  0  0  0  0
  3 12  1  0  0  0  0
  4 12  2  0  0  0  0
  5  7  2  0  0  0  0
  5 10  1  0  0  0  0
  6  8  1  0  0  0  0
  6 10  2  0  0  0  0
  7 19  1  0  0  0  0
  8 19  2  0  0  0  0
  9 13  1  0  0  0  0
 10 11  1  0  0  0  0
 11 13  1  0  0  0  0
 11 14  2  0  0  0  0
 12 23  1  0  0  0  0
 13 20  2  0  0  0  0
 14 21  1  0  0  0  0
 14 22  1  0  0  0  0
 15 17  2  0  0  0  0
 15 22  1  0  0  0  0
 16 17  1  0  0  0  0
 16 21  2  0  0  0  0
 17 18  1  0  0  0  0
 20 22  1  0  0  0  0
M  END

> <original SMILES>

Cc1cnc2c(-c3ccncc3)c(-c3ccc(F)cc3)nn2c1

> <ref_mols>

x0395_0,x0426_0,x0434_0,x0540_0,x0678_0,x0830_0,x1093_0

> <ref_pdb>

receptors/Mpro-x0434-protein.pdb

> <Chemgauss4>

-7.326426

> <binding_free_energy>

-7.4532071234364174

> <binding_std_error>

0.0759565596201594

$$$$
ALV-UNI-7ff1a6f9-17
  -OEChem-05122002103D

 23 26  0     0  0  0  0  0  0999 V2000
    9.8947   -1.4535   22.5159 C   0  0  0  0  0  0  0  0  0  0  0  0
    9.8875   -1.1692   24.9151 C   0  0  0  0  0  0  0  0  0  0  0  0
    9.2311   -2.6721   22.6583 C   0  0  0  0  0  0  0  0  0  0  0  0
    9.2239   -2.3878   25.0575 C   0  0  0  0  0  0  0  0  0  0  0  0
   13.1103   -0.6634   21.0439 C   0  0  0  0  0  0  0  0  0  0  0  0
   14.1670   -1.5934   21.0605 C   0  0  0  0  0  0  0  0  0  0  0  0
   10.2229   -0.7020   23.6443 C   0  0  0  0  0  0  0  0  0  0  0  0
    8.8957   -3.1392   23.9291 C   0  0  0  0  0  0  0  0  0  0  0  0
   10.9046    0.5494   23.4980 C   0  0  0  0  0  0  0  0  0  0  0  0
   13.0237   -0.2188   22.3405 C   0  0  0  0  0  0  0  0  0  0  0  0
   12.1386    0.7278   22.9183 C   0  0  0  0  0  0  0  0  0  0  0  0
   11.2847    2.6489   23.6276 C   0  0  0  0  0  0  0  0  0  0  0  0
   11.3137    4.0609   23.8261 C   0  0  0  0  0  0  0  0  0  0  0  0
   13.5114    4.1294   22.7570 C   0  0  0  0  0  0  0  0  0  0  0  0
   13.4889    2.8002   22.5677 C   0  0  0  0  0  0  0  0  0  0  0  0
   12.3784    4.7825   23.4119 C   0  0  0  0  0  0  0  0  0  0  0  0
   12.4696    6.2669   23.5910 C   0  0  0  0  0  0  0  0  0  0  0  0
   14.3116   -0.7629   24.4337 C   0  0  0  0  0  0  0  0  0  0  0  0
   14.7128   -1.7320   22.2717 N   0  0  0  0  0  0  0  0  0  0  0  0
   10.3815    1.7401   23.9345 N   0  0  0  0  0  0  0  0  0  0  0  0
   12.3850    2.0742   23.0005 N   0  0  0  0  0  0  0  0  0  0  0  0
   13.9962   -0.8833   23.0282 N   0  0  0  0  0  0  0  0  0  0  0  0
    8.2585   -4.3095   24.0658 F   0  0  0  0  0  0  0  0  0  0  0  0
  1  3  2  0  0  0  0
  1  7  1  0  0  0  0
  2  4  1  0  0  0  0
  2  7  2  0  0  0  0
  3  8  1  0  0  0  0
  4  8  2  0  0  0  0
  5  6  1  0  0  0  0
  5 10  2  0  0  0  0
  6 19  2  0  0  0  0
  7  9  1  0  0  0  0
  8 23  1  0  0  0  0
  9 11  2  0  0  0  0
  9 20  1  0  0  0  0
 10 11  1  0  0  0  0
 10 22  1  0  0  0  0
 11 21  1  0  0  0  0
 12 13  1  0  0  0  0
 12 20  2  0  0  0  0
 12 21  1  0  0  0  0
 13 16  2  0  0  0  0
 14 15  2  0  0  0  0
 14 16  1  0  0  0  0
 15 21  1  0  0  0  0
 16 17  1  0  0  0  0
 18 22  1  0  0  0  0
 19 22  1  0  0  0  0
M  END

> <original SMILES>

Cc1ccn2c(-c3ccnn3C)c(-c3ccc(F)cc3)nc2c1

> <ref_mols>

x0395_0,x0426_0,x0434_0,x0540_0,x0678_0,x0830_0,x1093_0

> <ref_pdb>

receptors/Mpro-x0434-protein.pdb

> <Chemgauss4>

-7.224382

> <binding_free_energy>

-7.438820006666674

> <binding_std_error>

0.13004107165788223

$$$$
DAR-DIA-fc970077-3
  -OEChem-05122002103D

 18 20  0     0  0  0  0  0  0999 V2000
   14.6059   -1.0162   23.6676 C   0  0  0  0  0  0  0  0  0  0  0  0
   13.8903   -2.2135   23.6646 C   0  0  0  0  0  0  0  0  0  0  0  0
   14.0215    0.1469   23.1661 C   0  0  0  0  0  0  0  0  0  0  0  0
    5.8675    1.0198   19.5144 C   0  0  0  0  0  0  0  0  0  0  0  0
   12.5904   -2.2478   23.1599 C   0  0  0  0  0  0  0  0  0  0  0  0
   12.7216    0.1126   22.6615 C   0  0  0  0  0  0  0  0  0  0  0  0
    6.7515    0.4862   20.4455 C   0  0  0  0  0  0  0  0  0  0  0  0
    6.2057    0.9307   18.1737 C   0  0  0  0  0  0  0  0  0  0  0  0
    8.1760   -0.1504   18.6505 C   0  0  0  0  0  0  0  0  0  0  0  0
   12.0060   -1.0847   22.6583 C   0  0  0  0  0  0  0  0  0  0  0  0
    7.9302   -0.1118   20.0136 C   0  0  0  0  0  0  0  0  0  0  0  0
    9.6702   -1.9429   22.5339 C   0  0  0  0  0  0  0  0  0  0  0  0
    8.5788   -1.6722   21.8165 C   0  0  0  0  0  0  0  0  0  0  0  0
   10.2175   -0.2514   21.1000 C   0  0  0  0  0  0  0  0  0  0  0  0
    7.3412    0.3573   17.7161 N   0  0  0  0  0  0  0  0  0  0  0  0
   10.7057   -1.1192   22.1537 N   0  0  0  0  0  0  0  0  0  0  0  0
    8.8325   -0.6532   20.9202 N   0  0  0  0  0  0  0  0  0  0  0  0
   10.8293    0.6202   20.4982 O   0  0  0  0  0  0  0  0  0  0  0  0
  1  2  1  0  0  0  0
  1  3  2  0  0  0  0
  2  5  2  0  0  0  0
  3  6  1  0  0  0  0
  4  7  2  0  0  0  0
  4  8  1  0  0  0  0
  5 10  1  0  0  0  0
  6 10  2  0  0  0  0
  7 11  1  0  0  0  0
  8 15  2  0  0  0  0
  9 11  2  0  0  0  0
  9 15  1  0  0  0  0
 10 16  1  0  0  0  0
 11 17  1  0  0  0  0
 12 13  2  0  0  0  0
 12 16  1  0  0  0  0
 13 17  1  0  0  0  0
 14 16  1  0  0  0  0
 14 17  1  0  0  0  0
 14 18  2  0  0  0  0
M  END

> <original SMILES>

O=c1n(-c2ccccc2)ccn1-c1cccnc1

> <ref_mols>

x0434_0

> <ref_pdb>

receptors/protein-0387.pdb

> <Chemgauss4>

-5.133376121521

> <binding_free_energy>

-7.290357044615398

> <binding_std_error>

0.22289573520688521

$$$$
JOH-UNI-522b0723-1
  -OEChem-05122002103D

 15 16  0     1  0  0  0  0  0999 V2000
    6.7622   -3.6793   21.6798 C   0  0  0  0  0  0  0  0  0  0  0  0
    8.5749   -4.3404   23.1893 C   0  0  0  0  0  0  0  0  0  0  0  0
    9.7832   -4.0086   23.7920 C   0  0  0  0  0  0  0  0  0  0  0  0
    9.7167   -1.9201   22.6561 C   0  0  0  0  0  0  0  0  0  0  0  0
    8.0003   -3.4131   22.3350 C   0  0  0  0  0  0  0  0  0  0  0  0
   10.3716   -2.7773   23.5256 C   0  0  0  0  0  0  0  0  0  0  0  0
   11.9355   -2.9415   25.4417 C   0  0  0  0  0  0  0  0  0  0  0  0
   13.4455   -2.9170   25.6435 C   0  0  0  0  0  0  0  0  0  0  0  0
   13.7567   -1.2677   24.0086 C   0  0  0  0  0  0  0  0  0  0  0  0
   12.2605   -1.1733   23.6903 C   0  0  2  0  0  0  0  0  0  0  0  0
   11.6237    0.0340   24.3878 C   0  0  0  0  0  0  0  0  0  0  0  0
    5.7545   -3.8959   21.1465 N   0  0  0  0  0  0  0  0  0  0  0  0
    8.5420   -2.2073   22.0517 N   0  0  0  0  0  0  0  0  0  0  0  0
   11.5873   -2.4161   24.1162 N   0  0  2  0  0  0  0  0  0  0  0  0
   13.9729   -1.6217   25.3729 O   0  0  0  0  0  0  0  0  0  0  0  0
  1  5  1  0  0  0  0
  1 12  3  0  0  0  0
  2  3  2  0  0  0  0
  2  5  1  0  0  0  0
  3  6  1  0  0  0  0
  4  6  2  0  0  0  0
  4 13  1  0  0  0  0
  5 13  2  0  0  0  0
  6 14  1  0  0  0  0
  7  8  1  0  0  0  0
  7 14  1  0  0  0  0
  8 15  1  0  0  0  0
  9 10  1  0  0  0  0
  9 15  1  0  0  0  0
 10 11  1  0  0  0  0
 10 14  1  0  0  0  0
M  END

> <original SMILES>

CC1COCCN1c1ccc(C#N)nc1

> <ref_mols>

x0434_0,x1077_0

> <ref_pdb>

receptors/Mpro-x0434-protein.pdb

> <Chemgauss4>

-6.437917

> <binding_free_energy>

-7.217818039724548

> <binding_std_error>

3.9467910166591187

$$$$
ANT-DIA-3c79be55-1
  -OEChem-05122002103D

 23 25  0     0  0  0  0  0  0999 V2000
    8.5635    1.3229   21.0873 C   0  0  0  0  0  0  0  0  0  0  0  0
    6.3008    0.3276   18.3141 C   0  0  0  0  0  0  0  0  0  0  0  0
    6.0577   -1.0116   18.6189 C   0  0  0  0  0  0  0  0  0  0  0  0
   12.5614   -0.6449   22.2924 C   0  0  0  0  0  0  0  0  0  0  0  0
    7.1303    1.0905   19.1360 C   0  0  0  0  0  0  0  0  0  0  0  0
   11.4677   -1.4973   22.4329 C   0  0  0  0  0  0  0  0  0  0  0  0
    6.6440   -1.5880   19.7457 C   0  0  0  0  0  0  0  0  0  0  0  0
   12.7120    0.4019   23.1919 C   0  0  0  0  0  0  0  0  0  0  0  0
    8.9618   -1.1161   25.0625 C   0  0  0  0  0  0  0  0  0  0  0  0
    7.7166    0.5142   20.2628 C   0  0  0  0  0  0  0  0  0  0  0  0
   10.5722   -1.2471   23.4852 C   0  0  0  0  0  0  0  0  0  0  0  0
    9.3779   -1.8440   23.9687 C   0  0  0  0  0  0  0  0  0  0  0  0
    7.4735   -0.8251   20.5677 C   0  0  0  0  0  0  0  0  0  0  0  0
   10.8443   -0.1620   24.3133 C   0  0  0  0  0  0  0  0  0  0  0  0
    7.9005   -2.7560   22.1278 C   0  0  0  0  0  0  0  0  0  0  0  0
    8.6969   -3.0285   23.4087 C   0  0  0  0  0  0  0  0  0  0  0  0
    9.2497    1.9782   21.7555 N   0  0  0  0  0  0  0  0  0  0  0  0
   11.8829    0.6901   24.2219 N   0  0  0  0  0  0  0  0  0  0  0  0
    9.8582   -0.0984   25.2622 N   0  0  0  0  0  0  0  0  0  0  0  0
    8.0535   -1.4385   21.7036 N   0  0  0  0  0  0  0  0  0  0  0  0
    7.2306   -3.6350   21.5951 O   0  0  0  0  0  0  0  0  0  0  0  0
    9.8003    0.5942   25.9959 H   0  0  0  0  0  0  0  0  0  0  0  0
    8.6521   -0.8479   22.2772 H   0  0  0  0  0  0  0  0  0  0  0  0
  1 10  1  0  0  0  0
  1 17  3  0  0  0  0
  2  3  1  0  0  0  0
  2  5  2  0  0  0  0
  3  7  2  0  0  0  0
  4  6  2  0  0  0  0
  4  8  1  0  0  0  0
  5 10  1  0  0  0  0
  6 11  1  0  0  0  0
  7 13  1  0  0  0  0
  8 18  2  0  0  0  0
  9 12  2  0  0  0  0
  9 19  1  0  0  0  0
 10 13  2  0  0  0  0
 11 12  1  0  0  0  0
 11 14  2  0  0  0  0
 12 16  1  0  0  0  0
 13 20  1  0  0  0  0
 14 18  1  0  0  0  0
 14 19  1  0  0  0  0
 15 16  1  0  0  0  0
 15 20  1  0  0  0  0
 15 21  2  0  0  0  0
 19 22  1  0  0  0  0
 20 23  1  0  0  0  0
M  END

> <original SMILES>

N#Cc1ccccc1NC(=O)Cc1c[nH]c2ncccc12

> <ref_mols>

x0072_0,x0305_0,x0387_0,x0434_0,x0678_0,x0830_0,x1249_0

> <ref_pdb>

receptors/Mpro-x0072-protein.pdb

> <Chemgauss4>

-8.30554

> <binding_free_energy>

-7.178780928910868

> <binding_std_error>

0.9930699190439966

$$$$
GUZ-UNI-5a173832-3
  -OEChem-05122002103D

 23 25  0     0  0  0  0  0  0999 V2000
    4.0858   -6.6026   28.1053 C   0  0  0  0  0  0  0  0  0  0  0  0
   12.1516    5.5399   23.7412 C   0  0  0  0  0  0  0  0  0  0  0  0
    4.4318   -5.5207   27.2608 C   0  0  0  0  0  0  0  0  0  0  0  0
   11.4965    4.3063   23.9697 C   0  0  0  0  0  0  0  0  0  0  0  0
    5.2028   -7.4018   28.1792 C   0  0  0  0  0  0  0  0  0  0  0  0
   13.0940    5.2976   22.7690 C   0  0  0  0  0  0  0  0  0  0  0  0
    5.7357   -5.7359   26.8792 C   0  0  0  0  0  0  0  0  0  0  0  0
   12.0850    3.3982   23.1206 C   0  0  0  0  0  0  0  0  0  0  0  0
    9.3708   -2.1859   23.8516 C   0  0  0  0  0  0  0  0  0  0  0  0
    8.5337   -2.9574   24.8218 C   0  0  0  0  0  0  0  0  0  0  0  0
    9.5554   -0.7305   24.1441 C   0  0  0  0  0  0  0  0  0  0  0  0
    6.5581   -4.8911   25.9957 C   0  0  0  0  0  0  0  0  0  0  0  0
   11.7587    1.9687   22.9775 C   0  0  0  0  0  0  0  0  0  0  0  0
    8.5803   -4.2965   24.7573 C   0  0  0  0  0  0  0  0  0  0  0  0
   10.5140   -0.0769   23.4710 C   0  0  0  0  0  0  0  0  0  0  0  0
    7.8231   -5.1580   25.6343 C   0  0  0  0  0  0  0  0  0  0  0  0
   10.7959    1.3268   23.6581 C   0  0  0  0  0  0  0  0  0  0  0  0
    7.6984   -2.2376   25.8392 C   0  0  0  0  0  0  0  0  0  0  0  0
    8.7036   -0.0523   25.1761 C   0  0  0  0  0  0  0  0  0  0  0  0
    8.3856   -0.9760   26.3440 C   0  0  0  0  0  0  0  0  0  0  0  0
    9.8812   -2.7189   22.8701 O   0  0  0  0  0  0  0  0  0  0  0  0
    6.2130   -6.8804   27.4347 O   0  0  0  0  0  0  0  0  0  0  0  0
   13.0597    3.9945   22.3852 O   0  0  0  0  0  0  0  0  0  0  0  0
  1  3  1  0  0  0  0
  1  5  2  0  0  0  0
  2  4  1  0  0  0  0
  2  6  2  0  0  0  0
  3  7  2  0  0  0  0
  4  8  2  0  0  0  0
  5 22  1  0  0  0  0
  6 23  1  0  0  0  0
  7 12  1  0  0  0  0
  7 22  1  0  0  0  0
  8 13  1  0  0  0  0
  8 23  1  0  0  0  0
  9 10  1  0  0  0  0
  9 11  1  0  0  0  0
  9 21  2  0  0  0  0
 10 14  2  0  0  0  0
 10 18  1  0  0  0  0
 11 15  2  0  0  0  0
 11 19  1  0  0  0  0
 12 16  2  0  0  0  0
 13 17  2  0  0  0  0
 14 16  1  0  0  0  0
 15 17  1  0  0  0  0
 18 20  1  0  0  0  0
 19 20  1  0  0  0  0
M  END

> <original SMILES>

O=C1/C(=C/C=C/c2ccco2)CCC/C1=C\C=C\c1ccco1

> <ref_mols>

x0104_0,x0305_0,x0434_0,x0830_0

> <ref_pdb>

receptors/Mpro-x0434-protein.pdb

> <Chemgauss4>

-3.18235

> <binding_free_energy>

-7.101730080000024

> <binding_std_error>

0.8241059107530868

$$$$
JOH-MEM-5e386bbd-4
  -OEChem-05122002103D

 18 20  0     0  0  0  0  0  0999 V2000
   10.9492   -1.3668   23.5030 C   0  0  0  0  0  0  0  0  0  0  0  0
   11.9620   -1.6809   24.4142 C   0  0  0  0  0  0  0  0  0  0  0  0
   11.0498   -3.9063   24.7623 C   0  0  0  0  0  0  0  0  0  0  0  0
   10.0188   -3.6168   23.8494 C   0  0  0  0  0  0  0  0  0  0  0  0
    8.9125   -4.3195   23.3426 C   0  0  0  0  0  0  0  0  0  0  0  0
    9.9877   -2.3479   23.2345 C   0  0  0  0  0  0  0  0  0  0  0  0
   12.0133   -2.9284   25.0341 C   0  0  0  0  0  0  0  0  0  0  0  0
    8.2634   -3.4989   22.4702 C   0  0  0  0  0  0  0  0  0  0  0  0
    6.3531   -3.4207   20.9935 C   0  0  0  0  0  0  0  0  0  0  0  0
    8.2366   -5.6360   23.4476 C   0  0  0  0  0  0  0  0  0  0  0  0
    7.0279   -5.4634   22.4536 C   0  0  0  0  0  0  0  0  0  0  0  0
    6.3003   -1.9243   21.1751 C   0  0  0  0  0  0  0  0  0  0  0  0
   13.9677   -2.1676   26.1553 C   0  0  0  0  0  0  0  0  0  0  0  0
    8.8880   -2.3058   22.3855 N   0  0  0  0  0  0  0  0  0  0  0  0
    7.1560   -4.0748   21.9034 N   0  0  0  0  0  0  0  0  0  0  0  0
    5.7113   -3.9579   20.0901 O   0  0  0  0  0  0  0  0  0  0  0  0
   13.0150   -3.2013   25.9176 O   0  0  0  0  0  0  0  0  0  0  0  0
    8.6172   -1.5168   21.8137 H   0  0  0  0  0  0  0  0  0  0  0  0
  1  2  2  0  0  0  0
  1  6  1  0  0  0  0
  2  7  1  0  0  0  0
  3  4  1  0  0  0  0
  3  7  2  0  0  0  0
  4  5  1  0  0  0  0
  4  6  2  0  0  0  0
  5  8  2  0  0  0  0
  5 10  1  0  0  0  0
  6 14  1  0  0  0  0
  7 17  1  0  0  0  0
  8 14  1  0  0  0  0
  8 15  1  0  0  0  0
  9 12  1  0  0  0  0
  9 15  1  0  0  0  0
  9 16  2  0  0  0  0
 10 11  1  0  0  0  0
 11 15  1  0  0  0  0
 13 17  1  0  0  0  0
 14 18  1  0  0  0  0
M  END

> <original SMILES>

COc1ccc2[nH]c3c(c2c1)CCN3C(C)=O

> <ref_mols>

x0104_0

> <ref_pdb>

receptors/protein-0387.pdb

> <Chemgauss4>

-5.49479913711548

> <binding_free_energy>

-7.010587171063584

> <binding_std_error>

7.499078244687885

$$$$
ALV-UNI-7ff1a6f9-41
  -OEChem-05122002103D

 23 26  0     0  0  0  0  0  0999 V2000
    8.5560   -5.3979   22.1687 C   0  0  0  0  0  0  0  0  0  0  0  0
    7.3189   -4.2388   23.8901 C   0  0  0  0  0  0  0  0  0  0  0  0
    7.3912   -6.0564   21.7749 C   0  0  0  0  0  0  0  0  0  0  0  0
    6.1540   -4.8973   23.4963 C   0  0  0  0  0  0  0  0  0  0  0  0
    9.9659   -0.5244   21.5960 C   0  0  0  0  0  0  0  0  0  0  0  0
    8.3623   -2.0220   21.4527 C   0  0  0  0  0  0  0  0  0  0  0  0
    8.5199   -4.4891   23.2263 C   0  0  0  0  0  0  0  0  0  0  0  0
    9.5350   -1.7589   22.1176 C   0  0  0  0  0  0  0  0  0  0  0  0
    6.1902   -5.8062   22.4387 C   0  0  0  0  0  0  0  0  0  0  0  0
    9.7162   -3.8130   23.6308 C   0  0  0  0  0  0  0  0  0  0  0  0
   10.1648   -2.6104   23.1434 C   0  0  0  0  0  0  0  0  0  0  0  0
   11.5459   -3.4266   24.6866 C   0  0  0  0  0  0  0  0  0  0  0  0
   13.2953   -1.2587   24.4829 C   0  0  0  0  0  0  0  0  0  0  0  0
   12.1992   -1.2923   23.7180 C   0  0  0  0  0  0  0  0  0  0  0  0
   13.4657   -2.4321   25.3967 C   0  0  0  0  0  0  0  0  0  0  0  0
   14.6943   -2.4181   26.2701 C   0  0  0  0  0  0  0  0  0  0  0  0
    7.0647   -0.7947   19.6946 C   0  0  0  0  0  0  0  0  0  0  0  0
    9.1347   -0.0371   20.6709 N   0  0  0  0  0  0  0  0  0  0  0  0
   10.5700   -4.3107   24.5803 N   0  0  0  0  0  0  0  0  0  0  0  0
   12.6494   -3.4433   25.4914 N   0  0  0  0  0  0  0  0  0  0  0  0
    8.1698   -0.9703   20.6060 N   0  0  0  0  0  0  0  0  0  0  0  0
   11.3315   -2.3649   23.8171 N   0  0  0  0  0  0  0  0  0  0  0  0
    5.0716   -6.4386   22.0604 F   0  0  0  0  0  0  0  0  0  0  0  0
  1  3  2  0  0  0  0
  1  7  1  0  0  0  0
  2  4  1  0  0  0  0
  2  7  2  0  0  0  0
  3  9  1  0  0  0  0
  4  9  2  0  0  0  0
  5  8  1  0  0  0  0
  5 18  2  0  0  0  0
  6  8  2  0  0  0  0
  6 21  1  0  0  0  0
  7 10  1  0  0  0  0
  8 11  1  0  0  0  0
  9 23  1  0  0  0  0
 10 11  2  0  0  0  0
 10 19  1  0  0  0  0
 11 22  1  0  0  0  0
 12 19  2  0  0  0  0
 12 20  1  0  0  0  0
 12 22  1  0  0  0  0
 13 14  2  0  0  0  0
 13 15  1  0  0  0  0
 14 22  1  0  0  0  0
 15 16  1  0  0  0  0
 15 20  2  0  0  0  0
 17 21  1  0  0  0  0
 18 21  1  0  0  0  0
M  END

> <original SMILES>

Cc1ccn2c(-c3cnn(C)c3)c(-c3ccc(F)cc3)nc2n1

> <ref_mols>

x0395_0,x0426_0,x0434_0,x0540_0,x0678_0,x0830_0,x1093_0

> <ref_pdb>

receptors/Mpro-x0426-protein.pdb

> <Chemgauss4>

-4.427262

> <binding_free_energy>

-6.9576524232653085

> <binding_std_error>

0.4217430090699351

$$$$
PAT-UNK-b2d83456-2
  -OEChem-05122002103D

 20 21  0     0  0  0  0  0  0999 V2000
   12.2633    0.7170   24.3270 C   0  0  0  0  0  0  0  0  0  0  0  0
   11.9444    1.8404   24.0464 C   0  0  0  0  0  0  0  0  0  0  0  0
   14.3413   -2.2071   25.3209 C   0  0  0  0  0  0  0  0  0  0  0  0
   13.9682   -0.9028   24.9966 C   0  0  0  0  0  0  0  0  0  0  0  0
   13.3909   -3.2281   25.3079 C   0  0  0  0  0  0  0  0  0  0  0  0
   11.6942   -1.6404   24.6467 C   0  0  0  0  0  0  0  0  0  0  0  0
   12.6446   -0.6194   24.6596 C   0  0  0  0  0  0  0  0  0  0  0  0
   12.0674   -2.9447   24.9709 C   0  0  0  0  0  0  0  0  0  0  0  0
    6.5738   -4.6157   21.7371 C   0  0  0  0  0  0  0  0  0  0  0  0
    7.3440   -3.9955   24.0050 C   0  0  0  0  0  0  0  0  0  0  0  0
    8.6675   -3.2131   22.0791 C   0  0  0  0  0  0  0  0  0  0  0  0
    8.6045   -4.4986   24.6931 C   0  0  0  0  0  0  0  0  0  0  0  0
    9.9491   -3.7031   22.7395 C   0  0  0  0  0  0  0  0  0  0  0  0
   11.5572    3.2082   23.7044 C   0  0  0  0  0  0  0  0  0  0  0  0
    5.8724   -5.8146   22.3240 C   0  0  0  0  0  0  0  0  0  0  0  0
   11.0454   -4.0430   24.9572 C   0  0  0  0  0  0  0  0  0  0  0  0
    7.5093   -3.9791   22.5515 N   0  0  0  0  0  0  0  0  0  0  0  0
    9.7801   -3.6610   24.2418 N   0  3  0  0  0  0  0  0  0  0  0  0
    6.2954   -4.2559   20.5904 O   0  0  0  0  0  0  0  0  0  0  0  0
    9.5805   -2.6850   24.5011 H   0  0  0  0  0  0  0  0  0  0  0  0
  1  2  3  0  0  0  0
  1  7  1  0  0  0  0
  2 14  1  0  0  0  0
  3  4  2  0  0  0  0
  3  5  1  0  0  0  0
  4  7  1  0  0  0  0
  5  8  2  0  0  0  0
  6  7  2  0  0  0  0
  6  8  1  0  0  0  0
  8 16  1  0  0  0  0
  9 15  1  0  0  0  0
  9 17  1  0  0  0  0
  9 19  2  0  0  0  0
 10 12  1  0  0  0  0
 10 17  1  0  0  0  0
 11 13  1  0  0  0  0
 11 17  1  0  0  0  0
 12 18  1  0  0  0  0
 13 18  1  0  0  0  0
 16 18  1  0  0  0  0
 18 20  1  0  0  0  0
M  CHG  1  18   1
M  END

> <original SMILES>

CC#Cc1cccc(CN2CCN(C(C)=O)CC2)c1

> <ref_mols>

x0104_0,x0692_0

> <ref_pdb>

receptors/protein-0387.pdb

> <Chemgauss4>

-4.72107887268066

> <binding_free_energy>

-6.870714120605996

> <binding_std_error>

0.09988927065665491

$$$$
AGN-NEW-891393a6-6
  -OEChem-05122002103D

 25 27  0     0  0  0  0  0  0999 V2000
   11.0303    3.3419   23.5652 C   0  0  0  0  0  0  0  0  0  0  0  0
   14.1500   -2.1665   22.3680 C   0  0  0  0  0  0  0  0  0  0  0  0
    5.3400    1.0640   18.1605 C   0  0  0  0  0  0  0  0  0  0  0  0
   11.9190    2.3017   23.2938 C   0  0  0  0  0  0  0  0  0  0  0  0
    5.6961    1.0963   19.5041 C   0  0  0  0  0  0  0  0  0  0  0  0
   14.3153   -1.3878   23.5133 C   0  0  0  0  0  0  0  0  0  0  0  0
   13.0958   -1.9048   21.4928 C   0  0  0  0  0  0  0  0  0  0  0  0
    9.6718    3.0729   23.7324 C   0  0  0  0  0  0  0  0  0  0  0  0
   10.0908    0.7234   23.3565 C   0  0  0  0  0  0  0  0  0  0  0  0
    6.2989    0.6615   17.2449 C   0  0  0  0  0  0  0  0  0  0  0  0
    7.8674    0.3427   18.8929 C   0  0  0  0  0  0  0  0  0  0  0  0
   11.4493    0.9924   23.1894 C   0  0  0  0  0  0  0  0  0  0  0  0
   12.3721   -0.0858   22.9087 C   0  0  0  0  0  0  0  0  0  0  0  0
    6.9821    0.7304   19.8857 C   0  0  0  0  0  0  0  0  0  0  0  0
   13.4264   -0.3475   23.7837 C   0  0  0  0  0  0  0  0  0  0  0  0
   12.2068   -0.8645   21.7632 C   0  0  0  0  0  0  0  0  0  0  0  0
    9.2021    1.7637   23.6280 C   0  0  0  0  0  0  0  0  0  0  0  0
    7.3904    0.7546   21.3011 C   0  0  0  0  0  0  0  0  0  0  0  0
    6.8830    1.5767   22.2279 C   0  0  0  0  0  0  0  0  0  0  0  0
    7.5579    0.2988   17.5777 N   0  0  0  0  0  0  0  0  0  0  0  0
    7.3535    0.0408   24.2649 O   0  0  0  0  0  0  0  0  0  0  0  0
    6.9386    2.4874   24.6670 O   0  0  0  0  0  0  0  0  0  0  0  0
   13.5993    0.3921   24.8890 F   0  0  0  0  0  0  0  0  0  0  0  0
   11.1970   -0.6274   20.9130 F   0  0  0  0  0  0  0  0  0  0  0  0
    7.5017    1.4275   23.8397 S   0  0  0  0  0  0  0  0  0  0  0  0
  1  4  1  0  0  0  0
  1  8  2  0  0  0  0
  2  6  1  0  0  0  0
  2  7  2  0  0  0  0
  3  5  2  0  0  0  0
  3 10  1  0  0  0  0
  4 12  2  0  0  0  0
  5 14  1  0  0  0  0
  6 15  2  0  0  0  0
  7 16  1  0  0  0  0
  8 17  1  0  0  0  0
  9 12  1  0  0  0  0
  9 17  2  0  0  0  0
 10 20  2  0  0  0  0
 11 14  2  0  0  0  0
 11 20  1  0  0  0  0
 12 13  1  0  0  0  0
 13 15  1  0  0  0  0
 13 16  2  0  0  0  0
 14 18  1  0  0  0  0
 15 23  1  0  0  0  0
 16 24  1  0  0  0  0
 17 25  1  0  0  0  0
 18 19  2  0  0  0  0
 19 25  1  0  0  0  0
 21 25  2  0  0  0  0
 22 25  2  0  0  0  0
M  END

> <original SMILES>

O=S(=O)(/C=C/c1cccnc1)c1cccc(-c2c(F)cccc2F)c1

> <ref_mols>

x0434_0

> <ref_pdb>

receptors/Mpro-x0434-protein.pdb

> <Chemgauss4>

-5.594306

> <binding_free_energy>

-6.705884903809505

> <binding_std_error>

3.1764835819220103

$$$$
CHR-SOS-7098f804-7
  -OEChem-05122002103D

 19 20  0     0  0  0  0  0  0999 V2000
    6.6176   -5.5764   21.6466 C   0  0  0  0  0  0  0  0  0  0  0  0
    7.6304   -6.2072   22.3690 C   0  0  0  0  0  0  0  0  0  0  0  0
    6.6685   -4.1992   21.4311 C   0  0  0  0  0  0  0  0  0  0  0  0
    8.6941   -5.4608   22.8760 C   0  0  0  0  0  0  0  0  0  0  0  0
    7.7322   -3.4528   21.9381 C   0  0  0  0  0  0  0  0  0  0  0  0
   13.7606   -1.9521   25.5257 C   0  0  0  0  0  0  0  0  0  0  0  0
   13.5496   -0.6317   25.1289 C   0  0  0  0  0  0  0  0  0  0  0  0
   11.4010   -1.2501   24.2134 C   0  0  0  0  0  0  0  0  0  0  0  0
   11.6120   -2.5706   24.6102 C   0  0  0  0  0  0  0  0  0  0  0  0
    8.7450   -4.0836   22.6606 C   0  0  0  0  0  0  0  0  0  0  0  0
   12.7918   -2.9216   25.2663 C   0  0  0  0  0  0  0  0  0  0  0  0
   12.3698   -0.2806   24.4727 C   0  0  0  0  0  0  0  0  0  0  0  0
   10.5891   -3.5680   24.3277 C   0  0  0  0  0  0  0  0  0  0  0  0
    9.8263   -3.3252   23.1759 N   0  0  0  0  0  0  0  0  0  0  0  0
   10.3982   -4.5330   25.0791 O   0  0  0  0  0  0  0  0  0  0  0  0
   13.0174   -4.2068   25.6600 O   0  0  0  0  0  0  0  0  0  0  0  0
   12.1087    1.3490   23.9850 Cl  0  0  0  0  0  0  0  0  0  0  0  0
   10.0819   -2.4985   22.6415 H   0  0  0  0  0  0  0  0  0  0  0  0
   12.2651   -4.7682   25.4163 H   0  0  0  0  0  0  0  0  0  0  0  0
  1  2  1  0  0  0  0
  1  3  2  0  0  0  0
  2  4  2  0  0  0  0
  3  5  1  0  0  0  0
  4 10  1  0  0  0  0
  5 10  2  0  0  0  0
  6  7  2  0  0  0  0
  6 11  1  0  0  0  0
  7 12  1  0  0  0  0
  8  9  1  0  0  0  0
  8 12  2  0  0  0  0
  9 11  2  0  0  0  0
  9 13  1  0  0  0  0
 10 14  1  0  0  0  0
 11 16  1  0  0  0  0
 12 17  1  0  0  0  0
 13 14  1  0  0  0  0
 13 15  2  0  0  0  0
 14 18  1  0  0  0  0
 16 19  1  0  0  0  0
M  END

> <original SMILES>

O=C(Nc1ccccc1)c1cc(Cl)ccc1O

> <ref_mols>

x0107_0,x0161_0,x0195_0,x0678_0,x0946_0

> <ref_pdb>

receptors/Mpro-x0195-protein.pdb

> <Chemgauss4>

-8.379775

> <binding_free_energy>

-6.703700405454583

> <binding_std_error>

0.7441064432475145

$$$$
ANN-UNI-26382800-2
  -OEChem-05122002103D

 15 16  0     0  0  0  0  0  0999 V2000
   11.9937    2.2638   23.3236 C   0  0  0  0  0  0  0  0  0  0  0  0
   12.1265    3.6469   23.3735 C   0  0  0  0  0  0  0  0  0  0  0  0
   14.1931    2.1370   22.4275 C   0  0  0  0  0  0  0  0  0  0  0  0
   13.4506   -0.9362   21.9787 C   0  0  0  0  0  0  0  0  0  0  0  0
   12.2266   -1.8624   23.4164 C   0  0  0  0  0  0  0  0  0  0  0  0
   13.0421    1.4872   22.8429 C   0  0  0  0  0  0  0  0  0  0  0  0
   12.9347    0.0528   22.7788 C   0  0  0  0  0  0  0  0  0  0  0  0
   13.3186    4.2001   22.9346 C   0  0  0  0  0  0  0  0  0  0  0  0
   12.3776    6.4873   24.9662 C   0  0  0  0  0  0  0  0  0  0  0  0
   12.3946    6.4537   23.4759 C   0  0  0  0  0  0  0  0  0  0  0  0
   12.9935   -2.1613   22.3923 N   0  0  0  0  0  0  0  0  0  0  0  0
   14.3590    3.4782   22.4611 N   0  0  0  0  0  0  0  0  0  0  0  0
   13.4389    5.6109   22.9919 N   0  0  0  0  0  0  0  0  0  0  0  0
   12.1396   -0.5371   23.7144 O   0  0  0  0  0  0  0  0  0  0  0  0
   14.3021    6.0000   22.6717 H   0  0  0  0  0  0  0  0  0  0  0  0
  1  2  2  0  0  0  0
  1  6  1  0  0  0  0
  2  8  1  0  0  0  0
  3  6  2  0  0  0  0
  3 12  1  0  0  0  0
  4  7  2  0  0  0  0
  4 11  1  0  0  0  0
  5 11  2  0  0  0  0
  5 14  1  0  0  0  0
  6  7  1  0  0  0  0
  7 14  1  0  0  0  0
  8 12  2  0  0  0  0
  8 13  1  0  0  0  0
  9 10  1  0  0  0  0
 10 13  1  0  0  0  0
 13 15  1  0  0  0  0
M  END

> <original SMILES>

CCNc1ccc(-c2cnco2)cn1

> <ref_mols>

x0104_0,x0305_0,x0434_0,x0678_0,x1093_0,x1249_0

> <ref_pdb>

receptors/Mpro-x0678-protein.pdb

> <Chemgauss4>

-4.973998

> <binding_free_energy>

-6.690017299588277

> <binding_std_error>

0.32303603175326256

$$$$
CHR-SOS-7098f804-21
  -OEChem-05122002103D

 18 19  0     0  0  0  0  0  0999 V2000
   11.3191    0.4181   24.5418 C   0  0  0  0  0  0  0  0  0  0  0  0
   10.6445    0.5342   23.3266 C   0  0  0  0  0  0  0  0  0  0  0  0
   12.4412   -0.4046   24.6409 C   0  0  0  0  0  0  0  0  0  0  0  0
    5.8560    0.8801   19.1972 C   0  0  0  0  0  0  0  0  0  0  0  0
   12.2139   -0.9953   22.3092 C   0  0  0  0  0  0  0  0  0  0  0  0
    6.3430    0.6809   17.9155 C   0  0  0  0  0  0  0  0  0  0  0  0
    8.4605    0.2429   18.6918 C   0  0  0  0  0  0  0  0  0  0  0  0
   11.0918   -0.1725   22.2103 C   0  0  0  0  0  0  0  0  0  0  0  0
    8.0727    0.4218   20.0099 C   0  0  0  0  0  0  0  0  0  0  0  0
   12.8886   -1.1113   23.5246 C   0  0  0  0  0  0  0  0  0  0  0  0
    6.7438    0.7462   20.2589 C   0  0  0  0  0  0  0  0  0  0  0  0
   10.3875   -0.0514   20.9439 C   0  0  0  0  0  0  0  0  0  0  0  0
    7.6270    0.3647   17.6344 N   0  0  0  0  0  0  0  0  0  0  0  0
    9.0255    0.2712   21.0489 N   0  0  0  0  0  0  0  0  0  0  0  0
   10.9541   -0.2558   19.8612 O   0  0  0  0  0  0  0  0  0  0  0  0
   14.2735   -2.1259   23.6473 Cl  0  0  0  0  0  0  0  0  0  0  0  0
    6.1588    0.9896   21.8644 Cl  0  0  0  0  0  0  0  0  0  0  0  0
    8.6768    0.4157   21.9932 H   0  0  0  0  0  0  0  0  0  0  0  0
  1  2  2  0  0  0  0
  1  3  1  0  0  0  0
  2  8  1  0  0  0  0
  3 10  2  0  0  0  0
  4  6  2  0  0  0  0
  4 11  1  0  0  0  0
  5  8  2  0  0  0  0
  5 10  1  0  0  0  0
  6 13  1  0  0  0  0
  7  9  1  0  0  0  0
  7 13  2  0  0  0  0
  8 12  1  0  0  0  0
  9 11  2  0  0  0  0
  9 14  1  0  0  0  0
 10 16  1  0  0  0  0
 11 17  1  0  0  0  0
 12 14  1  0  0  0  0
 12 15  2  0  0  0  0
 14 18  1  0  0  0  0
M  END

> <original SMILES>

O=C(Nc1cnccc1Cl)c1cccc(Cl)c1

> <ref_mols>

x0107_0,x0161_0,x0195_0,x0678_0,x0946_0

> <ref_pdb>

receptors/Mpro-x0107-protein.pdb

> <Chemgauss4>

-8.243002

> <binding_free_energy>

-6.657827563917579

> <binding_std_error>

1.7999735698165853

$$$$
MAR-UNI-9d4da90d-5
  -OEChem-05122002103D

 20 21  0     0  0  0  0  0  0999 V2000
   11.2828   -2.0200   22.8006 C   0  0  0  0  0  0  0  0  0  0  0  0
   12.2960    0.0519   23.3815 C   0  0  0  0  0  0  0  0  0  0  0  0
   12.2903   -1.0853   22.5898 C   0  0  0  0  0  0  0  0  0  0  0  0
   10.3252   -1.7923   23.7827 C   0  0  0  0  0  0  0  0  0  0  0  0
   10.4189   -0.6236   24.5210 C   0  0  0  0  0  0  0  0  0  0  0  0
    7.6610   -5.3531   25.0183 C   0  0  0  0  0  0  0  0  0  0  0  0
    9.0971   -4.2833   26.7995 C   0  0  0  0  0  0  0  0  0  0  0  0
    8.8349   -5.2939   24.0469 C   0  0  0  0  0  0  0  0  0  0  0  0
   10.2627   -4.2323   25.8181 C   0  0  0  0  0  0  0  0  0  0  0  0
    8.1174   -5.4105   26.4748 C   0  0  0  0  0  0  0  0  0  0  0  0
   13.3288   -1.2983   21.5466 C   0  0  0  0  0  0  0  0  0  0  0  0
    9.2393   -2.8029   24.0069 C   0  0  0  0  0  0  0  0  0  0  0  0
   11.3829    0.3077   24.3451 N   0  0  0  0  0  0  0  0  0  0  0  0
    9.4450   -0.3873   25.5234 N   0  0  0  0  0  0  0  0  0  0  0  0
    9.7660   -4.1583   24.3948 N   0  3  0  0  0  0  0  0  0  0  0  0
    8.7411   -6.6721   26.7075 O   0  0  0  0  0  0  0  0  0  0  0  0
    8.7007   -1.0406   25.6341 H   0  0  0  0  0  0  0  0  0  0  0  0
    9.4740    0.4711   26.0288 H   0  0  0  0  0  0  0  0  0  0  0  0
   10.6254   -4.3028   23.7881 H   0  0  0  0  0  0  0  0  0  0  0  0
    8.0734   -7.3513   26.5214 H   0  0  0  0  0  0  0  0  0  0  0  0
  1  3  2  0  0  0  0
  1  4  1  0  0  0  0
  2  3  1  0  0  0  0
  2 13  2  0  0  0  0
  3 11  1  0  0  0  0
  4  5  2  0  0  0  0
  4 12  1  0  0  0  0
  5 13  1  0  0  0  0
  5 14  1  0  0  0  0
  6  8  1  0  0  0  0
  6 10  1  0  0  0  0
  7  9  1  0  0  0  0
  7 10  1  0  0  0  0
  8 15  1  0  0  0  0
  9 15  1  0  0  0  0
 10 16  1  0  0  0  0
 12 15  1  0  0  0  0
 14 17  1  0  0  0  0
 14 18  1  0  0  0  0
 15 19  1  0  0  0  0
 16 20  1  0  0  0  0
M  CHG  1  15   1
M  END

> <original SMILES>

Cc1cnc(N)c(CN2CCC(O)CC2)c1

> <ref_mols>

x0072_0,x0305_0,x0387_0

> <ref_pdb>

receptors/Mpro-x0305-protein.pdb

> <Chemgauss4>

-4.109579

> <binding_free_energy>

-6.587034133709977

> <binding_std_error>

6.125403540323066

$$$$
ALV-UNI-7ff1a6f9-37
  -OEChem-05122002103D

 23 26  0     0  0  0  0  0  0999 V2000
   11.7069    0.7811   22.4483 C   0  0  0  0  0  0  0  0  0  0  0  0
   11.8801   -1.4185   21.4641 C   0  0  0  0  0  0  0  0  0  0  0  0
   12.9217    0.5832   23.1045 C   0  0  0  0  0  0  0  0  0  0  0  0
   13.0950   -1.6165   22.1203 C   0  0  0  0  0  0  0  0  0  0  0  0
    8.6079   -0.7191   23.8257 C   0  0  0  0  0  0  0  0  0  0  0  0
    7.8371    1.5275   23.4475 C   0  0  0  0  0  0  0  0  0  0  0  0
    8.2620   -0.5561   25.1574 C   0  0  0  0  0  0  0  0  0  0  0  0
    7.5255    1.5899   24.7962 C   0  0  0  0  0  0  0  0  0  0  0  0
   11.1860   -0.2198   21.6281 C   0  0  0  0  0  0  0  0  0  0  0  0
    8.3882    0.3473   22.9609 C   0  0  0  0  0  0  0  0  0  0  0  0
   13.6158   -0.6155   22.9405 C   0  0  0  0  0  0  0  0  0  0  0  0
    9.9388   -0.0167   20.9546 C   0  0  0  0  0  0  0  0  0  0  0  0
    8.7315    0.2293   21.5605 C   0  0  0  0  0  0  0  0  0  0  0  0
    8.5323    0.1814   19.3440 C   0  0  0  0  0  0  0  0  0  0  0  0
    5.7872    0.6902   19.4299 C   0  0  0  0  0  0  0  0  0  0  0  0
    6.4759    0.6074   20.5729 C   0  0  0  0  0  0  0  0  0  0  0  0
    6.5978    0.4937   18.1868 C   0  0  0  0  0  0  0  0  0  0  0  0
    5.8446    0.5833   16.8845 C   0  0  0  0  0  0  0  0  0  0  0  0
    7.7246    0.5750   25.6668 N   0  0  0  0  0  0  0  0  0  0  0  0
    9.8103   -0.0450   19.5906 N   0  0  0  0  0  0  0  0  0  0  0  0
    7.8784    0.2563   18.1471 N   0  0  0  0  0  0  0  0  0  0  0  0
    7.8354    0.3554   20.5329 N   0  0  0  0  0  0  0  0  0  0  0  0
   14.7824   -0.8055   23.5707 F   0  0  0  0  0  0  0  0  0  0  0  0
  1  3  2  0  0  0  0
  1  9  1  0  0  0  0
  2  4  1  0  0  0  0
  2  9  2  0  0  0  0
  3 11  1  0  0  0  0
  4 11  2  0  0  0  0
  5  7  2  0  0  0  0
  5 10  1  0  0  0  0
  6  8  1  0  0  0  0
  6 10  2  0  0  0  0
  7 19  1  0  0  0  0
  8 19  2  0  0  0  0
  9 12  1  0  0  0  0
 10 13  1  0  0  0  0
 11 23  1  0  0  0  0
 12 13  2  0  0  0  0
 12 20  1  0  0  0  0
 13 22  1  0  0  0  0
 14 20  2  0  0  0  0
 14 21  1  0  0  0  0
 14 22  1  0  0  0  0
 15 16  2  0  0  0  0
 15 17  1  0  0  0  0
 16 22  1  0  0  0  0
 17 18  1  0  0  0  0
 17 21  2  0  0  0  0
M  END

> <original SMILES>

Cc1ccn2c(-c3ccncc3)c(-c3ccc(F)cc3)nc2n1

> <ref_mols>

x0395_0,x0426_0,x0434_0,x0540_0,x0678_0,x0830_0,x1093_0

> <ref_pdb>

receptors/Mpro-x0540-protein.pdb

> <Chemgauss4>

-6.404988

> <binding_free_energy>

-6.5759164199999995

> <binding_std_error>

0.13236056843447513

$$$$
CHR-SOS-7098f804-9
  -OEChem-05122002103D

 16 17  0     0  0  0  0  0  0999 V2000
   13.2620   -0.9261   26.0126 C   0  0  0  0  0  0  0  0  0  0  0  0
    6.6245   -5.7891   21.8768 C   0  0  0  0  0  0  0  0  0  0  0  0
   13.7232   -2.2382   25.9070 C   0  0  0  0  0  0  0  0  0  0  0  0
   11.9537   -0.6147   25.6423 C   0  0  0  0  0  0  0  0  0  0  0  0
    7.5484   -6.4127   22.7153 C   0  0  0  0  0  0  0  0  0  0  0  0
    6.7108   -4.4168   21.6421 C   0  0  0  0  0  0  0  0  0  0  0  0
   12.8762   -3.2390   25.4309 C   0  0  0  0  0  0  0  0  0  0  0  0
   11.1067   -1.6155   25.1662 C   0  0  0  0  0  0  0  0  0  0  0  0
    8.5586   -5.6640   23.3191 C   0  0  0  0  0  0  0  0  0  0  0  0
    7.7209   -3.6681   22.2459 C   0  0  0  0  0  0  0  0  0  0  0  0
   11.5679   -2.9277   25.0605 C   0  0  0  0  0  0  0  0  0  0  0  0
    8.6449   -4.2917   23.0844 C   0  0  0  0  0  0  0  0  0  0  0  0
   10.6849   -3.9711   24.5641 C   0  0  0  0  0  0  0  0  0  0  0  0
    9.6718   -3.5310   23.6982 N   0  0  0  0  0  0  0  0  0  0  0  0
   10.8094   -5.1521   24.9171 O   0  0  0  0  0  0  0  0  0  0  0  0
    9.6748   -2.5370   23.4829 H   0  0  0  0  0  0  0  0  0  0  0  0
  1  3  1  0  0  0  0
  1  4  2  0  0  0  0
  2  5  1  0  0  0  0
  2  6  2  0  0  0  0
  3  7  2  0  0  0  0
  4  8  1  0  0  0  0
  5  9  2  0  0  0  0
  6 10  1  0  0  0  0
  7 11  1  0  0  0  0
  8 11  2  0  0  0  0
  9 12  1  0  0  0  0
 10 12  2  0  0  0  0
 11 13  1  0  0  0  0
 12 14  1  0  0  0  0
 13 14  1  0  0  0  0
 13 15  2  0  0  0  0
 14 16  1  0  0  0  0
M  END

> <original SMILES>

O=C(Nc1ccccc1)c1ccccc1

> <ref_mols>

x0107_0,x0161_0,x0195_0,x0678_0,x0946_0

> <ref_pdb>

receptors/Mpro-x0107-protein.pdb

> <Chemgauss4>

-5.549275

> <binding_free_energy>

-6.5671978934693875

> <binding_std_error>

0.2717356412947095

$$$$
ALV-UNI-7ff1a6f9-36
  -OEChem-05122002103D

 24 27  0     0  0  0  0  0  0999 V2000
   10.8958   -2.1344   22.4073 C   0  0  0  0  0  0  0  0  0  0  0  0
   11.9035   -0.1561   21.4544 C   0  0  0  0  0  0  0  0  0  0  0  0
   12.1294   -2.5049   22.9426 C   0  0  0  0  0  0  0  0  0  0  0  0
   13.1371   -0.5266   21.9897 C   0  0  0  0  0  0  0  0  0  0  0  0
    8.9458   -0.1164   24.2822 C   0  0  0  0  0  0  0  0  0  0  0  0
   10.7828   -0.9600   21.6631 C   0  0  0  0  0  0  0  0  0  0  0  0
    8.3187   -0.3163   21.8147 C   0  0  0  0  0  0  0  0  0  0  0  0
   13.2500   -1.7011   22.7338 C   0  0  0  0  0  0  0  0  0  0  0  0
    9.5080   -0.5772   21.1097 C   0  0  0  0  0  0  0  0  0  0  0  0
    8.0620   -0.3625   23.2600 C   0  0  0  0  0  0  0  0  0  0  0  0
    7.4075    0.0031   20.8379 C   0  0  0  0  0  0  0  0  0  0  0  0
    8.1877   -0.2986   25.4544 C   0  0  0  0  0  0  0  0  0  0  0  0
    6.0465    0.3682   20.8052 C   0  0  0  0  0  0  0  0  0  0  0  0
    5.4645    0.6162   19.6256 C   0  0  0  0  0  0  0  0  0  0  0  0
    6.3111    0.4870   18.4020 C   0  0  0  0  0  0  0  0  0  0  0  0
    8.6436   -0.1600   26.8479 C   0  0  0  0  0  0  0  0  0  0  0  0
    5.6333    0.7703   17.0867 C   0  0  0  0  0  0  0  0  0  0  0  0
    9.3719   -0.4366   19.7887 N   0  0  0  0  0  0  0  0  0  0  0  0
    6.9199   -0.6343   25.2015 N   0  0  0  0  0  0  0  0  0  0  0  0
    7.5683    0.1526   18.3959 N   0  0  0  0  0  0  0  0  0  0  0  0
    6.8745   -0.6649   23.8588 N   0  0  0  0  0  0  0  0  0  0  0  0
    8.0781   -0.0807   19.6359 N   0  0  0  0  0  0  0  0  0  0  0  0
   14.4346   -2.0570   23.2479 F   0  0  0  0  0  0  0  0  0  0  0  0
    5.9952   -0.9006   23.4152 H   0  0  0  0  0  0  0  0  0  0  0  0
  1  3  2  0  0  0  0
  1  6  1  0  0  0  0
  2  4  1  0  0  0  0
  2  6  2  0  0  0  0
  3  8  1  0  0  0  0
  4  8  2  0  0  0  0
  5 10  2  0  0  0  0
  5 12  1  0  0  0  0
  6  9  1  0  0  0  0
  7  9  1  0  0  0  0
  7 10  1  0  0  0  0
  7 11  2  0  0  0  0
  8 23  1  0  0  0  0
  9 18  2  0  0  0  0
 10 21  1  0  0  0  0
 11 13  1  0  0  0  0
 11 22  1  0  0  0  0
 12 16  1  0  0  0  0
 12 19  2  0  0  0  0
 13 14  2  0  0  0  0
 14 15  1  0  0  0  0
 15 17  1  0  0  0  0
 15 20  2  0  0  0  0
 18 22  1  0  0  0  0
 19 21  1  0  0  0  0
 20 22  1  0  0  0  0
 21 24  1  0  0  0  0
M  END

> <original SMILES>

Cc1cc(-c2c(-c3ccc(F)cc3)nn3nc(C)ccc23)[nH]n1

> <ref_mols>

x0395_0,x0426_0,x0434_0,x0540_0,x0678_0,x0830_0,x1093_0

> <ref_pdb>

receptors/Mpro-x0426-protein.pdb

> <Chemgauss4>

-6.752863

> <binding_free_energy>

-6.55935451130298

> <binding_std_error>

0.14956220925517755

$$$$
VIR-GIT-7b3d3065-3
  -OEChem-05122002103D

 17 17  0     0  0  0  0  0  0999 V2000
   11.1551   -3.3998   24.3285 C   0  0  0  0  0  0  0  0  0  0  0  0
    6.8273   -5.0451   22.1785 C   0  0  0  0  0  0  0  0  0  0  0  0
    8.7528   -2.7810   24.1351 C   0  0  0  0  0  0  0  0  0  0  0  0
    9.4238   -5.1689   24.6924 C   0  0  0  0  0  0  0  0  0  0  0  0
    8.4386   -3.2459   22.7142 C   0  0  0  0  0  0  0  0  0  0  0  0
    9.0705   -5.5637   23.2578 C   0  0  0  0  0  0  0  0  0  0  0  0
    9.7719   -3.6840   24.8373 C   0  0  0  0  0  0  0  0  0  0  0  0
   14.1534   -2.2116   25.7501 C   0  0  0  0  0  0  0  0  0  0  0  0
   13.2043   -0.5467   24.1151 C   0  0  0  0  0  0  0  0  0  0  0  0
   11.2945   -1.6156   26.0730 C   0  0  0  0  0  0  0  0  0  0  0  0
    6.1945   -6.2758   22.7776 C   0  0  0  0  0  0  0  0  0  0  0  0
   13.2133   -1.9979   24.5726 C   0  0  0  0  0  0  0  0  0  0  0  0
    8.0600   -4.6583   22.7026 N   0  0  0  0  0  0  0  0  0  0  0  0
   11.8591   -2.3780   24.9668 N   0  0  0  0  0  0  0  0  0  0  0  0
   11.5998   -4.0659   23.3899 O   0  0  0  0  0  0  0  0  0  0  0  0
    6.2410   -4.4458   21.2733 O   0  0  0  0  0  0  0  0  0  0  0  0
    5.9916   -5.9522   24.4957 Cl  0  0  0  0  0  0  0  0  0  0  0  0
  1  7  1  0  0  0  0
  1 14  1  0  0  0  0
  1 15  2  0  0  0  0
  2 11  1  0  0  0  0
  2 13  1  0  0  0  0
  2 16  2  0  0  0  0
  3  5  1  0  0  0  0
  3  7  1  0  0  0  0
  4  6  1  0  0  0  0
  4  7  1  0  0  0  0
  5 13  1  0  0  0  0
  6 13  1  0  0  0  0
  8 12  1  0  0  0  0
  9 12  1  0  0  0  0
 10 14  1  0  0  0  0
 11 17  1  0  0  0  0
 12 14  1  0  0  0  0
M  END

> <original SMILES>

CC(C)N(C)C(=O)C1CCN(C(=O)CCl)CC1

> <ref_mols>

x1380_0,x1458_0

> <ref_pdb>

receptors/Mpro-x1458_0.pdb

> <Chemgauss4>

-3.390148

> <binding_free_energy>

-6.537067234141439

> <binding_std_error>

0.21326654784645543

$$$$
DAR-DIA-43a5904b-7
  -OEChem-05122002103D

 24 26  0     1  0  0  0  0  0999 V2000
   14.0465   -2.0049   25.0920 C   0  0  0  0  0  0  0  0  0  0  0  0
   13.0614   -2.6183   25.8657 C   0  0  0  0  0  0  0  0  0  0  0  0
   13.6906   -1.0548   24.1346 C   0  0  0  0  0  0  0  0  0  0  0  0
    6.8058   -6.9755   22.6854 C   0  0  0  0  0  0  0  0  0  0  0  0
    7.6831   -6.0063   22.1992 C   0  0  0  0  0  0  0  0  0  0  0  0
   11.7202   -2.2818   25.6822 C   0  0  0  0  0  0  0  0  0  0  0  0
   12.3494   -0.7183   23.9511 C   0  0  0  0  0  0  0  0  0  0  0  0
    5.8782   -6.6441   23.6731 C   0  0  0  0  0  0  0  0  0  0  0  0
    6.7056   -4.3742   23.6884 C   0  0  0  0  0  0  0  0  0  0  0  0
    7.6331   -4.7057   22.7006 C   0  0  0  0  0  0  0  0  0  0  0  0
   11.3642   -1.3318   24.7249 C   0  0  0  0  0  0  0  0  0  0  0  0
    5.8281   -5.3434   24.1746 C   0  0  0  0  0  0  0  0  0  0  0  0
    9.4970   -3.1021   23.2376 C   0  0  0  0  0  0  0  0  0  0  0  0
    9.2381   -1.8174   23.5123 C   0  0  0  0  0  0  0  0  0  0  0  0
    6.5473   -2.4994   21.1195 C   0  0  0  0  0  0  0  0  0  0  0  0
    8.1154   -1.2853   22.6773 C   0  0  0  0  0  0  0  0  0  0  0  0
    8.5877   -3.6533   22.1726 C   0  0  2  0  0  0  0  0  0  0  0  0
    7.9610   -2.3614   21.5957 C   0  0  1  0  0  0  0  0  0  0  0  0
    9.9141   -0.9676   24.5257 C   0  0  0  0  0  0  0  0  0  0  0  0
    6.0293   -1.3463   20.5786 N   0  0  0  0  0  0  0  0  0  0  0  0
    5.9322   -3.5599   21.1991 O   0  0  0  0  0  0  0  0  0  0  0  0
    4.6843   -4.9353   25.3939 Cl  0  0  0  0  0  0  0  0  0  0  0  0
    6.6160   -0.5193   20.5420 H   0  0  0  0  0  0  0  0  0  0  0  0
    5.0837   -1.2892   20.2146 H   0  0  0  0  0  0  0  0  0  0  0  0
  1  2  1  0  0  0  0
  1  3  2  0  0  0  0
  2  6  2  0  0  0  0
  3  7  1  0  0  0  0
  4  5  2  0  0  0  0
  4  8  1  0  0  0  0
  5 10  1  0  0  0  0
  6 11  1  0  0  0  0
  7 11  2  0  0  0  0
  8 12  2  0  0  0  0
  9 10  2  0  0  0  0
  9 12  1  0  0  0  0
 10 17  1  0  0  0  0
 11 19  1  0  0  0  0
 12 22  1  0  0  0  0
 13 14  2  0  0  0  0
 13 17  1  0  0  0  0
 14 16  1  0  0  0  0
 14 19  1  0  0  0  0
 15 18  1  0  0  0  0
 15 20  1  0  0  0  0
 15 21  2  0  0  0  0
 16 18  1  0  0  0  0
 17 18  1  0  0  0  0
 20 23  1  0  0  0  0
 20 24  1  0  0  0  0
M  END

> <original SMILES>

NC(=O)[C@H]1CC(Cc2ccccc2)=C[C@H]1c1cccc(Cl)c1

> <ref_mols>

x0874_0

> <ref_pdb>

receptors/protein-0387.pdb

> <Chemgauss4>

-6.95997047424316

> <binding_free_energy>

-6.387749359999999

> <binding_std_error>

0.1638341427159249

$$$$
MIH-UNI-6b9ca91a-5
  -OEChem-05122002103D

 19 20  0     0  0  0  0  0  0999 V2000
    6.4130   -2.4970   21.3024 C   0  0  0  0  0  0  0  0  0  0  0  0
    6.9443   -6.0912   22.1121 C   0  0  0  0  0  0  0  0  0  0  0  0
    6.4183   -4.9299   21.5460 C   0  0  0  0  0  0  0  0  0  0  0  0
    8.0045   -6.0087   23.0148 C   0  0  0  0  0  0  0  0  0  0  0  0
   12.1799   -3.6757   25.4196 C   0  0  0  0  0  0  0  0  0  0  0  0
   11.3042   -1.4353   25.1950 C   0  0  0  0  0  0  0  0  0  0  0  0
   13.4284   -3.1538   25.7580 C   0  0  0  0  0  0  0  0  0  0  0  0
   12.5527   -0.9133   25.5334 C   0  0  0  0  0  0  0  0  0  0  0  0
    8.0130   -3.6036   22.7851 C   0  0  0  0  0  0  0  0  0  0  0  0
    6.9527   -3.6862   21.8824 C   0  0  0  0  0  0  0  0  0  0  0  0
    8.5389   -4.7649   23.3512 C   0  0  0  0  0  0  0  0  0  0  0  0
   11.1178   -2.8165   25.1381 C   0  0  0  0  0  0  0  0  0  0  0  0
   13.6148   -1.7726   25.8149 C   0  0  0  0  0  0  0  0  0  0  0  0
    9.6726   -4.6770   24.3162 C   0  0  0  0  0  0  0  0  0  0  0  0
    5.9745   -1.5312   20.8314 N   0  0  0  0  0  0  0  0  0  0  0  0
    9.8761   -3.3356   24.8015 N   0  0  0  0  0  0  0  0  0  0  0  0
   14.8331   -1.2634   26.1450 O   0  0  0  0  0  0  0  0  0  0  0  0
    9.0651   -2.7333   24.9026 H   0  0  0  0  0  0  0  0  0  0  0  0
   14.8041   -0.2933   26.1420 H   0  0  0  0  0  0  0  0  0  0  0  0
  1 10  1  0  0  0  0
  1 15  3  0  0  0  0
  2  3  2  0  0  0  0
  2  4  1  0  0  0  0
  3 10  1  0  0  0  0
  4 11  2  0  0  0  0
  5  7  2  0  0  0  0
  5 12  1  0  0  0  0
  6  8  1  0  0  0  0
  6 12  2  0  0  0  0
  7 13  1  0  0  0  0
  8 13  2  0  0  0  0
  9 10  2  0  0  0  0
  9 11  1  0  0  0  0
 11 14  1  0  0  0  0
 12 16  1  0  0  0  0
 13 17  1  0  0  0  0
 14 16  1  0  0  0  0
 16 18  1  0  0  0  0
 17 19  1  0  0  0  0
M  END

> <original SMILES>

N#Cc1cccc(CNc2ccc(O)cc2)c1

> <ref_mols>

x0072_0,x0107_0,x0161_0,x0305_0,x0387_0,x0434_0,x0874_0

> <ref_pdb>

receptors/protein-0387.pdb

> <Chemgauss4>

-5.4286036491394

> <binding_free_energy>

-6.296374684040394

> <binding_std_error>

3.7830654187939112

$$$$
JOH-MSK-a63bdd1d-10
  -OEChem-05122002103D

 16 17  0     0  0  0  0  0  0999 V2000
   14.6996   -0.7161   22.5456 C   0  0  0  0  0  0  0  0  0  0  0  0
   14.1285   -1.9675   22.7679 C   0  0  0  0  0  0  0  0  0  0  0  0
   13.9210    0.4459   22.5965 C   0  0  0  0  0  0  0  0  0  0  0  0
   12.7652   -2.0983   23.0474 C   0  0  0  0  0  0  0  0  0  0  0  0
   10.3345    0.5755   23.2897 C   0  0  0  0  0  0  0  0  0  0  0  0
   12.5442    0.3389   22.8766 C   0  0  0  0  0  0  0  0  0  0  0  0
   11.4823    1.2777   23.0027 C   0  0  0  0  0  0  0  0  0  0  0  0
   11.9992   -0.9282   23.0951 C   0  0  0  0  0  0  0  0  0  0  0  0
   12.6021    5.4209   23.3626 C   0  0  0  0  0  0  0  0  0  0  0  0
   14.0847    5.2503   21.3692 C   0  0  0  0  0  0  0  0  0  0  0  0
   11.5818    2.7438   22.8530 C   0  0  0  0  0  0  0  0  0  0  0  0
   12.8833    3.2349   22.2033 C   0  0  0  0  0  0  0  0  0  0  0  0
   10.6564   -0.7541   23.3437 N   0  0  0  0  0  0  0  0  0  0  0  0
   12.8533    4.7110   22.0549 N   0  3  0  0  0  0  0  0  0  0  0  0
   10.0032   -1.5006   23.5377 H   0  0  0  0  0  0  0  0  0  0  0  0
   12.0559    4.9511   21.4413 H   0  0  0  0  0  0  0  0  0  0  0  0
  1  2  1  0  0  0  0
  1  3  2  0  0  0  0
  2  4  2  0  0  0  0
  3  6  1  0  0  0  0
  4  8  1  0  0  0  0
  5  7  2  0  0  0  0
  5 13  1  0  0  0  0
  6  7  1  0  0  0  0
  6  8  2  0  0  0  0
  7 11  1  0  0  0  0
  8 13  1  0  0  0  0
  9 14  1  0  0  0  0
 10 14  1  0  0  0  0
 11 12  1  0  0  0  0
 12 14  1  0  0  0  0
 13 15  1  0  0  0  0
 14 16  1  0  0  0  0
M  CHG  1  14   1
M  END

> <original SMILES>

CN(C)CCc1c[nH]c2ccccc12

> <ref_mols>

x0104_0

> <ref_pdb>

receptors/protein-0387.pdb

> <Chemgauss4>

-5.55167675018311

> <binding_free_energy>

-6.220470288287616

> <binding_std_error>

0.8627347942966102

$$$$
WAR-XCH-b6889685-27
  -OEChem-05122002103D

 27 29  0     0  0  0  0  0  0999 V2000
   13.2810   -1.4108   23.7214 C   0  0  0  0  0  0  0  0  0  0  0  0
   13.1821   -0.2606   24.5041 C   0  0  0  0  0  0  0  0  0  0  0  0
    5.8799   -4.5477   26.0154 C   0  0  0  0  0  0  0  0  0  0  0  0
    8.0726   -5.5345   26.2503 C   0  0  0  0  0  0  0  0  0  0  0  0
   12.2139   -1.7960   22.9098 C   0  0  0  0  0  0  0  0  0  0  0  0
    5.4249   -5.3010   27.0975 C   0  0  0  0  0  0  0  0  0  0  0  0
    7.6176   -6.2879   27.3325 C   0  0  0  0  0  0  0  0  0  0  0  0
   10.9490    0.1193   23.6639 C   0  0  0  0  0  0  0  0  0  0  0  0
   12.0161    0.5045   24.4754 C   0  0  0  0  0  0  0  0  0  0  0  0
    7.2037   -4.6645   25.5917 C   0  0  0  0  0  0  0  0  0  0  0  0
   11.0479   -1.0310   22.8811 C   0  0  0  0  0  0  0  0  0  0  0  0
    6.2937   -6.1711   27.7561 C   0  0  0  0  0  0  0  0  0  0  0  0
    8.1719   -1.6687   23.6904 C   0  0  0  0  0  0  0  0  0  0  0  0
    9.4847   -3.6593   22.9082 C   0  0  0  0  0  0  0  0  0  0  0  0
    7.0837   -2.6052   24.2166 C   0  0  0  0  0  0  0  0  0  0  0  0
    8.3747   -4.5721   23.4230 C   0  0  0  0  0  0  0  0  0  0  0  0
    8.9321   -2.2873   22.5163 C   0  0  0  0  0  0  0  0  0  0  0  0
   11.9106    1.7338   25.3129 C   0  0  0  0  0  0  0  0  0  0  0  0
    7.6534   -3.9211   24.5235 N   0  0  0  0  0  0  0  0  0  0  0  0
    6.0617   -6.0568   30.4090 N   0  0  0  0  0  0  0  0  0  0  0  0
    9.9909   -1.4125   22.0767 N   0  0  0  0  0  0  0  0  0  0  0  0
    4.2817   -7.2671   28.9905 O   0  0  0  0  0  0  0  0  0  0  0  0
    6.5684   -8.2951   29.2385 O   0  0  0  0  0  0  0  0  0  0  0  0
    5.7249   -7.1149   29.1104 S   0  0  0  0  0  0  0  0  0  0  0  0
    5.2692   -5.5995   30.8760 H   0  0  0  0  0  0  0  0  0  0  0  0
    6.8320   -6.3018   31.0430 H   0  0  0  0  0  0  0  0  0  0  0  0
    9.9511   -1.0652   21.1284 H   0  0  0  0  0  0  0  0  0  0  0  0
  1  2  2  0  0  0  0
  1  5  1  0  0  0  0
  2  9  1  0  0  0  0
  3  6  2  0  0  0  0
  3 10  1  0  0  0  0
  4  7  1  0  0  0  0
  4 10  2  0  0  0  0
  5 11  2  0  0  0  0
  6 12  1  0  0  0  0
  7 12  2  0  0  0  0
  8  9  2  0  0  0  0
  8 11  1  0  0  0  0
  9 18  1  0  0  0  0
 10 19  1  0  0  0  0
 11 21  1  0  0  0  0
 12 24  1  0  0  0  0
 13 15  1  0  0  0  0
 13 17  1  0  0  0  0
 14 16  1  0  0  0  0
 14 17  1  0  0  0  0
 15 19  1  0  0  0  0
 16 19  1  0  0  0  0
 17 21  1  0  0  0  0
 20 24  1  0  0  0  0
 22 24  2  0  0  0  0
 23 24  2  0  0  0  0
 20 25  1  0  0  0  0
 20 26  1  0  0  0  0
 21 27  1  0  0  0  0
M  END

> <original SMILES>

Cc1cccc(NC2CCN(c3ccc(S(N)(=O)=O)cc3)CC2)c1

> <ref_mols>

x0072_0,x0104_0,x0107_0,x0161_0,x0165_0

> <ref_pdb>

receptors/Mpro-x0165-protein.pdb

> <Chemgauss4>

0.075671

> <binding_free_energy>

-6.1892740387629175

> <binding_std_error>

1.1994384549471966

$$$$
ALV-UNI-7ff1a6f9-46
  -OEChem-05122002103D

 25 27  0     0  0  0  0  0  0999 V2000
    8.4856    7.9617   24.1432 C   0  0  0  0  0  0  0  0  0  0  0  0
    7.9206    7.4239   22.9907 C   0  0  0  0  0  0  0  0  0  0  0  0
    9.7112    7.4844   24.6085 C   0  0  0  0  0  0  0  0  0  0  0  0
    8.5790    6.4067   22.2991 C   0  0  0  0  0  0  0  0  0  0  0  0
   11.6223    5.9686   24.3791 C   0  0  0  0  0  0  0  0  0  0  0  0
   12.2806    4.9514   23.6876 C   0  0  0  0  0  0  0  0  0  0  0  0
   13.3014   -2.6295   24.2096 C   0  0  0  0  0  0  0  0  0  0  0  0
   10.4900    4.8907   22.0696 C   0  0  0  0  0  0  0  0  0  0  0  0
   12.0435   -0.7994   23.2861 C   0  0  0  0  0  0  0  0  0  0  0  0
   14.4295   -1.8304   24.1167 C   0  0  0  0  0  0  0  0  0  0  0  0
   10.3879    6.4611   23.9251 C   0  0  0  0  0  0  0  0  0  0  0  0
    9.8133    5.9141   22.7531 C   0  0  0  0  0  0  0  0  0  0  0  0
   11.7156    4.4135   22.5350 C   0  0  0  0  0  0  0  0  0  0  0  0
   12.0896   -2.0967   23.7843 C   0  0  0  0  0  0  0  0  0  0  0  0
   13.2278   -0.0822   23.2347 C   0  0  0  0  0  0  0  0  0  0  0  0
   12.0497    1.9202   22.2612 C   0  0  0  0  0  0  0  0  0  0  0  0
   12.4211    3.3262   21.7969 C   0  0  0  0  0  0  0  0  0  0  0  0
   10.8450   -2.9137   23.8623 C   0  0  0  0  0  0  0  0  0  0  0  0
   14.4239   -0.5659   23.6385 N   0  0  0  0  0  0  0  0  0  0  0  0
   13.1708    1.2374   22.7263 N   0  0  0  0  0  0  0  0  0  0  0  0
   10.8969    1.5042   22.2049 O   0  0  0  0  0  0  0  0  0  0  0  0
   11.0424   -4.1660   24.3715 F   0  0  0  0  0  0  0  0  0  0  0  0
    9.8748   -2.3594   24.6483 F   0  0  0  0  0  0  0  0  0  0  0  0
   10.2630   -3.1030   22.6420 F   0  0  0  0  0  0  0  0  0  0  0  0
   14.0517    1.7465   22.6971 H   0  0  0  0  0  0  0  0  0  0  0  0
  1  2  1  0  0  0  0
  1  3  2  0  0  0  0
  2  4  2  0  0  0  0
  3 11  1  0  0  0  0
  4 12  1  0  0  0  0
  5  6  2  0  0  0  0
  5 11  1  0  0  0  0
  6 13  1  0  0  0  0
  7 10  2  0  0  0  0
  7 14  1  0  0  0  0
  8 12  1  0  0  0  0
  8 13  2  0  0  0  0
  9 14  2  0  0  0  0
  9 15  1  0  0  0  0
 10 19  1  0  0  0  0
 11 12  2  0  0  0  0
 13 17  1  0  0  0  0
 14 18  1  0  0  0  0
 15 19  2  0  0  0  0
 15 20  1  0  0  0  0
 16 17  1  0  0  0  0
 16 20  1  0  0  0  0
 16 21  2  0  0  0  0
 18 22  1  0  0  0  0
 18 23  1  0  0  0  0
 18 24  1  0  0  0  0
 20 25  1  0  0  0  0
M  END

> <original SMILES>

O=C(Cc1ccc2ccccc2c1)Nc1cc(C(F)(F)F)ccn1

> <ref_mols>

x0395_0,x0426_0,x0434_0,x0540_0,x0678_0,x0830_0,x1093_0

> <ref_pdb>

receptors/Mpro-x0540-protein.pdb

> <Chemgauss4>

-0.698857

> <binding_free_energy>

-6.149201989728045

> <binding_std_error>

0.21096586925858324

$$$$
DAV-AUT-7eb4e0c3-2
  -OEChem-05122002103D

 21 23  0     1  0  0  0  0  0999 V2000
   11.6497    1.5950   24.4855 C   0  0  0  0  0  0  0  0  0  0  0  0
   10.9662    2.8091   24.5831 C   0  0  0  0  0  0  0  0  0  0  0  0
   13.1022    2.4727   22.7235 C   0  0  0  0  0  0  0  0  0  0  0  0
   12.4183    3.6662   22.8312 C   0  0  0  0  0  0  0  0  0  0  0  0
   12.7067    1.4284   23.5663 C   0  0  0  0  0  0  0  0  0  0  0  0
   11.3801    3.8209   23.7466 C   0  0  0  0  0  0  0  0  0  0  0  0
   12.6120    4.9236   22.0779 C   0  0  0  0  0  0  0  0  0  0  0  0
   12.2441   -2.8150   23.8939 C   0  0  0  0  0  0  0  0  0  0  0  0
   13.7373   -2.8501   24.1686 C   0  0  0  0  0  0  0  0  0  0  0  0
   12.7620   -0.8307   22.4536 C   0  0  0  0  0  0  0  0  0  0  0  0
   14.2434   -1.6434   24.9515 C   0  0  0  0  0  0  0  0  0  0  0  0
   13.4236    0.0937   23.4905 C   0  0  2  0  0  0  0  0  0  0  0  0
   10.4179   -1.6481   22.6923 C   0  0  0  0  0  0  0  0  0  0  0  0
   11.1746    6.2200   25.1410 C   0  0  0  0  0  0  0  0  0  0  0  0
   11.6809    5.9239   22.4964 N   0  0  0  0  0  0  0  0  0  0  0  0
   11.8225   -1.7859   23.0465 N   0  0  0  0  0  0  0  0  0  0  0  0
   13.4740    5.0330   21.2190 O   0  0  0  0  0  0  0  0  0  0  0  0
   11.5015   -3.6578   24.3992 O   0  0  0  0  0  0  0  0  0  0  0  0
    9.2730    5.3109   23.5613 O   0  0  0  0  0  0  0  0  0  0  0  0
   13.4553   -0.4695   24.8035 O   0  0  0  0  0  0  0  0  0  0  0  0
   10.7143    5.4354   23.6219 S   0  0  1  0  0  0  0  0  0  0  0  0
  1  2  2  0  0  0  0
  1  5  1  0  0  0  0
  2  6  1  0  0  0  0
  3  4  1  0  0  0  0
  3  5  2  0  0  0  0
  4  6  2  0  0  0  0
  4  7  1  0  0  0  0
  5 12  1  0  0  0  0
  6 21  1  0  0  0  0
  7 15  1  0  0  0  0
  7 17  2  0  0  0  0
  8  9  1  0  0  0  0
  8 16  1  0  0  0  0
  8 18  2  0  0  0  0
  9 11  1  0  0  0  0
 10 12  1  0  0  0  0
 10 16  1  0  0  0  0
 11 20  1  0  0  0  0
 12 20  1  0  0  0  0
 13 16  1  0  0  0  0
 14 21  1  0  0  0  0
 15 21  2  0  0  0  0
 19 21  2  0  0  0  0
M  END

> <original SMILES>

CN1C[C@@H](c2ccc3c(c2)C(=O)N=[S@]3(C)=O)OCCC1=O

> <ref_mols>

x0161_0,x0305_0

> <ref_pdb>

receptors/Mpro-x0161_0.pdb

> <Chemgauss4>

-9.5307

> <binding_free_energy>

-6.009451880392158

> <binding_std_error>

0.04090280000000002

$$$$
JOH-MSK-a63bdd1d-8
  -OEChem-05122002103D

 18 20  0     0  0  0  0  0  0999 V2000
   11.7297   -0.5875   23.5773 C   0  0  0  0  0  0  0  0  0  0  0  0
   12.6554   -1.4998   23.0633 C   0  0  0  0  0  0  0  0  0  0  0  0
   13.9848    0.2959   22.1130 C   0  0  0  0  0  0  0  0  0  0  0  0
   13.0667    1.2365   22.6218 C   0  0  0  0  0  0  0  0  0  0  0  0
   12.9714    2.6551   22.5848 C   0  0  0  0  0  0  0  0  0  0  0  0
   11.9586    0.7729   23.3414 C   0  0  0  0  0  0  0  0  0  0  0  0
   13.7661   -1.0671   22.3421 C   0  0  0  0  0  0  0  0  0  0  0  0
   11.8255    3.0080   23.2650 C   0  0  0  0  0  0  0  0  0  0  0  0
   13.8521    3.6785   21.9501 C   0  0  0  0  0  0  0  0  0  0  0  0
   11.3499    4.3914   23.4834 C   0  0  0  0  0  0  0  0  0  0  0  0
   13.6061    5.0744   22.5455 C   0  0  0  0  0  0  0  0  0  0  0  0
   15.7670   -1.4745   21.1230 C   0  0  0  0  0  0  0  0  0  0  0  0
   11.2208    1.8748   23.7222 N   0  0  0  0  0  0  0  0  0  0  0  0
   12.1233    5.3555   22.6080 N   0  3  0  0  0  0  0  0  0  0  0  0
   14.6512   -1.9807   21.8523 O   0  0  0  0  0  0  0  0  0  0  0  0
   10.3647    1.8414   24.2588 H   0  0  0  0  0  0  0  0  0  0  0  0
   11.7400    5.3259   21.6528 H   0  0  0  0  0  0  0  0  0  0  0  0
   11.9674    6.3164   22.9420 H   0  0  0  0  0  0  0  0  0  0  0  0
  1  2  2  0  0  0  0
  1  6  1  0  0  0  0
  2  7  1  0  0  0  0
  3  4  1  0  0  0  0
  3  7  2  0  0  0  0
  4  5  1  0  0  0  0
  4  6  2  0  0  0  0
  5  8  2  0  0  0  0
  5  9  1  0  0  0  0
  6 13  1  0  0  0  0
  7 15  1  0  0  0  0
  8 10  1  0  0  0  0
  8 13  1  0  0  0  0
  9 11  1  0  0  0  0
 10 14  1  0  0  0  0
 11 14  1  0  0  0  0
 12 15  1  0  0  0  0
 13 16  1  0  0  0  0
 14 17  1  0  0  0  0
 14 18  1  0  0  0  0
M  CHG  1  14   1
M  END

> <original SMILES>

COc1ccc2[nH]c3c(c2c1)CCNC3

> <ref_mols>

x0104_0

> <ref_pdb>

receptors/Mpro-x0104_0.pdb

> <Chemgauss4>

-7.830074

> <binding_free_energy>

-6.000477115384584

> <binding_std_error>

0.0

$$$$
DAR-DIA-23aa0b97-1
  -OEChem-05122002103D

 23 25  0     0  0  0  0  0  0999 V2000
    6.0614   -2.9882   19.5855 C   0  0  0  0  0  0  0  0  0  0  0  0
    6.9145   -3.7532   23.1271 C   0  0  0  0  0  0  0  0  0  0  0  0
    9.2109    1.5922   25.6047 C   0  0  0  0  0  0  0  0  0  0  0  0
    6.2185   -3.6997   21.9196 C   0  0  0  0  0  0  0  0  0  0  0  0
    9.9240    0.6151   24.9125 C   0  0  0  0  0  0  0  0  0  0  0  0
    8.1669   -3.1489   23.2377 C   0  0  0  0  0  0  0  0  0  0  0  0
    8.0272   -2.4378   20.9330 C   0  0  0  0  0  0  0  0  0  0  0  0
    9.6824    2.8981   25.5915 C   0  0  0  0  0  0  0  0  0  0  0  0
   12.9886    1.3179   23.0539 C   0  0  0  0  0  0  0  0  0  0  0  0
    6.7748   -3.0421   20.8225 C   0  0  0  0  0  0  0  0  0  0  0  0
   11.0889    1.0099   24.2351 C   0  0  0  0  0  0  0  0  0  0  0  0
   12.0723    0.3636   23.4402 C   0  0  0  0  0  0  0  0  0  0  0  0
    8.7232   -2.4912   22.1406 C   0  0  0  0  0  0  0  0  0  0  0  0
   11.4466    2.3531   24.3054 C   0  0  0  0  0  0  0  0  0  0  0  0
   10.8183   -1.8333   23.3746 C   0  0  0  0  0  0  0  0  0  0  0  0
   12.1153   -1.0694   23.0864 C   0  0  0  0  0  0  0  0  0  0  0  0
    5.4820   -2.9444   18.5810 N   0  0  0  0  0  0  0  0  0  0  0  0
   10.7957    3.3347   24.9579 N   0  0  0  0  0  0  0  0  0  0  0  0
   12.5996    2.5205   23.5845 N   0  0  0  0  0  0  0  0  0  0  0  0
    9.9932   -1.8771   22.2536 N   0  0  0  0  0  0  0  0  0  0  0  0
   10.5973   -2.3195   24.4791 O   0  0  0  0  0  0  0  0  0  0  0  0
   13.0886    3.3966   23.4640 H   0  0  0  0  0  0  0  0  0  0  0  0
   10.3445   -1.4135   21.4182 H   0  0  0  0  0  0  0  0  0  0  0  0
  1 10  1  0  0  0  0
  1 17  3  0  0  0  0
  2  4  2  0  0  0  0
  2  6  1  0  0  0  0
  3  5  2  0  0  0  0
  3  8  1  0  0  0  0
  4 10  1  0  0  0  0
  5 11  1  0  0  0  0
  6 13  2  0  0  0  0
  7 10  2  0  0  0  0
  7 13  1  0  0  0  0
  8 18  2  0  0  0  0
  9 12  2  0  0  0  0
  9 19  1  0  0  0  0
 11 12  1  0  0  0  0
 11 14  2  0  0  0  0
 12 16  1  0  0  0  0
 13 20  1  0  0  0  0
 14 18  1  0  0  0  0
 14 19  1  0  0  0  0
 15 16  1  0  0  0  0
 15 20  1  0  0  0  0
 15 21  2  0  0  0  0
 19 22  1  0  0  0  0
 20 23  1  0  0  0  0
M  END

> <original SMILES>

N#Cc1cccc(NC(=O)Cc2c[nH]c3ncccc23)c1

> <ref_mols>

x0104_0,x0305_0,x0434_0,x0678_0,x0995_0,x1093_0,x1249_0

> <ref_pdb>

receptors/Mpro-x1249-protein.pdb

> <Chemgauss4>

-5.25837

> <binding_free_energy>

-5.970168172981396

> <binding_std_error>

1.2580561301543787

$$$$
ALV-UNI-7ff1a6f9-43
  -OEChem-05122002103D

 22 25  0     0  0  0  0  0  0999 V2000
   14.5604   -1.2404   23.9956 C   0  0  0  0  0  0  0  0  0  0  0  0
   13.5761   -0.2726   24.1626 C   0  0  0  0  0  0  0  0  0  0  0  0
    9.8116   -1.4546   25.2687 C   0  0  0  0  0  0  0  0  0  0  0  0
    8.2755   -1.0746   23.4430 C   0  0  0  0  0  0  0  0  0  0  0  0
    9.1556   -2.6474   25.5724 C   0  0  0  0  0  0  0  0  0  0  0  0
    7.6195   -2.2675   23.7467 C   0  0  0  0  0  0  0  0  0  0  0  0
   14.3429   -2.2303   23.0509 C   0  0  0  0  0  0  0  0  0  0  0  0
   12.2992   -1.3545   22.4729 C   0  0  0  0  0  0  0  0  0  0  0  0
    9.3715   -0.6681   24.2040 C   0  0  0  0  0  0  0  0  0  0  0  0
   12.4208   -0.3236   23.3906 C   0  0  0  0  0  0  0  0  0  0  0  0
    8.0595   -3.0539   24.8114 C   0  0  0  0  0  0  0  0  0  0  0  0
   10.0453    0.5575   23.8922 C   0  0  0  0  0  0  0  0  0  0  0  0
   11.3810    0.6664   23.5407 C   0  0  0  0  0  0  0  0  0  0  0  0
   10.3672    2.6093   23.5747 C   0  0  0  0  0  0  0  0  0  0  0  0
   12.5962    2.8326   22.9828 C   0  0  0  0  0  0  0  0  0  0  0  0
   12.2042    4.1199   22.9338 C   0  0  0  0  0  0  0  0  0  0  0  0
   13.0434    5.2968   22.5842 C   0  0  0  0  0  0  0  0  0  0  0  0
   13.2337   -2.3127   22.2825 N   0  0  0  0  0  0  0  0  0  0  0  0
    9.4128    1.7868   23.9114 N   0  0  0  0  0  0  0  0  0  0  0  0
   11.5620    2.0008   23.3413 N   0  0  0  0  0  0  0  0  0  0  0  0
    7.4296   -4.1995   25.1031 F   0  0  0  0  0  0  0  0  0  0  0  0
   10.4819    4.3267   23.3471 S   0  0  0  0  0  0  0  0  0  0  0  0
  1  2  2  0  0  0  0
  1  7  1  0  0  0  0
  2 10  1  0  0  0  0
  3  5  2  0  0  0  0
  3  9  1  0  0  0  0
  4  6  1  0  0  0  0
  4  9  2  0  0  0  0
  5 11  1  0  0  0  0
  6 11  2  0  0  0  0
  7 18  2  0  0  0  0
  8 10  2  0  0  0  0
  8 18  1  0  0  0  0
  9 12  1  0  0  0  0
 10 13  1  0  0  0  0
 11 21  1  0  0  0  0
 12 13  2  0  0  0  0
 12 19  1  0  0  0  0
 13 20  1  0  0  0  0
 14 19  2  0  0  0  0
 14 20  1  0  0  0  0
 14 22  1  0  0  0  0
 15 16  2  0  0  0  0
 15 20  1  0  0  0  0
 16 17  1  0  0  0  0
 16 22  1  0  0  0  0
M  END

> <original SMILES>

Cc1cn2c(-c3cccnc3)c(-c3ccc(F)cc3)nc2s1

> <ref_mols>

x0395_0,x0426_0,x0434_0,x0540_0,x0678_0,x0830_0,x1093_0

> <ref_pdb>

receptors/Mpro-x0540-protein.pdb

> <Chemgauss4>

-4.088367

> <binding_free_energy>

-5.905066077148398

> <binding_std_error>

1.9734233951916944

$$$$
SUN-DEP-1496052a-2
  -OEChem-05122002103D

 12 12  0     1  0  0  0  0  0999 V2000
   11.3658    2.1019   24.0682 C   0  0  0  0  0  0  0  0  0  0  0  0
   12.0728    3.0517   23.4325 C   0  0  0  0  0  0  0  0  0  0  0  0
   11.6555    0.6302   23.9669 C   0  0  0  0  0  0  0  0  0  0  0  0
   13.2633    2.7177   22.5705 C   0  0  0  0  0  0  0  0  0  0  0  0
   13.7732    1.2833   22.7556 C   0  0  0  0  0  0  0  0  0  0  0  0
   12.6234    0.2698   22.8260 C   0  0  1  0  0  0  0  0  0  0  0  0
   11.7198    4.5061   23.5367 C   0  0  0  0  0  0  0  0  0  0  0  0
   12.0022   -2.1540   23.0333 C   0  0  0  0  0  0  0  0  0  0  0  0
   14.1412   -1.4992   21.8932 C   0  0  0  0  0  0  0  0  0  0  0  0
   13.1543   -1.1534   23.0048 C   0  0  0  0  0  0  0  0  0  0  0  0
   11.8898    0.3047   21.5969 O   0  0  0  0  0  0  0  0  0  0  0  0
   11.1818   -0.3491   21.6869 H   0  0  0  0  0  0  0  0  0  0  0  0
  1  2  2  0  0  0  0
  1  3  1  0  0  0  0
  2  4  1  0  0  0  0
  2  7  1  0  0  0  0
  3  6  1  0  0  0  0
  4  5  1  0  0  0  0
  5  6  1  0  0  0  0
  6 10  1  0  0  0  0
  6 11  1  0  0  0  0
  8 10  1  0  0  0  0
  9 10  1  0  0  0  0
 11 12  1  0  0  0  0
M  END

> <original SMILES>

CC1=CCC(O)(C(C)C)CC1

> <ref_mols>

x0072_0,x0104_0,x0107_0

> <ref_pdb>

receptors/Mpro-x0072-protein.pdb

> <Chemgauss4>

-6.083421

> <binding_free_energy>

-5.768152543443218

> <binding_std_error>

2.0326165848754423

$$$$
TRY-UNI-1fd04853-10
  -OEChem-05122002103D

 24 26  0     0  0  0  0  0  0999 V2000
   11.6203    0.8480   24.5351 C   0  0  0  0  0  0  0  0  0  0  0  0
    7.3841   -2.4546   20.7635 C   0  0  0  0  0  0  0  0  0  0  0  0
    8.1125   -3.2916   21.6069 C   0  0  0  0  0  0  0  0  0  0  0  0
   13.4414   -0.7339   24.1480 C   0  0  0  0  0  0  0  0  0  0  0  0
   11.4590   -1.4684   25.2947 C   0  0  0  0  0  0  0  0  0  0  0  0
    6.1017   -2.8343   20.3909 C   0  0  0  0  0  0  0  0  0  0  0  0
   13.9374   -2.0192   24.2950 C   0  0  0  0  0  0  0  0  0  0  0  0
    6.8125   -6.4523   22.8954 C   0  0  0  0  0  0  0  0  0  0  0  0
   12.1778   -0.4614   24.6602 C   0  0  0  0  0  0  0  0  0  0  0  0
    7.5030   -4.4817   22.0358 C   0  0  0  0  0  0  0  0  0  0  0  0
    7.8738   -5.5735   22.8647 C   0  0  0  0  0  0  0  0  0  0  0  0
   12.0437   -2.7209   25.3902 C   0  0  0  0  0  0  0  0  0  0  0  0
    6.2114   -4.7383   21.5851 C   0  0  0  0  0  0  0  0  0  0  0  0
    9.5027   -4.6169   24.5406 C   0  0  0  0  0  0  0  0  0  0  0  0
    9.1597   -5.7463   23.5696 C   0  0  0  0  0  0  0  0  0  0  0  0
   11.2970   -3.8327   26.0689 C   0  0  0  0  0  0  0  0  0  0  0  0
   11.1675    1.9117   24.4335 N   0  0  0  0  0  0  0  0  0  0  0  0
   13.2687   -3.0234   24.9050 N   0  0  0  0  0  0  0  0  0  0  0  0
    5.4656   -3.9662   20.7723 N   0  0  0  0  0  0  0  0  0  0  0  0
    5.8101   -5.9360   22.1157 N   0  0  0  0  0  0  0  0  0  0  0  0
   10.7533   -4.7764   25.1205 N   0  0  0  0  0  0  0  0  0  0  0  0
    8.7379   -3.6816   24.7618 O   0  0  0  0  0  0  0  0  0  0  0  0
    4.9128   -6.3722   21.9551 H   0  0  0  0  0  0  0  0  0  0  0  0
   11.3082   -5.5889   24.8680 H   0  0  0  0  0  0  0  0  0  0  0  0
  1  9  1  0  0  0  0
  1 17  3  0  0  0  0
  2  3  2  0  0  0  0
  2  6  1  0  0  0  0
  3 10  1  0  0  0  0
  4  7  2  0  0  0  0
  4  9  1  0  0  0  0
  5  9  2  0  0  0  0
  5 12  1  0  0  0  0
  6 19  2  0  0  0  0
  7 18  1  0  0  0  0
  8 11  2  0  0  0  0
  8 20  1  0  0  0  0
 10 11  1  0  0  0  0
 10 13  2  0  0  0  0
 11 15  1  0  0  0  0
 12 16  1  0  0  0  0
 12 18  2  0  0  0  0
 13 19  1  0  0  0  0
 13 20  1  0  0  0  0
 14 15  1  0  0  0  0
 14 21  1  0  0  0  0
 14 22  2  0  0  0  0
 16 21  1  0  0  0  0
 20 23  1  0  0  0  0
 21 24  1  0  0  0  0
M  END

> <original SMILES>

N#Cc1ccnc(CNC(=O)Cc2c[nH]c3ncccc23)c1

> <ref_mols>

x0104_0,x0161_0,x0195_0,x0305_0,x0387_0,x0678_0,x1382_0

> <ref_pdb>

receptors/Mpro-x0678_0.pdb

> <Chemgauss4>

-11.323847

> <binding_free_energy>

-5.712723204040344

> <binding_std_error>

1.0497004040404079

$$$$
CHR-SOS-7098f804-8
  -OEChem-05122002103D

 17 18  0     0  0  0  0  0  0999 V2000
   13.9608   -1.3976   25.7418 C   0  0  0  0  0  0  0  0  0  0  0  0
   13.5425   -2.6818   26.0902 C   0  0  0  0  0  0  0  0  0  0  0  0
   13.2615   -0.6744   24.7754 C   0  0  0  0  0  0  0  0  0  0  0  0
    7.4684   -6.2824   22.1366 C   0  0  0  0  0  0  0  0  0  0  0  0
    8.5691   -5.9874   22.9409 C   0  0  0  0  0  0  0  0  0  0  0  0
   12.4249   -3.2429   25.4722 C   0  0  0  0  0  0  0  0  0  0  0  0
   12.1440   -1.2356   24.1574 C   0  0  0  0  0  0  0  0  0  0  0  0
    6.6696   -5.2513   21.6421 C   0  0  0  0  0  0  0  0  0  0  0  0
    8.0724   -3.6302   22.7563 C   0  0  0  0  0  0  0  0  0  0  0  0
    8.8711   -4.6614   23.2507 C   0  0  0  0  0  0  0  0  0  0  0  0
   11.7257   -2.5198   24.5058 C   0  0  0  0  0  0  0  0  0  0  0  0
    6.9716   -3.9252   21.9519 C   0  0  0  0  0  0  0  0  0  0  0  0
   10.0185   -4.3548   24.0898 C   0  0  0  0  0  0  0  0  0  0  0  0
   10.5898   -3.0903   23.8779 N   0  0  0  0  0  0  0  0  0  0  0  0
   10.4685   -5.1742   24.9028 O   0  0  0  0  0  0  0  0  0  0  0  0
    5.9859   -2.6534   21.3410 Cl  0  0  0  0  0  0  0  0  0  0  0  0
   10.1288   -2.5075   23.1836 H   0  0  0  0  0  0  0  0  0  0  0  0
  1  2  1  0  0  0  0
  1  3  2  0  0  0  0
  2  6  2  0  0  0  0
  3  7  1  0  0  0  0
  4  5  2  0  0  0  0
  4  8  1  0  0  0  0
  5 10  1  0  0  0  0
  6 11  1  0  0  0  0
  7 11  2  0  0  0  0
  8 12  2  0  0  0  0
  9 10  2  0  0  0  0
  9 12  1  0  0  0  0
 10 13  1  0  0  0  0
 11 14  1  0  0  0  0
 12 16  1  0  0  0  0
 13 14  1  0  0  0  0
 13 15  2  0  0  0  0
 14 17  1  0  0  0  0
M  END

> <original SMILES>

O=C(Nc1ccccc1)c1cccc(Cl)c1

> <ref_mols>

x0107_0,x0161_0,x0195_0,x0678_0,x0946_0

> <ref_pdb>

receptors/Mpro-x0107-protein.pdb

> <Chemgauss4>

-5.652315

> <binding_free_energy>

-5.686312448686868

> <binding_std_error>

0.6795267369912339

$$$$
JOH-MSK-ec639444-4
  -OEChem-05122002103D

 19 21  0     1  0  0  0  0  0999 V2000
   10.0954    0.9709   24.7710 C   0  0  0  0  0  0  0  0  0  0  0  0
   10.9084    1.8320   24.0149 C   0  0  0  0  0  0  0  0  0  0  0  0
   10.2229   -0.4142   24.6510 C   0  0  0  0  0  0  0  0  0  0  0  0
   11.8578    1.3188   23.1270 C   0  0  0  0  0  0  0  0  0  0  0  0
   11.9808   -0.0546   23.0258 C   0  0  0  0  0  0  0  0  0  0  0  0
   11.1764   -0.8985   23.7769 C   0  0  0  0  0  0  0  0  0  0  0  0
   12.1426    5.8040   23.9814 C   0  0  0  0  0  0  0  0  0  0  0  0
   12.8436   -0.8622   22.1366 C   0  0  0  0  0  0  0  0  0  0  0  0
   14.2212    2.1368   22.3387 C   0  0  0  0  0  0  0  0  0  0  0  0
   12.6541   -2.2295   22.7952 C   0  0  0  0  0  0  0  0  0  0  0  0
   12.7126    2.2504   22.2998 C   0  0  2  0  0  0  0  0  0  0  0  0
   13.5490    3.3139   22.9805 C   0  0  2  0  0  0  0  0  0  0  0  0
   13.1448    6.8558   26.0472 C   0  0  0  0  0  0  0  0  0  0  0  0
   12.1127    6.9793   24.9410 C   0  0  0  0  0  0  0  0  0  0  0  0
   13.6704    4.6694   22.3746 C   0  0  0  0  0  0  0  0  0  0  0  0
   13.3699    5.6960   23.3343 N   0  0  0  0  0  0  0  0  0  0  0  0
   11.1883    5.0497   23.8131 O   0  0  0  0  0  0  0  0  0  0  0  0
   11.4148   -2.2290   23.5430 O   0  0  0  0  0  0  0  0  0  0  0  0
   14.0932    6.3806   23.5524 H   0  0  0  0  0  0  0  0  0  0  0  0
  1  2  2  0  0  0  0
  1  3  1  0  0  0  0
  2  4  1  0  0  0  0
  3  6  2  0  0  0  0
  4  5  2  0  0  0  0
  4 11  1  0  0  0  0
  5  6  1  0  0  0  0
  5  8  1  0  0  0  0
  6 18  1  0  0  0  0
  7 14  1  0  0  0  0
  7 16  1  0  0  0  0
  7 17  2  0  0  0  0
  8 10  1  0  0  0  0
  9 11  1  0  0  0  0
  9 12  1  0  0  0  0
 10 18  1  0  0  0  0
 11 12  1  0  0  0  0
 12 15  1  0  0  0  0
 13 14  1  0  0  0  0
 15 16  1  0  0  0  0
 16 19  1  0  0  0  0
M  END

> <original SMILES>

CCC(=O)NC[C@@H]1C[C@H]1c1cccc2c1CCO2

> <ref_mols>

x0104_0

> <ref_pdb>

receptors/protein-0387.pdb

> <Chemgauss4>

-4.76919651031494

> <binding_free_energy>

-5.6319111303548866

> <binding_std_error>

2.2688646750034693

$$$$
AGN-NEW-c7b24fe3-5
  -OEChem-05122002103D

 20 21  0     0  0  0  0  0  0999 V2000
    7.9368    4.8069   21.7535 C   0  0  0  0  0  0  0  0  0  0  0  0
    8.7464    5.3113   22.4828 C   0  0  0  0  0  0  0  0  0  0  0  0
   13.8200   -1.2028   23.0236 C   0  0  0  0  0  0  0  0  0  0  0  0
   11.4184    7.1947   25.0476 C   0  0  0  0  0  0  0  0  0  0  0  0
   13.5898   -0.0278   22.3081 C   0  0  0  0  0  0  0  0  0  0  0  0
   11.8345    6.0297   24.4129 C   0  0  0  0  0  0  0  0  0  0  0  0
   13.3789   -1.3143   24.3422 C   0  0  0  0  0  0  0  0  0  0  0  0
   12.4775    0.9244   24.2298 C   0  0  0  0  0  0  0  0  0  0  0  0
   10.1382    7.6549   24.7845 C   0  0  0  0  0  0  0  0  0  0  0  0
    9.7097    5.9114   23.3511 C   0  0  0  0  0  0  0  0  0  0  0  0
   12.9186    1.0358   22.9112 C   0  0  0  0  0  0  0  0  0  0  0  0
   10.9698    5.3697   23.5468 C   0  0  0  0  0  0  0  0  0  0  0  0
   12.7077   -0.2506   24.9453 C   0  0  0  0  0  0  0  0  0  0  0  0
   12.6250    3.5471   23.0141 C   0  0  0  0  0  0  0  0  0  0  0  0
   12.6738    2.2924   22.1460 C   0  0  0  0  0  0  0  0  0  0  0  0
    9.2700    7.0410   23.9496 N   0  0  0  0  0  0  0  0  0  0  0  0
   11.3919    4.1841   22.8993 N   0  0  0  0  0  0  0  0  0  0  0  0
   13.5807    3.8964   23.6995 O   0  0  0  0  0  0  0  0  0  0  0  0
   12.1647   -0.3883   26.5726 Cl  0  0  0  0  0  0  0  0  0  0  0  0
   10.7156    3.7461   22.2774 H   0  0  0  0  0  0  0  0  0  0  0  0
  1  2  3  0  0  0  0
  2 10  1  0  0  0  0
  3  5  2  0  0  0  0
  3  7  1  0  0  0  0
  4  6  2  0  0  0  0
  4  9  1  0  0  0  0
  5 11  1  0  0  0  0
  6 12  1  0  0  0  0
  7 13  2  0  0  0  0
  8 11  2  0  0  0  0
  8 13  1  0  0  0  0
  9 16  2  0  0  0  0
 10 12  2  0  0  0  0
 10 16  1  0  0  0  0
 11 15  1  0  0  0  0
 12 17  1  0  0  0  0
 13 19  1  0  0  0  0
 14 15  1  0  0  0  0
 14 17  1  0  0  0  0
 14 18  2  0  0  0  0
 17 20  1  0  0  0  0
M  END

> <original SMILES>

C#Cc1ncccc1NC(=O)Cc1cccc(Cl)c1

> <ref_mols>

x0434_0

> <ref_pdb>

receptors/protein-0387.pdb

> <Chemgauss4>

-4.59582710266113

> <binding_free_energy>

-5.614677419654612

> <binding_std_error>

6.308498802991085

$$$$
ALV-UNI-7ff1a6f9-5
  -OEChem-05122002103D

 23 26  0     0  0  0  0  0  0999 V2000
   14.5902   -1.1151   23.6349 C   0  0  0  0  0  0  0  0  0  0  0  0
   13.6402   -0.1442   23.9320 C   0  0  0  0  0  0  0  0  0  0  0  0
    9.9451   -1.3419   25.4438 C   0  0  0  0  0  0  0  0  0  0  0  0
    8.2346   -0.8815   23.8009 C   0  0  0  0  0  0  0  0  0  0  0  0
    9.2876   -2.5199   25.7983 C   0  0  0  0  0  0  0  0  0  0  0  0
    7.5771   -2.0595   24.1553 C   0  0  0  0  0  0  0  0  0  0  0  0
   14.2600   -2.0800   22.6970 C   0  0  0  0  0  0  0  0  0  0  0  0
   12.1741   -1.1749   22.3686 C   0  0  0  0  0  0  0  0  0  0  0  0
    9.4186   -0.5227   24.4451 C   0  0  0  0  0  0  0  0  0  0  0  0
   12.4065   -0.1676   23.2912 C   0  0  0  0  0  0  0  0  0  0  0  0
   11.4062    0.8192   23.5766 C   0  0  0  0  0  0  0  0  0  0  0  0
    8.1036   -2.8787   25.1541 C   0  0  0  0  0  0  0  0  0  0  0  0
   10.0980    0.6948   24.0790 C   0  0  0  0  0  0  0  0  0  0  0  0
   11.5721    2.1700   23.3910 C   0  0  0  0  0  0  0  0  0  0  0  0
   12.6062    3.0073   22.9260 C   0  0  0  0  0  0  0  0  0  0  0  0
   12.4058    4.3299   22.8803 C   0  0  0  0  0  0  0  0  0  0  0  0
   11.0764    4.8385   23.3332 C   0  0  0  0  0  0  0  0  0  0  0  0
   10.8751    6.3302   23.2724 C   0  0  0  0  0  0  0  0  0  0  0  0
   13.0721   -2.1352   22.0539 N   0  0  0  0  0  0  0  0  0  0  0  0
    9.4746    1.8690   24.2055 N   0  0  0  0  0  0  0  0  0  0  0  0
   10.1011    4.0951   23.7674 N   0  0  0  0  0  0  0  0  0  0  0  0
   10.3908    2.7655   23.7802 N   0  0  0  0  0  0  0  0  0  0  0  0
    7.4722   -4.0099   25.4946 F   0  0  0  0  0  0  0  0  0  0  0  0
  1  2  2  0  0  0  0
  1  7  1  0  0  0  0
  2 10  1  0  0  0  0
  3  5  2  0  0  0  0
  3  9  1  0  0  0  0
  4  6  1  0  0  0  0
  4  9  2  0  0  0  0
  5 12  1  0  0  0  0
  6 12  2  0  0  0  0
  7 19  2  0  0  0  0
  8 10  2  0  0  0  0
  8 19  1  0  0  0  0
  9 13  1  0  0  0  0
 10 11  1  0  0  0  0
 11 13  1  0  0  0  0
 11 14  2  0  0  0  0
 12 23  1  0  0  0  0
 13 20  2  0  0  0  0
 14 15  1  0  0  0  0
 14 22  1  0  0  0  0
 15 16  2  0  0  0  0
 16 17  1  0  0  0  0
 17 18  1  0  0  0  0
 17 21  2  0  0  0  0
 20 22  1  0  0  0  0
 21 22  1  0  0  0  0
M  END

> <original SMILES>

Cc1ccc2c(-c3cccnc3)c(-c3ccc(F)cc3)nn2n1

> <ref_mols>

x0395_0,x0426_0,x0434_0,x0540_0,x0678_0,x0830_0,x1093_0

> <ref_pdb>

receptors/Mpro-x0395-protein.pdb

> <Chemgauss4>

-3.817697

> <binding_free_energy>

-5.612380407692299

> <binding_std_error>

0.04921674168782141

$$$$
GIA-UNK-5ec6c2b8-5
  -OEChem-05122002103D

 18 19  0     0  0  0  0  0  0999 V2000
   14.2958   -1.4463   24.2971 C   0  0  0  0  0  0  0  0  0  0  0  0
   13.3631   -0.4606   24.6196 C   0  0  0  0  0  0  0  0  0  0  0  0
   14.2673   -2.0487   23.0393 C   0  0  0  0  0  0  0  0  0  0  0  0
   12.4019   -0.0772   23.6843 C   0  0  0  0  0  0  0  0  0  0  0  0
   13.3061   -1.6653   22.1040 C   0  0  0  0  0  0  0  0  0  0  0  0
   12.3734   -0.6796   22.4265 C   0  0  0  0  0  0  0  0  0  0  0  0
    6.2278    1.0685   18.5527 C   0  0  0  0  0  0  0  0  0  0  0  0
   10.0809   -1.0929   21.5288 C   0  0  0  0  0  0  0  0  0  0  0  0
    6.7159   -0.8624   20.0390 C   0  0  0  0  0  0  0  0  0  0  0  0
    7.4357    1.5006   20.6948 C   0  0  0  0  0  0  0  0  0  0  0  0
    7.6340   -1.2039   21.2067 C   0  0  0  0  0  0  0  0  0  0  0  0
    8.8368    0.9011   20.6015 C   0  0  0  0  0  0  0  0  0  0  0  0
    6.3878    0.6358   19.9826 C   0  0  0  0  0  0  0  0  0  0  0  0
   11.3400   -0.2680   21.4205 C   0  0  0  0  0  0  0  0  0  0  0  0
    8.8986   -0.4697   21.1248 N   0  0  0  0  0  0  0  0  0  0  0  0
    6.8566    0.5828   17.6215 O   0  0  0  0  0  0  0  0  0  0  0  0
   10.1437   -2.2461   21.9612 O   0  0  0  0  0  0  0  0  0  0  0  0
    5.0607    2.3721   18.1181 S   0  5  0  0  0  0  0  0  0  0  0  0
  1  2  1  0  0  0  0
  1  3  2  0  0  0  0
  2  4  2  0  0  0  0
  3  5  1  0  0  0  0
  4  6  1  0  0  0  0
  5  6  2  0  0  0  0
  6 14  1  0  0  0  0
  7 13  1  0  0  0  0
  7 16  2  0  0  0  0
  7 18  1  0  0  0  0
  8 14  1  0  0  0  0
  8 15  1  0  0  0  0
  8 17  2  0  0  0  0
  9 11  1  0  0  0  0
  9 13  1  0  0  0  0
 10 12  1  0  0  0  0
 10 13  1  0  0  0  0
 11 15  1  0  0  0  0
 12 15  1  0  0  0  0
M  CHG  1  18  -1
M  END

> <original SMILES>

O=C(S)C1CCN(C(=O)Cc2ccccc2)CC1

> <ref_mols>

x1380_0,x1386_0

> <ref_pdb>

receptors/protein-0387.pdb

> <Chemgauss4>

-4.99714326858521

> <binding_free_energy>

-5.605222564178899

> <binding_std_error>

5.274448992326705

$$$$
DOU-UNK-b5326f8f-12
  -OEChem-05122002103D

 20 23  0     0  0  0  0  0  0999 V2000
    5.9402   -3.0381   20.9030 C   0  0  0  0  0  0  0  0  0  0  0  0
    6.6696   -1.8600   21.0326 C   0  0  0  0  0  0  0  0  0  0  0  0
    6.3441   -4.1903   21.5789 C   0  0  0  0  0  0  0  0  0  0  0  0
    7.8074   -1.8265   21.8389 C   0  0  0  0  0  0  0  0  0  0  0  0
    9.0235   -5.3240   23.8867 C   0  0  0  0  0  0  0  0  0  0  0  0
   10.9788   -3.9281   24.8260 C   0  0  0  0  0  0  0  0  0  0  0  0
   14.3224   -1.8892   26.5483 C   0  0  0  0  0  0  0  0  0  0  0  0
    7.4853   -4.1820   22.3965 C   0  0  0  0  0  0  0  0  0  0  0  0
    8.2295   -2.9841   22.5301 C   0  0  0  0  0  0  0  0  0  0  0  0
    9.7933   -4.1489   24.0462 C   0  0  0  0  0  0  0  0  0  0  0  0
    7.8891   -5.3322   23.0729 C   0  0  0  0  0  0  0  0  0  0  0  0
    9.3920   -2.9897   23.3683 C   0  0  0  0  0  0  0  0  0  0  0  0
   11.4490   -2.6422   24.7334 C   0  0  0  0  0  0  0  0  0  0  0  0
   12.5921   -2.0991   25.3744 C   0  0  0  0  0  0  0  0  0  0  0  0
   14.1127   -0.7136   26.0035 N   0  0  0  0  0  0  0  0  0  0  0  0
   12.9744   -0.8517   25.2314 N   0  0  0  0  0  0  0  0  0  0  0  0
   13.3980   -2.8246   26.1972 O   0  0  0  0  0  0  0  0  0  0  0  0
    7.1944   -6.5044   22.9670 O   0  0  0  0  0  0  0  0  0  0  0  0
   10.4817   -1.6841   23.7148 S   0  0  0  0  0  0  0  0  0  0  0  0
    7.6190   -7.1901   23.5033 H   0  0  0  0  0  0  0  0  0  0  0  0
  1  2  1  0  0  0  0
  1  3  2  0  0  0  0
  2  4  2  0  0  0  0
  3  8  1  0  0  0  0
  4  9  1  0  0  0  0
  5 10  2  0  0  0  0
  5 11  1  0  0  0  0
  6 10  1  0  0  0  0
  6 13  2  0  0  0  0
  7 15  2  0  0  0  0
  7 17  1  0  0  0  0
  8  9  1  0  0  0  0
  8 11  2  0  0  0  0
  9 12  2  0  0  0  0
 10 12  1  0  0  0  0
 11 18  1  0  0  0  0
 12 19  1  0  0  0  0
 13 14  1  0  0  0  0
 13 19  1  0  0  0  0
 14 16  2  0  0  0  0
 14 17  1  0  0  0  0
 15 16  1  0  0  0  0
 18 20  1  0  0  0  0
M  END

> <original SMILES>

O=C1Cc2cc(-c3nnco3)sc2-c2ccccc21

> <ref_mols>

x0104_0,x0107_0,x0387_0,x0397_0,x0708_0,x0770_0,x1093_0,x1392_0

> <ref_pdb>

receptors/Mpro-x0708-protein.pdb

> <Chemgauss4>

-4.417357

> <binding_free_energy>

-5.601350739797985

> <binding_std_error>

0.13470721476736972

$$$$
MAK-UNK-5e88aa6a-13
  -OEChem-05122002103D

 12 13  0     0  0  0  0  0  0999 V2000
   10.7467    3.4682   24.2664 C   0  0  0  0  0  0  0  0  0  0  0  0
   12.4894   -0.3379   23.5764 C   0  0  0  0  0  0  0  0  0  0  0  0
   14.2307    0.6900   22.4069 C   0  0  0  0  0  0  0  0  0  0  0  0
   10.4592    4.8147   24.3084 C   0  0  0  0  0  0  0  0  0  0  0  0
   12.5386    4.3520   23.0789 C   0  0  0  0  0  0  0  0  0  0  0  0
   11.9513    3.2001   23.5544 C   0  0  0  0  0  0  0  0  0  0  0  0
   13.6661   -0.4810   22.8697 C   0  0  0  0  0  0  0  0  0  0  0  0
   12.5484    1.9194   23.3155 C   0  0  0  0  0  0  0  0  0  0  0  0
   14.2834   -1.8067   22.6241 C   0  0  0  0  0  0  0  0  0  0  0  0
   11.9005    0.8515   23.8188 N   0  0  0  0  0  0  0  0  0  0  0  0
   13.6968    1.9120   22.6121 N   0  0  0  0  0  0  0  0  0  0  0  0
   11.6388    5.7493   23.4915 S   0  0  0  0  0  0  0  0  0  0  0  0
  1  4  2  0  0  0  0
  1  6  1  0  0  0  0
  2  7  1  0  0  0  0
  2 10  2  0  0  0  0
  3  7  2  0  0  0  0
  3 11  1  0  0  0  0
  4 12  1  0  0  0  0
  5  6  2  0  0  0  0
  5 12  1  0  0  0  0
  6  8  1  0  0  0  0
  7  9  1  0  0  0  0
  8 10  1  0  0  0  0
  8 11  2  0  0  0  0
M  END

> <original SMILES>

Cc1cnc(-c2ccsc2)nc1

> <ref_mols>

x0195_0,x0387_0

> <ref_pdb>

receptors/Mpro-x0195_0.pdb

> <Chemgauss4>

-7.533288

> <binding_free_energy>

-5.567843502020196

> <binding_std_error>

0.0

$$$$
WAR-XCH-b72a1bbc-3
  -OEChem-05122002103D

 17 18  0     0  0  0  0  0  0999 V2000
    9.7156   -2.3627   23.2184 C   0  0  0  0  0  0  0  0  0  0  0  0
   10.1484   -4.3231   24.5624 C   0  0  0  0  0  0  0  0  0  0  0  0
    8.6115   -2.9968   22.6489 C   0  0  0  0  0  0  0  0  0  0  0  0
    9.0442   -4.9573   23.9929 C   0  0  0  0  0  0  0  0  0  0  0  0
   11.7940   -0.9750   24.9764 C   0  0  0  0  0  0  0  0  0  0  0  0
   13.0073   -0.6878   25.5618 C   0  0  0  0  0  0  0  0  0  0  0  0
   12.7091   -3.1008   25.1906 C   0  0  0  0  0  0  0  0  0  0  0  0
   10.4841   -3.0259   24.1751 C   0  0  0  0  0  0  0  0  0  0  0  0
   11.6210   -2.3729   24.7614 C   0  0  0  0  0  0  0  0  0  0  0  0
    8.2758   -4.2941   23.0361 C   0  0  0  0  0  0  0  0  0  0  0  0
    6.3373   -3.8745   21.2554 N   0  0  0  0  0  0  0  0  0  0  0  0
    7.3689   -6.2199   21.5387 O   0  0  0  0  0  0  0  0  0  0  0  0
    5.8925   -5.2944   23.3584 O   0  0  0  0  0  0  0  0  0  0  0  0
   13.9322   -2.0999   25.8498 S   0  0  0  0  0  0  0  0  0  0  0  0
    6.8943   -5.0876   22.3219 S   0  0  0  0  0  0  0  0  0  0  0  0
    6.4709   -4.0206   20.2473 H   0  0  0  0  0  0  0  0  0  0  0  0
    5.4639   -3.3884   21.4922 H   0  0  0  0  0  0  0  0  0  0  0  0
  1  3  2  0  0  0  0
  1  8  1  0  0  0  0
  2  4  1  0  0  0  0
  2  8  2  0  0  0  0
  3 10  1  0  0  0  0
  4 10  2  0  0  0  0
  5  6  2  0  0  0  0
  5  9  1  0  0  0  0
  6 14  1  0  0  0  0
  7  9  2  0  0  0  0
  7 14  1  0  0  0  0
  8  9  1  0  0  0  0
 10 15  1  0  0  0  0
 11 15  1  0  0  0  0
 12 15  2  0  0  0  0
 13 15  2  0  0  0  0
 11 16  1  0  0  0  0
 11 17  1  0  0  0  0
M  END

> <original SMILES>

NS(=O)(=O)c1ccc(-c2ccsc2)cc1

> <ref_mols>

x0072_0,x0104_0,x0107_0,x0161_0,x0165_0

> <ref_pdb>

receptors/Mpro-x0072-protein.pdb

> <Chemgauss4>

-5.893764

> <binding_free_energy>

-5.536033664646467

> <binding_std_error>

0.09140884827766499

$$$$
MIH-UNI-e573136b-11
  -OEChem-05122002103D

 19 21  0     1  0  0  0  0  0999 V2000
    7.2453   -4.4281   24.3790 C   0  0  0  0  0  0  0  0  0  0  0  0
    8.6183   -4.6234   24.4667 C   0  0  0  0  0  0  0  0  0  0  0  0
    6.7456   -3.3657   23.6304 C   0  0  0  0  0  0  0  0  0  0  0  0
    9.4923   -3.7494   23.8175 C   0  0  0  0  0  0  0  0  0  0  0  0
    7.6145   -2.4839   22.9658 C   0  0  0  0  0  0  0  0  0  0  0  0
    9.0094   -2.6554   23.0795 C   0  0  0  0  0  0  0  0  0  0  0  0
    7.7085    0.0229   20.1557 C   0  0  0  0  0  0  0  0  0  0  0  0
    7.0071   -1.3661   22.1535 C   0  0  0  0  0  0  0  0  0  0  0  0
   13.3077   -0.1239   23.1541 C   0  0  0  0  0  0  0  0  0  0  0  0
   12.3262   -0.8197   22.2229 C   0  0  0  0  0  0  0  0  0  0  0  0
    9.2684   -0.3778   22.0286 C   0  0  0  0  0  0  0  0  0  0  0  0
   12.4805    0.7806   24.0516 C   0  0  0  0  0  0  0  0  0  0  0  0
    9.9563   -1.7118   22.3541 C   0  0  1  0  0  0  0  0  0  0  0  0
   11.2388   -1.4158   23.1120 C   0  0  2  0  0  0  0  0  0  0  0  0
    6.3046   -0.1291   19.6243 C   0  0  0  0  0  0  0  0  0  0  0  0
    7.9821   -0.5984   21.3758 N   0  0  0  0  0  0  0  0  0  0  0  0
    8.5339    0.6684   19.5049 O   0  0  0  0  0  0  0  0  0  0  0  0
   10.9749   -0.1653   24.4122 S   0  0  0  0  0  0  0  0  0  0  0  0
    6.3066   -1.5609   18.6012 Cl  0  0  0  0  0  0  0  0  0  0  0  0
  1  2  1  0  0  0  0
  1  3  2  0  0  0  0
  2  4  2  0  0  0  0
  3  5  1  0  0  0  0
  4  6  1  0  0  0  0
  5  6  2  0  0  0  0
  5  8  1  0  0  0  0
  6 13  1  0  0  0  0
  7 15  1  0  0  0  0
  7 16  1  0  0  0  0
  7 17  2  0  0  0  0
  8 16  1  0  0  0  0
  9 10  1  0  0  0  0
  9 12  1  0  0  0  0
 10 14  1  0  0  0  0
 11 13  1  0  0  0  0
 11 16  1  0  0  0  0
 12 18  1  0  0  0  0
 13 14  1  0  0  0  0
 14 18  1  0  0  0  0
 15 19  1  0  0  0  0
M  END

> <original SMILES>

O=C(CCl)N1Cc2ccccc2C(C2CCCS2)C1

> <ref_mols>

x0072_0,x0104_0,x0107_0,x0678_0,x0830_0,x0874_0,x1093_0

> <ref_pdb>

receptors/Mpro-x0678_0.pdb

> <Chemgauss4>

-8.518147

> <binding_free_energy>

-5.426199110724674

> <binding_std_error>

4.039602868061159

$$$$
NAU-LAT-ec9c7557-2
  -OEChem-05122002103D

 22 24  0     0  0  0  0  0  0999 V2000
   12.4324   -1.3259   23.9635 C   0  0  0  0  0  0  0  0  0  0  0  0
   11.9803   -2.9802   25.6498 C   0  0  0  0  0  0  0  0  0  0  0  0
    9.7153   -1.7531   23.0316 C   0  0  0  0  0  0  0  0  0  0  0  0
    9.9402   -4.0381   23.8672 C   0  0  0  0  0  0  0  0  0  0  0  0
   13.5827   -1.0030   24.6653 C   0  0  0  0  0  0  0  0  0  0  0  0
   13.1509   -2.5834   26.2760 C   0  0  0  0  0  0  0  0  0  0  0  0
   11.6214   -2.3344   24.4718 C   0  0  0  0  0  0  0  0  0  0  0  0
   10.4072   -2.7099   23.7784 C   0  0  0  0  0  0  0  0  0  0  0  0
    8.5679   -2.1738   22.3962 C   0  0  0  0  0  0  0  0  0  0  0  0
    8.7709   -4.4375   23.2110 C   0  0  0  0  0  0  0  0  0  0  0  0
    8.0995   -3.4814   22.4780 C   0  0  0  0  0  0  0  0  0  0  0  0
    7.6239   -1.4473   21.5500 C   0  0  0  0  0  0  0  0  0  0  0  0
    6.5512   -2.4526   21.1396 C   0  0  0  0  0  0  0  0  0  0  0  0
    8.2890   -5.8415   23.3127 C   0  0  0  0  0  0  0  0  0  0  0  0
   13.9642   -1.6079   25.8125 N   0  0  0  0  0  0  0  0  0  0  0  0
    6.9221   -3.6404   21.7434 N   0  0  0  0  0  0  0  0  0  0  0  0
    7.6403   -0.2889   21.2122 O   0  0  0  0  0  0  0  0  0  0  0  0
    5.6118   -2.1676   20.4301 O   0  0  0  0  0  0  0  0  0  0  0  0
    9.0857   -6.6432   24.0823 F   0  0  0  0  0  0  0  0  0  0  0  0
    7.0406   -5.9566   23.8585 F   0  0  0  0  0  0  0  0  0  0  0  0
    8.2131   -6.4637   22.0987 F   0  0  0  0  0  0  0  0  0  0  0  0
    6.4083   -4.5098   21.6635 H   0  0  0  0  0  0  0  0  0  0  0  0
  1  5  2  0  0  0  0
  1  7  1  0  0  0  0
  2  6  1  0  0  0  0
  2  7  2  0  0  0  0
  3  8  1  0  0  0  0
  3  9  2  0  0  0  0
  4  8  2  0  0  0  0
  4 10  1  0  0  0  0
  5 15  1  0  0  0  0
  6 15  2  0  0  0  0
  7  8  1  0  0  0  0
  9 11  1  0  0  0  0
  9 12  1  0  0  0  0
 10 11  2  0  0  0  0
 10 14  1  0  0  0  0
 11 16  1  0  0  0  0
 12 13  1  0  0  0  0
 12 17  2  0  0  0  0
 13 16  1  0  0  0  0
 13 18  2  0  0  0  0
 14 19  1  0  0  0  0
 14 20  1  0  0  0  0
 14 21  1  0  0  0  0
 16 22  1  0  0  0  0
M  END

> <original SMILES>

O=C1Nc2c(cc(-c3ccncc3)cc2C(F)(F)F)C1=O

> <ref_mols>

x1093_0

> <ref_pdb>

receptors/protein-0387.pdb

> <Chemgauss4>

-5.25276327133179

> <binding_free_energy>

-5.425946524949069

> <binding_std_error>

3.6252573257720457

$$$$
ALE-HEI-f28a35b5-1
  -OEChem-05122002103D

 19 20  0     0  0  0  0  0  0999 V2000
   14.2238   -0.9928   23.9289 C   0  0  0  0  0  0  0  0  0  0  0  0
   13.2682   -0.4429   24.7832 C   0  0  0  0  0  0  0  0  0  0  0  0
   13.9351   -1.1595   22.5745 C   0  0  0  0  0  0  0  0  0  0  0  0
   12.0237   -0.0598   24.2832 C   0  0  0  0  0  0  0  0  0  0  0  0
   12.6905   -0.7765   22.0744 C   0  0  0  0  0  0  0  0  0  0  0  0
    5.7813    1.2555   18.8360 C   0  0  0  0  0  0  0  0  0  0  0  0
    6.3228    0.7972   17.6459 C   0  0  0  0  0  0  0  0  0  0  0  0
    8.3046    0.2321   18.6615 C   0  0  0  0  0  0  0  0  0  0  0  0
    6.5689    1.1841   19.9796 C   0  0  0  0  0  0  0  0  0  0  0  0
   11.7348   -0.2266   22.9288 C   0  0  0  0  0  0  0  0  0  0  0  0
    7.8559    0.6641   19.8992 C   0  0  0  0  0  0  0  0  0  0  0  0
   10.0066    0.0714   21.1003 C   0  0  0  0  0  0  0  0  0  0  0  0
    6.0104    1.6717   21.2761 C   0  0  0  0  0  0  0  0  0  0  0  0
    7.5686    0.2855   17.5287 N   0  0  0  0  0  0  0  0  0  0  0  0
   10.4900    0.1568   22.4288 N   0  0  0  0  0  0  0  0  0  0  0  0
    8.6957    0.5701   21.0340 N   0  0  0  0  0  0  0  0  0  0  0  0
   10.6450   -0.3740   20.1520 O   0  0  0  0  0  0  0  0  0  0  0  0
    9.8384    0.5530   23.1143 H   0  0  0  0  0  0  0  0  0  0  0  0
    8.2947    0.9076   21.9055 H   0  0  0  0  0  0  0  0  0  0  0  0
  1  2  1  0  0  0  0
  1  3  2  0  0  0  0
  2  4  2  0  0  0  0
  3  5  1  0  0  0  0
  4 10  1  0  0  0  0
  5 10  2  0  0  0  0
  6  7  2  0  0  0  0
  6  9  1  0  0  0  0
  7 14  1  0  0  0  0
  8 11  1  0  0  0  0
  8 14  2  0  0  0  0
  9 11  2  0  0  0  0
  9 13  1  0  0  0  0
 10 15  1  0  0  0  0
 11 16  1  0  0  0  0
 12 15  1  0  0  0  0
 12 16  1  0  0  0  0
 12 17  2  0  0  0  0
 15 18  1  0  0  0  0
 16 19  1  0  0  0  0
M  END

> <original SMILES>

Cc1ccncc1NC(=O)Nc1ccccc1

> <ref_mols>

x0107_0,x0395_0,x0434_0,x0678_0,x0967_0,x0991_0,x1093_0

> <ref_pdb>

receptors/Mpro-x0395-protein.pdb

> <Chemgauss4>

-4.235008

> <binding_free_energy>

-5.3844944757575774

> <binding_std_error>

0.3713558931392657

$$$$
NIR-THE-c331be7a-2
  -OEChem-05122002103D

 22 24  0     1  0  0  0  0  0999 V2000
   12.1911    1.8589   23.4138 C   0  0  0  0  0  0  0  0  0  0  0  0
    7.2737   -5.4549   23.2741 C   0  0  0  0  0  0  0  0  0  0  0  0
    7.8898   -4.9453   24.4134 C   0  0  0  0  0  0  0  0  0  0  0  0
   12.0593   -1.8347   22.9710 C   0  0  0  0  0  0  0  0  0  0  0  0
   12.5549   -0.5349   23.0731 C   0  0  0  0  0  0  0  0  0  0  0  0
    6.9958   -4.6142   22.1967 C   0  0  0  0  0  0  0  0  0  0  0  0
    8.2257   -3.5938   24.4781 C   0  0  0  0  0  0  0  0  0  0  0  0
   10.6914   -2.0722   23.1057 C   0  0  0  0  0  0  0  0  0  0  0  0
   10.3147    0.2901   23.4446 C   0  0  0  0  0  0  0  0  0  0  0  0
   11.6826    0.5275   23.3099 C   0  0  0  0  0  0  0  0  0  0  0  0
    9.8191   -1.0098   23.3426 C   0  0  0  0  0  0  0  0  0  0  0  0
    7.3339   -3.2532   22.2453 C   0  0  0  0  0  0  0  0  0  0  0  0
    7.9481   -2.7365   23.4011 C   0  0  0  0  0  0  0  0  0  0  0  0
    7.8603   -0.2067   20.0658 C   0  0  0  0  0  0  0  0  0  0  0  0
    7.0165   -2.3823   21.0536 C   0  0  0  0  0  0  0  0  0  0  0  0
    7.5048   -0.4256   22.5011 C   0  0  0  0  0  0  0  0  0  0  0  0
    8.3253   -1.2694   23.4898 C   0  0  2  0  0  0  0  0  0  0  0  0
    7.1126   -0.4690   18.7820 C   0  0  0  0  0  0  0  0  0  0  0  0
   12.6040    2.9402   23.4981 N   0  0  0  0  0  0  0  0  0  0  0  0
    7.5167   -1.0055   21.1588 N   0  0  0  0  0  0  0  0  0  0  0  0
    8.7251    0.6723   20.0932 O   0  0  0  0  0  0  0  0  0  0  0  0
    5.6723    0.5412   18.8237 Cl  0  0  0  0  0  0  0  0  0  0  0  0
  1 10  1  0  0  0  0
  1 19  3  0  0  0  0
  2  3  1  0  0  0  0
  2  6  2  0  0  0  0
  3  7  2  0  0  0  0
  4  5  2  0  0  0  0
  4  8  1  0  0  0  0
  5 10  1  0  0  0  0
  6 12  1  0  0  0  0
  7 13  1  0  0  0  0
  8 11  2  0  0  0  0
  9 10  2  0  0  0  0
  9 11  1  0  0  0  0
 11 17  1  0  0  0  0
 12 13  2  0  0  0  0
 12 15  1  0  0  0  0
 13 17  1  0  0  0  0
 14 18  1  0  0  0  0
 14 20  1  0  0  0  0
 14 21  2  0  0  0  0
 15 20  1  0  0  0  0
 16 17  1  0  0  0  0
 16 20  1  0  0  0  0
 18 22  1  0  0  0  0
M  END

> <original SMILES>

N#Cc1cccc(C2CN(C(=O)CCl)Cc3ccccc32)c1

> <ref_mols>

x0104_0,x0195_0,x0305_0,x0874_0,x1420_0

> <ref_pdb>

receptors/Mpro-x0874-protein.pdb

> <Chemgauss4>

-7.416503

> <binding_free_energy>

-5.330517300000004

> <binding_std_error>

0.3813242751989085

$$$$
GIA-UNK-5ec6c2b8-1
  -OEChem-05122002103D

 17 18  0     0  0  0  0  0  0999 V2000
   12.9062   -0.0336   25.1840 C   0  0  0  0  0  0  0  0  0  0  0  0
   11.6194   -0.1907   25.6987 C   0  0  0  0  0  0  0  0  0  0  0  0
   13.5641   -1.1198   24.6069 C   0  0  0  0  0  0  0  0  0  0  0  0
   10.9904   -1.4342   25.6365 C   0  0  0  0  0  0  0  0  0  0  0  0
   12.9351   -2.3633   24.5447 C   0  0  0  0  0  0  0  0  0  0  0  0
   11.6483   -2.5205   25.0595 C   0  0  0  0  0  0  0  0  0  0  0  0
   10.9907   -3.8204   24.9945 C   0  0  0  0  0  0  0  0  0  0  0  0
    6.3725   -3.9554   22.1118 C   0  0  0  0  0  0  0  0  0  0  0  0
    8.0459   -5.1781   23.4376 C   0  0  0  0  0  0  0  0  0  0  0  0
    8.6088   -2.9633   22.3701 C   0  0  0  0  0  0  0  0  0  0  0  0
    9.5307   -5.3854   23.7318 C   0  0  0  0  0  0  0  0  0  0  0  0
   10.0815   -3.2225   22.6779 C   0  0  0  0  0  0  0  0  0  0  0  0
    7.8499   -4.2801   22.2180 C   0  0  0  0  0  0  0  0  0  0  0  0
   10.2173   -4.0969   23.8523 N   0  0  0  0  0  0  0  0  0  0  0  0
   11.1209   -4.6267   25.9173 O   0  0  0  0  0  0  0  0  0  0  0  0
    5.6813   -4.2443   21.1437 O   0  0  0  0  0  0  0  0  0  0  0  0
    5.5275   -3.0961   23.4528 S   0  5  0  0  0  0  0  0  0  0  0  0
  1  2  1  0  0  0  0
  1  3  2  0  0  0  0
  2  4  2  0  0  0  0
  3  5  1  0  0  0  0
  4  6  1  0  0  0  0
  5  6  2  0  0  0  0
  6  7  1  0  0  0  0
  7 14  1  0  0  0  0
  7 15  2  0  0  0  0
  8 13  1  0  0  0  0
  8 16  2  0  0  0  0
  8 17  1  0  0  0  0
  9 11  1  0  0  0  0
  9 13  1  0  0  0  0
 10 12  1  0  0  0  0
 10 13  1  0  0  0  0
 11 14  1  0  0  0  0
 12 14  1  0  0  0  0
M  CHG  1  17  -1
M  END

> <original SMILES>

O=C(S)C1CCN(C(=O)c2ccccc2)CC1

> <ref_mols>

x1380_0,x1386_0

> <ref_pdb>

receptors/protein-0387.pdb

> <Chemgauss4>

-5.26096439361572

> <binding_free_energy>

-5.2928889976291345

> <binding_std_error>

3.242204468164805

$$$$
AUS-ARG-7cfdce8f-18
  -OEChem-05122002103D

 22 26  0     0  0  0  0  0  0999 V2000
    8.5965   -0.2247   20.8834 C   0  0  0  0  0  0  0  0  0  0  0  0
    7.4862    0.2703   19.1712 C   0  0  0  0  0  0  0  0  0  0  0  0
    4.8416    1.1535   19.0437 C   0  0  0  0  0  0  0  0  0  0  0  0
    5.3863    0.8843   20.2342 C   0  0  0  0  0  0  0  0  0  0  0  0
    5.7496    0.9400   17.8878 C   0  0  0  0  0  0  0  0  0  0  0  0
    6.6626   -3.4167   26.7848 C   0  0  0  0  0  0  0  0  0  0  0  0
    7.8335   -5.5917   26.3535 C   0  0  0  0  0  0  0  0  0  0  0  0
    5.6671   -5.0832   25.1976 C   0  0  0  0  0  0  0  0  0  0  0  0
    8.8049   -3.4505   25.4811 C   0  0  0  0  0  0  0  0  0  0  0  0
    6.6337   -2.9407   24.3227 C   0  0  0  0  0  0  0  0  0  0  0  0
    7.8069   -5.1207   23.8902 C   0  0  0  0  0  0  0  0  0  0  0  0
    8.0353   -4.0958   26.6469 C   0  0  0  0  0  0  0  0  0  0  0  0
    5.8582   -3.5848   25.4851 C   0  0  0  0  0  0  0  0  0  0  0  0
    7.0348   -5.7707   25.0517 C   0  0  0  0  0  0  0  0  0  0  0  0
    8.0180   -3.6117   24.1589 C   0  0  0  0  0  0  0  0  0  0  0  0
    8.7865   -2.9685   23.0016 C   0  0  0  0  0  0  0  0  0  0  0  0
    9.0357   -1.4926   23.2736 C   0  0  0  0  0  0  0  0  0  0  0  0
    8.6823   -0.1517   19.5292 N   0  0  0  0  0  0  0  0  0  0  0  0
    7.4259    0.1222   21.4122 N   0  0  0  0  0  0  0  0  0  0  0  0
    6.9811    0.5300   17.9296 N   0  0  0  0  0  0  0  0  0  0  0  0
    6.7010    0.4440   20.3143 N   0  0  0  0  0  0  0  0  0  0  0  0
    9.9486   -0.7466   21.8932 S   0  0  0  0  0  0  0  0  0  0  0  0
  1 18  1  0  0  0  0
  1 19  2  0  0  0  0
  1 22  1  0  0  0  0
  2 18  2  0  0  0  0
  2 20  1  0  0  0  0
  2 21  1  0  0  0  0
  3  4  2  0  0  0  0
  3  5  1  0  0  0  0
  4 21  1  0  0  0  0
  5 20  2  0  0  0  0
  6 12  1  0  0  0  0
  6 13  1  0  0  0  0
  7 12  1  0  0  0  0
  7 14  1  0  0  0  0
  8 13  1  0  0  0  0
  8 14  1  0  0  0  0
  9 12  1  0  0  0  0
  9 15  1  0  0  0  0
 10 13  1  0  0  0  0
 10 15  1  0  0  0  0
 11 14  1  0  0  0  0
 11 15  1  0  0  0  0
 15 16  1  0  0  0  0
 16 17  1  0  0  0  0
 17 22  1  0  0  0  0
 19 21  1  0  0  0  0
M  END

> <original SMILES>

c1cnc2nc(SCCC34CC5CC(CC(C5)C3)C4)nn2c1

> <ref_mols>

x0678_0

> <ref_pdb>

receptors/Mpro-x0678_0.pdb

> <Chemgauss4>

-9.050965

> <binding_free_energy>

-5.253233685714289

> <binding_std_error>

0.042487000000004826

$$$$
STE-UNK-dfade101-2
  -OEChem-05122002103D

 15 16  0     0  0  0  0  0  0999 V2000
    5.0687    0.2581   19.8062 C   0  0  0  0  0  0  0  0  0  0  0  0
    8.5452   -1.2081   23.4457 C   0  0  0  0  0  0  0  0  0  0  0  0
    5.4836   -0.0763   18.5272 C   0  0  0  0  0  0  0  0  0  0  0  0
    7.6984   -0.0245   19.1355 C   0  0  0  0  0  0  0  0  0  0  0  0
    6.0450    0.4546   20.7765 C   0  0  0  0  0  0  0  0  0  0  0  0
    7.3874    0.3126   20.4429 C   0  0  0  0  0  0  0  0  0  0  0  0
    9.2155   -2.4416   23.5505 C   0  0  0  0  0  0  0  0  0  0  0  0
    8.8613   -0.7512   22.1896 C   0  0  0  0  0  0  0  0  0  0  0  0
    5.6305    0.8148   22.1646 C   0  0  0  0  0  0  0  0  0  0  0  0
    9.2200   -3.3653   24.6976 C   0  0  0  0  0  0  0  0  0  0  0  0
    8.4729    0.5104   21.4435 C   0  0  0  0  0  0  0  0  0  0  0  0
    6.7779   -0.2232   18.1655 N   0  0  0  0  0  0  0  0  0  0  0  0
    9.9053   -2.7488   22.4488 N   0  0  0  0  0  0  0  0  0  0  0  0
    9.6700   -1.7019   21.6397 N   0  0  0  0  0  0  0  0  0  0  0  0
   10.0961   -1.7021   20.7212 H   0  0  0  0  0  0  0  0  0  0  0  0
  1  3  2  0  0  0  0
  1  5  1  0  0  0  0
  2  7  1  0  0  0  0
  2  8  2  0  0  0  0
  3 12  1  0  0  0  0
  4  6  1  0  0  0  0
  4 12  2  0  0  0  0
  5  6  2  0  0  0  0
  5  9  1  0  0  0  0
  6 11  1  0  0  0  0
  7 10  1  0  0  0  0
  7 13  2  0  0  0  0
  8 11  1  0  0  0  0
  8 14  1  0  0  0  0
 13 14  1  0  0  0  0
 14 15  1  0  0  0  0
M  END

> <original SMILES>

Cc1cc(Cc2cnccc2C)n[nH]1

> <ref_mols>

x0107_0

> <ref_pdb>

receptors/Mpro-x0107_0.pdb

> <Chemgauss4>

-9.555629

> <binding_free_energy>

-5.225190243846146

> <binding_std_error>

0.1098343289295466

$$$$
DAR-DIA-842b4336-20
  -OEChem-05122002103D

 22 24  0     0  0  0  0  0  0999 V2000
    6.1839    0.9845   17.5897 C   0  0  0  0  0  0  0  0  0  0  0  0
   13.2231   -0.1838   22.2314 C   0  0  0  0  0  0  0  0  0  0  0  0
   12.6624   -1.4497   22.0721 C   0  0  0  0  0  0  0  0  0  0  0  0
   10.4093   -2.7133   22.4876 C   0  0  0  0  0  0  0  0  0  0  0  0
   12.4436    0.8281   22.7755 C   0  0  0  0  0  0  0  0  0  0  0  0
    5.1727   -1.1900   18.4821 C   0  0  0  0  0  0  0  0  0  0  0  0
    6.0320   -0.1198   18.4526 C   0  0  0  0  0  0  0  0  0  0  0  0
   11.3294   -1.6318   22.4742 C   0  0  0  0  0  0  0  0  0  0  0  0
    9.2259   -2.2468   23.0183 C   0  0  0  0  0  0  0  0  0  0  0  0
   10.6642   -0.5301   23.0042 C   0  0  0  0  0  0  0  0  0  0  0  0
    6.4696   -1.3770   20.1271 C   0  0  0  0  0  0  0  0  0  0  0  0
    6.9587   -2.8791   22.0892 C   0  0  0  0  0  0  0  0  0  0  0  0
    7.9442   -2.9350   23.2624 C   0  0  0  0  0  0  0  0  0  0  0  0
    6.3088    1.8937   16.8793 N   0  0  0  0  0  0  0  0  0  0  0  0
   11.1574    0.7105   23.1794 N   0  0  0  0  0  0  0  0  0  0  0  0
    5.4582   -1.9922   19.5572 N   0  0  0  0  0  0  0  0  0  0  0  0
    9.3917   -0.9216   23.3276 N   0  0  0  0  0  0  0  0  0  0  0  0
    7.1791   -1.7599   21.2903 N   0  0  0  0  0  0  0  0  0  0  0  0
    6.1048   -3.7462   21.9338 O   0  0  0  0  0  0  0  0  0  0  0  0
    6.8771   -0.2315   19.5151 O   0  0  0  0  0  0  0  0  0  0  0  0
    8.6860   -0.3219   23.7326 H   0  0  0  0  0  0  0  0  0  0  0  0
    7.9390   -1.1459   21.5761 H   0  0  0  0  0  0  0  0  0  0  0  0
  1  7  1  0  0  0  0
  1 14  3  0  0  0  0
  2  3  2  0  0  0  0
  2  5  1  0  0  0  0
  3  8  1  0  0  0  0
  4  8  1  0  0  0  0
  4  9  2  0  0  0  0
  5 15  2  0  0  0  0
  6  7  2  0  0  0  0
  6 16  1  0  0  0  0
  7 20  1  0  0  0  0
  8 10  2  0  0  0  0
  9 13  1  0  0  0  0
  9 17  1  0  0  0  0
 10 15  1  0  0  0  0
 10 17  1  0  0  0  0
 11 16  2  0  0  0  0
 11 18  1  0  0  0  0
 11 20  1  0  0  0  0
 12 13  1  0  0  0  0
 12 18  1  0  0  0  0
 12 19  2  0  0  0  0
 17 21  1  0  0  0  0
 18 22  1  0  0  0  0
M  END

> <original SMILES>

N#Cc1cnc(NC(=O)Cc2cc3cccnc3[nH]2)o1

> <ref_mols>

x0434_0,x0678_0,x1093_0

> <ref_pdb>

receptors/Mpro-x0434-protein.pdb

> <Chemgauss4>

-5.165152

> <binding_free_energy>

-5.198893240000018

> <binding_std_error>

0.8966633626097408

$$$$
JOH-UNI-9dc98897-3
  -OEChem-05122002103D

 16 17  0     1  0  0  0  0  0999 V2000
    6.5018   -4.0050   21.2262 C   0  0  0  0  0  0  0  0  0  0  0  0
    8.2744   -4.4578   22.8554 C   0  0  0  0  0  0  0  0  0  0  0  0
    9.0223   -1.8502   22.5616 C   0  0  0  0  0  0  0  0  0  0  0  0
    7.6190   -3.5819   22.0051 C   0  0  0  0  0  0  0  0  0  0  0  0
    9.7434   -2.6448   23.4381 C   0  0  0  0  0  0  0  0  0  0  0  0
    9.3559   -3.9724   23.5821 C   0  0  0  0  0  0  0  0  0  0  0  0
   12.3816   -3.5863   25.3806 C   0  0  0  0  0  0  0  0  0  0  0  0
   11.1747   -2.6542   25.4751 C   0  0  0  0  0  0  0  0  0  0  0  0
   11.5772   -0.9902   23.6075 C   0  0  0  0  0  0  0  0  0  0  0  0
   13.7089   -2.8560   25.1992 C   0  0  0  0  0  0  0  0  0  0  0  0
   12.9755   -0.8271   24.1946 C   0  0  0  0  0  0  0  0  0  0  0  0
    5.5927   -4.3492   20.5923 N   0  0  0  0  0  0  0  0  0  0  0  0
    7.9663   -2.2861   21.8388 N   0  0  0  0  0  0  0  0  0  0  0  0
   10.8266   -2.1254   24.1551 N   0  0  3  0  0  0  0  0  0  0  0  0
   13.7380   -2.0213   24.0455 O   0  0  0  0  0  0  0  0  0  0  0  0
   10.0156   -4.7892   24.4153 F   0  0  0  0  0  0  0  0  0  0  0  0
  1  4  1  0  0  0  0
  1 12  3  0  0  0  0
  2  4  1  0  0  0  0
  2  6  2  0  0  0  0
  3  5  2  0  0  0  0
  3 13  1  0  0  0  0
  4 13  2  0  0  0  0
  5  6  1  0  0  0  0
  5 14  1  0  0  0  0
  6 16  1  0  0  0  0
  7  8  1  0  0  0  0
  7 10  1  0  0  0  0
  8 14  1  0  0  0  0
  9 11  1  0  0  0  0
  9 14  1  0  0  0  0
 10 15  1  0  0  0  0
 11 15  1  0  0  0  0
M  END

> <original SMILES>

N#Cc1cc(F)c(N2CCCOCC2)cn1

> <ref_mols>

x1077_0

> <ref_pdb>

receptors/Mpro-x1077-protein.pdb

> <Chemgauss4>

-6.503911

> <binding_free_energy>

-5.194038698587164

> <binding_std_error>

0.14107141826809433

$$$$
TRY-UNI-714a760b-1
  -OEChem-05122002103D

 21 22  0     0  0  0  0  0  0999 V2000
    6.3915    0.4807   17.8322 C   0  0  0  0  0  0  0  0  0  0  0  0
    8.4111    0.0626   18.8443 C   0  0  0  0  0  0  0  0  0  0  0  0
    6.6664    1.0480   20.1255 C   0  0  0  0  0  0  0  0  0  0  0  0
    5.8556    1.0065   18.9967 C   0  0  0  0  0  0  0  0  0  0  0  0
    7.9699    0.5691   20.0562 C   0  0  0  0  0  0  0  0  0  0  0  0
   10.2224    0.7044   21.1742 C   0  0  0  0  0  0  0  0  0  0  0  0
   13.9780   -1.2666   22.8719 C   0  0  0  0  0  0  0  0  0  0  0  0
   13.0927   -1.2516   21.6297 C   0  0  0  0  0  0  0  0  0  0  0  0
   13.4199   -0.3770   23.9784 C   0  0  0  0  0  0  0  0  0  0  0  0
   11.6455   -1.6091   21.9638 C   0  0  0  0  0  0  0  0  0  0  0  0
   11.9729   -0.7345   24.3135 C   0  0  0  0  0  0  0  0  0  0  0  0
   11.0536   -0.7400   23.0831 C   0  0  0  0  0  0  0  0  0  0  0  0
    6.1388    1.6062   21.4099 C   0  0  0  0  0  0  0  0  0  0  0  0
   10.7523    0.6801   22.5964 C   0  0  0  0  0  0  0  0  0  0  0  0
    7.6528    0.0059   17.7265 N   0  0  0  0  0  0  0  0  0  0  0  0
    4.5309    1.4785   19.0169 N   0  0  0  0  0  0  0  0  0  0  0  0
    8.8353    0.5876   21.1758 N   0  0  0  0  0  0  0  0  0  0  0  0
   10.9603    0.8141   20.2006 O   0  0  0  0  0  0  0  0  0  0  0  0
    3.9944    1.4745   18.1708 H   0  0  0  0  0  0  0  0  0  0  0  0
    4.1716    1.8992   19.8522 H   0  0  0  0  0  0  0  0  0  0  0  0
    8.3772    0.5055   22.0811 H   0  0  0  0  0  0  0  0  0  0  0  0
  1  4  2  0  0  0  0
  1 15  1  0  0  0  0
  2  5  1  0  0  0  0
  2 15  2  0  0  0  0
  3  4  1  0  0  0  0
  3  5  2  0  0  0  0
  3 13  1  0  0  0  0
  4 16  1  0  0  0  0
  5 17  1  0  0  0  0
  6 14  1  0  0  0  0
  6 17  1  0  0  0  0
  6 18  2  0  0  0  0
  7  8  1  0  0  0  0
  7  9  1  0  0  0  0
  8 10  1  0  0  0  0
  9 11  1  0  0  0  0
 10 12  1  0  0  0  0
 11 12  1  0  0  0  0
 12 14  1  0  0  0  0
 16 19  1  0  0  0  0
 16 20  1  0  0  0  0
 17 21  1  0  0  0  0
M  END

> <original SMILES>

Cc1c(N)cncc1NC(=O)CC1CCCCC1

> <ref_mols>

x0107_0,x0434_0,x0678_0,x0748_0,x0995_0,x1382_0

> <ref_pdb>

receptors/protein-0387.pdb

> <Chemgauss4>

-6.08684635162354

> <binding_free_energy>

-5.166970782169727

> <binding_std_error>

0.4501000306735086

$$$$
ANT-DIA-b7f58f21-3
  -OEChem-05122002103D

 16 16  0     0  0  0  0  0  0999 V2000
   14.1734   -1.1905   22.1614 C   0  0  0  0  0  0  0  0  0  0  0  0
   13.2525   -2.0120   22.8116 C   0  0  0  0  0  0  0  0  0  0  0  0
   14.0406    0.1964   22.2292 C   0  0  0  0  0  0  0  0  0  0  0  0
   12.1986   -1.4466   23.5294 C   0  0  0  0  0  0  0  0  0  0  0  0
   12.9867    0.7618   22.9471 C   0  0  0  0  0  0  0  0  0  0  0  0
   12.0657   -0.0597   23.5972 C   0  0  0  0  0  0  0  0  0  0  0  0
   10.6842    6.5550   23.6362 C   0  0  0  0  0  0  0  0  0  0  0  0
   12.8586    2.2641   23.0092 C   0  0  0  0  0  0  0  0  0  0  0  0
   11.5274    2.7714   22.4601 C   0  0  0  0  0  0  0  0  0  0  0  0
   11.4223    4.2410   22.5002 N   0  0  0  0  0  0  0  0  0  0  0  0
   12.9347    5.3764   24.2660 O   0  0  0  0  0  0  0  0  0  0  0  0
   10.7594    4.3196   24.9788 O   0  0  0  0  0  0  0  0  0  0  0  0
   11.0302    0.4764   24.3019 O   0  0  0  0  0  0  0  0  0  0  0  0
   11.5484    5.0444   24.0013 S   0  0  0  0  0  0  0  0  0  0  0  0
   11.8365    4.7114   21.6849 H   0  0  0  0  0  0  0  0  0  0  0  0
   10.4874   -0.2286   24.6883 H   0  0  0  0  0  0  0  0  0  0  0  0
  1  2  1  0  0  0  0
  1  3  2  0  0  0  0
  2  4  2  0  0  0  0
  3  5  1  0  0  0  0
  4  6  1  0  0  0  0
  5  6  2  0  0  0  0
  5  8  1  0  0  0  0
  6 13  1  0  0  0  0
  7 14  1  0  0  0  0
  8  9  1  0  0  0  0
  9 10  1  0  0  0  0
 10 14  1  0  0  0  0
 11 14  2  0  0  0  0
 12 14  2  0  0  0  0
 10 15  1  0  0  0  0
 13 16  1  0  0  0  0
M  END

> <original SMILES>

CS(=O)(=O)NCCc1ccccc1O

> <ref_mols>

x0072_0,x0305_0,x0387_0

> <ref_pdb>

receptors/protein-0387.pdb

> <Chemgauss4>

-4.78243064880371

> <binding_free_energy>

-5.165325909090907

> <binding_std_error>

5.489708353697475

$$$$
HAN-NEW-5f56c3bc-1
  -OEChem-05122002103D

 19 20  0     0  0  0  0  0  0999 V2000
   14.5562   -1.7224   23.7409 C   0  0  0  0  0  0  0  0  0  0  0  0
   13.6506   -1.2381   24.6847 C   0  0  0  0  0  0  0  0  0  0  0  0
   14.2068   -1.7535   22.3909 C   0  0  0  0  0  0  0  0  0  0  0  0
   12.3954   -0.7850   24.2786 C   0  0  0  0  0  0  0  0  0  0  0  0
   12.9516   -1.3005   21.9847 C   0  0  0  0  0  0  0  0  0  0  0  0
    8.4266    0.1232   18.8760 C   0  0  0  0  0  0  0  0  0  0  0  0
    6.4151    0.8327   18.0901 C   0  0  0  0  0  0  0  0  0  0  0  0
   12.0459   -0.8162   22.9285 C   0  0  0  0  0  0  0  0  0  0  0  0
    8.0649    0.4344   20.1709 C   0  0  0  0  0  0  0  0  0  0  0  0
    6.8001    0.9639   20.3266 C   0  0  0  0  0  0  0  0  0  0  0  0
   10.2497   -0.3117   21.2145 C   0  0  0  0  0  0  0  0  0  0  0  0
    6.2966    1.3396   21.6822 C   0  0  0  0  0  0  0  0  0  0  0  0
    7.6237    0.3099   17.8080 N   0  0  0  0  0  0  0  0  0  0  0  0
    5.9458    1.1774   19.3044 N   0  0  0  0  0  0  0  0  0  0  0  0
   10.7905   -0.3628   22.5224 N   0  0  0  0  0  0  0  0  0  0  0  0
    8.9493    0.2164   21.2536 N   0  0  0  0  0  0  0  0  0  0  0  0
   10.8370   -0.6769   20.2011 O   0  0  0  0  0  0  0  0  0  0  0  0
   10.1778   -0.0211   23.2705 H   0  0  0  0  0  0  0  0  0  0  0  0
    8.5934    0.4770   22.1699 H   0  0  0  0  0  0  0  0  0  0  0  0
  1  2  1  0  0  0  0
  1  3  2  0  0  0  0
  2  4  2  0  0  0  0
  3  5  1  0  0  0  0
  4  8  1  0  0  0  0
  5  8  2  0  0  0  0
  6  9  1  0  0  0  0
  6 13  2  0  0  0  0
  7 13  1  0  0  0  0
  7 14  2  0  0  0  0
  8 15  1  0  0  0  0
  9 10  2  0  0  0  0
  9 16  1  0  0  0  0
 10 12  1  0  0  0  0
 10 14  1  0  0  0  0
 11 15  1  0  0  0  0
 11 16  1  0  0  0  0
 11 17  2  0  0  0  0
 15 18  1  0  0  0  0
 16 19  1  0  0  0  0
M  END

> <original SMILES>

Cc1ncncc1NC(=O)Nc1ccccc1

> <ref_mols>

x0072_0,x0104_0,x0107_0,x0434_0,x0540_0,x1375_0,x1493_0

> <ref_pdb>

receptors/Mpro-x1493-protein.pdb

> <Chemgauss4>

-1.195313

> <binding_free_energy>

-5.158626144238639

> <binding_std_error>

0.5095734497175171

$$$$
JOH-MSK-35a8745a-1
  -OEChem-05122002103D

 19 20  0     0  0  0  0  0  0999 V2000
   10.7268   -0.2504   23.9310 C   0  0  0  0  0  0  0  0  0  0  0  0
   11.7849   -0.8493   23.2412 C   0  0  0  0  0  0  0  0  0  0  0  0
   12.8509    1.3042   22.8900 C   0  0  0  0  0  0  0  0  0  0  0  0
   10.3060    3.2810   24.6152 C   0  0  0  0  0  0  0  0  0  0  0  0
   11.7950    1.9302   23.5818 C   0  0  0  0  0  0  0  0  0  0  0  0
   11.4955    3.2786   23.9239 C   0  0  0  0  0  0  0  0  0  0  0  0
   10.7594    1.1400   24.0853 C   0  0  0  0  0  0  0  0  0  0  0  0
   12.8316   -0.0859   22.7280 C   0  0  0  0  0  0  0  0  0  0  0  0
    9.2671    6.6294   23.3799 C   0  0  0  0  0  0  0  0  0  0  0  0
    8.1507    6.5924   22.3897 C   0  0  0  0  0  0  0  0  0  0  0  0
   13.7766   -2.1162   21.9276 C   0  0  0  0  0  0  0  0  0  0  0  0
   12.3081    4.4688   23.6014 C   0  0  0  0  0  0  0  0  0  0  0  0
   11.5735    5.8057   23.8097 C   0  0  0  0  0  0  0  0  0  0  0  0
    9.8699    1.9865   24.7078 N   0  0  0  0  0  0  0  0  0  0  0  0
   10.3856    5.9028   23.0044 N   0  0  0  0  0  0  0  0  0  0  0  0
    9.1350    7.2708   24.4157 O   0  0  0  0  0  0  0  0  0  0  0  0
   13.8500   -0.6984   22.0606 O   0  0  0  0  0  0  0  0  0  0  0  0
    9.0179    1.6937   25.1659 H   0  0  0  0  0  0  0  0  0  0  0  0
   10.3656    5.4119   22.1119 H   0  0  0  0  0  0  0  0  0  0  0  0
  1  2  2  0  0  0  0
  1  7  1  0  0  0  0
  2  8  1  0  0  0  0
  3  5  1  0  0  0  0
  3  8  2  0  0  0  0
  4  6  2  0  0  0  0
  4 14  1  0  0  0  0
  5  6  1  0  0  0  0
  5  7  2  0  0  0  0
  6 12  1  0  0  0  0
  7 14  1  0  0  0  0
  8 17  1  0  0  0  0
  9 10  1  0  0  0  0
  9 15  1  0  0  0  0
  9 16  2  0  0  0  0
 11 17  1  0  0  0  0
 12 13  1  0  0  0  0
 13 15  1  0  0  0  0
 14 18  1  0  0  0  0
 15 19  1  0  0  0  0
M  END

> <original SMILES>

COc1ccc2[nH]cc(CCNC(C)=O)c2c1

> <ref_mols>

x0104_0

> <ref_pdb>

receptors/Mpro-x0104_0.pdb

> <Chemgauss4>

-8.540813

> <binding_free_energy>

-5.038109600000013

> <binding_std_error>

0.060674999999989154

$$$$
MUS-SCH-c2f96c06-4
  -OEChem-05122002103D

 23 25  0     0  0  0  0  0  0999 V2000
    5.0075    0.9522   19.0851 C   0  0  0  0  0  0  0  0  0  0  0  0
   10.0111   -0.3320   22.8813 C   0  0  0  0  0  0  0  0  0  0  0  0
    7.8401   -0.8556   21.9885 C   0  0  0  0  0  0  0  0  0  0  0  0
    5.4348    0.6248   17.8083 C   0  0  0  0  0  0  0  0  0  0  0  0
   10.1941    0.5111   21.7971 C   0  0  0  0  0  0  0  0  0  0  0  0
    7.4906   -0.0571   18.5745 C   0  0  0  0  0  0  0  0  0  0  0  0
    8.6885   -3.9876   26.4001 C   0  0  0  0  0  0  0  0  0  0  0  0
    8.4662   -5.6627   24.9931 C   0  0  0  0  0  0  0  0  0  0  0  0
    7.1597    0.2385   19.8871 C   0  0  0  0  0  0  0  0  0  0  0  0
    8.8089   -1.0247   22.9715 C   0  0  0  0  0  0  0  0  0  0  0  0
    5.8924    0.7524   20.1388 C   0  0  0  0  0  0  0  0  0  0  0  0
    8.7338   -4.3161   25.0320 C   0  0  0  0  0  0  0  0  0  0  0  0
    8.1202    0.0110   20.9443 C   0  0  0  0  0  0  0  0  0  0  0  0
    8.5606   -1.9451   24.1177 C   0  0  0  0  0  0  0  0  0  0  0  0
    9.0142   -3.3973   23.8679 C   0  0  0  0  0  0  0  0  0  0  0  0
    5.4500    1.1008   21.5230 C   0  0  0  0  0  0  0  0  0  0  0  0
    6.6579    0.1235   17.5249 N   0  0  0  0  0  0  0  0  0  0  0  0
    9.2764    0.7011   20.8228 N   0  0  0  0  0  0  0  0  0  0  0  0
    8.4135   -5.0406   27.1744 N   0  0  0  0  0  0  0  0  0  0  0  0
    8.2836   -6.0440   26.2898 N   0  0  0  0  0  0  0  0  0  0  0  0
    4.5188    2.1728   21.4623 O   0  0  0  0  0  0  0  0  0  0  0  0
    8.0678   -6.9684   26.6417 H   0  0  0  0  0  0  0  0  0  0  0  0
    4.2568    2.3684   22.3764 H   0  0  0  0  0  0  0  0  0  0  0  0
  1  4  2  0  0  0  0
  1 11  1  0  0  0  0
  2  5  2  0  0  0  0
  2 10  1  0  0  0  0
  3 10  2  0  0  0  0
  3 13  1  0  0  0  0
  4 17  1  0  0  0  0
  5 18  1  0  0  0  0
  6  9  1  0  0  0  0
  6 17  2  0  0  0  0
  7 12  1  0  0  0  0
  7 19  2  0  0  0  0
  8 12  2  0  0  0  0
  8 20  1  0  0  0  0
  9 11  2  0  0  0  0
  9 13  1  0  0  0  0
 10 14  1  0  0  0  0
 11 16  1  0  0  0  0
 12 15  1  0  0  0  0
 13 18  2  0  0  0  0
 14 15  1  0  0  0  0
 16 21  1  0  0  0  0
 19 20  1  0  0  0  0
 20 22  1  0  0  0  0
 21 23  1  0  0  0  0
M  END

> <original SMILES>

OCc1ccncc1-c1cc(CCc2cn[nH]c2)ccn1

> <ref_mols>

x0107_0,x0540_0,x0995_0

> <ref_pdb>

receptors/Mpro-x0540-protein.pdb

> <Chemgauss4>

-1.124989

> <binding_free_energy>

-4.973331539230784

> <binding_std_error>

0.09387710868706095

$$$$
ANT-DIA-3c79be55-2
  -OEChem-05122002103D

 19 20  0     0  0  0  0  0  0999 V2000
   11.2554    0.2332   23.0296 C   0  0  0  0  0  0  0  0  0  0  0  0
   13.8971   -1.5241   24.9622 C   0  0  0  0  0  0  0  0  0  0  0  0
   13.1976   -2.6268   25.4525 C   0  0  0  0  0  0  0  0  0  0  0  0
    7.1908   -6.3702   22.4102 C   0  0  0  0  0  0  0  0  0  0  0  0
   13.2462   -0.5847   24.1624 C   0  0  0  0  0  0  0  0  0  0  0  0
    7.6234   -5.3407   23.2386 C   0  0  0  0  0  0  0  0  0  0  0  0
   11.8474   -2.7902   25.1430 C   0  0  0  0  0  0  0  0  0  0  0  0
    6.2904   -6.0583   21.4043 C   0  0  0  0  0  0  0  0  0  0  0  0
    6.2506   -3.8410   22.0046 C   0  0  0  0  0  0  0  0  0  0  0  0
   11.8960   -0.7480   23.8529 C   0  0  0  0  0  0  0  0  0  0  0  0
    7.1491   -4.0490   23.0387 C   0  0  0  0  0  0  0  0  0  0  0  0
   11.1965   -1.8508   24.3432 C   0  0  0  0  0  0  0  0  0  0  0  0
    9.0072   -3.0905   24.4642 C   0  0  0  0  0  0  0  0  0  0  0  0
    7.5990   -2.9123   23.9186 C   0  0  0  0  0  0  0  0  0  0  0  0
   10.7363    1.0283   22.3624 N   0  0  0  0  0  0  0  0  0  0  0  0
    5.8074   -4.8158   21.1794 N   0  0  0  0  0  0  0  0  0  0  0  0
    9.8423   -2.0422   24.0504 N   0  0  0  0  0  0  0  0  0  0  0  0
    9.3215   -4.0448   25.1683 O   0  0  0  0  0  0  0  0  0  0  0  0
    9.4056   -1.3273   23.4596 H   0  0  0  0  0  0  0  0  0  0  0  0
  1 10  1  0  0  0  0
  1 15  3  0  0  0  0
  2  3  1  0  0  0  0
  2  5  2  0  0  0  0
  3  7  2  0  0  0  0
  4  6  2  0  0  0  0
  4  8  1  0  0  0  0
  5 10  1  0  0  0  0
  6 11  1  0  0  0  0
  7 12  1  0  0  0  0
  8 16  2  0  0  0  0
  9 11  2  0  0  0  0
  9 16  1  0  0  0  0
 10 12  2  0  0  0  0
 11 14  1  0  0  0  0
 12 17  1  0  0  0  0
 13 14  1  0  0  0  0
 13 17  1  0  0  0  0
 13 18  2  0  0  0  0
 17 19  1  0  0  0  0
M  END

> <original SMILES>

N#Cc1ccccc1NC(=O)Cc1cccnc1

> <ref_mols>

x0072_0,x0305_0,x0387_0,x0434_0,x0678_0,x0830_0,x1249_0

> <ref_pdb>

receptors/Mpro-x0434-protein.pdb

> <Chemgauss4>

-7.423989

> <binding_free_energy>

-4.898661239999996

> <binding_std_error>

0.5169325397457971

$$$$
GIA-UNK-995df016-17
  -OEChem-05122002103D

 19 20  0     0  0  0  0  0  0999 V2000
   10.4174    6.2997   24.9031 C   0  0  0  0  0  0  0  0  0  0  0  0
   11.4603    5.3418   24.8602 C   0  0  0  0  0  0  0  0  0  0  0  0
    9.9265    6.4309   23.6229 C   0  0  0  0  0  0  0  0  0  0  0  0
   11.5752    4.9170   23.5549 C   0  0  0  0  0  0  0  0  0  0  0  0
   12.5033    3.9393   22.9991 C   0  0  0  0  0  0  0  0  0  0  0  0
   10.9401   -0.9203   23.1581 C   0  0  0  0  0  0  0  0  0  0  0  0
   10.9001    1.1375   24.5643 C   0  0  0  0  0  0  0  0  0  0  0  0
   13.0448    0.3704   23.4281 C   0  0  0  0  0  0  0  0  0  0  0  0
   10.7735    2.2281   23.5002 C   0  0  0  0  0  0  0  0  0  0  0  0
   12.8395    1.4765   22.3943 C   0  0  0  0  0  0  0  0  0  0  0  0
   11.7449   -0.0527   24.1120 C   0  0  0  0  0  0  0  0  0  0  0  0
    8.6006   -2.3096   22.8141 C   0  0  0  0  0  0  0  0  0  0  0  0
   10.6380    5.5860   22.8117 N   0  0  0  0  0  0  0  0  0  0  0  0
   12.0888    2.5951   22.9766 N   0  0  0  0  0  0  0  0  0  0  0  0
   13.6005    4.3014   22.5708 O   0  0  0  0  0  0  0  0  0  0  0  0
   10.9581   -0.7710   21.9423 O   0  0  0  0  0  0  0  0  0  0  0  0
    7.9527   -1.1174   22.7250 F   0  0  0  0  0  0  0  0  0  0  0  0
    9.9819   -2.1610   23.9654 S   0  0  0  0  0  0  0  0  0  0  0  0
   10.4919    5.4753   21.8176 H   0  0  0  0  0  0  0  0  0  0  0  0
  1  2  1  0  0  0  0
  1  3  2  0  0  0  0
  2  4  2  0  0  0  0
  3 13  1  0  0  0  0
  4  5  1  0  0  0  0
  4 13  1  0  0  0  0
  5 14  1  0  0  0  0
  5 15  2  0  0  0  0
  6 11  1  0  0  0  0
  6 16  2  0  0  0  0
  6 18  1  0  0  0  0
  7  9  1  0  0  0  0
  7 11  1  0  0  0  0
  8 10  1  0  0  0  0
  8 11  1  0  0  0  0
  9 14  1  0  0  0  0
 10 14  1  0  0  0  0
 12 17  1  0  0  0  0
 12 18  1  0  0  0  0
 13 19  1  0  0  0  0
M  END

> <original SMILES>

O=C(SCF)C1CCN(C(=O)c2ccc[nH]2)CC1

> <ref_mols>

x1334_0

> <ref_pdb>

receptors/protein-0387.pdb

> <Chemgauss4>

-5.95411777496338

> <binding_free_energy>

-4.878647204367795

> <binding_std_error>

5.371359663956953

$$$$
SAL-INS-1c7a5a55-6
  -OEChem-05122002103D

 27 30  0     1  0  0  0  0  0999 V2000
   13.4128   -2.6160   26.6284 C   0  0  0  0  0  0  0  0  0  0  0  0
   12.3942   -3.4982   26.2677 C   0  0  0  0  0  0  0  0  0  0  0  0
   13.5951   -1.4350   25.9156 C   0  0  0  0  0  0  0  0  0  0  0  0
   10.5166   -4.0871   24.8085 C   0  0  0  0  0  0  0  0  0  0  0  0
   10.8783   -1.7223   23.3848 C   0  0  0  0  0  0  0  0  0  0  0  0
    6.5592   -3.7301   24.6459 C   0  0  0  0  0  0  0  0  0  0  0  0
    6.0195   -5.5682   25.7353 C   0  0  0  0  0  0  0  0  0  0  0  0
   11.5446   -3.2095   25.1870 C   0  0  0  0  0  0  0  0  0  0  0  0
   11.7291   -2.0107   24.4639 C   0  0  0  0  0  0  0  0  0  0  0  0
    9.8470   -2.5991   23.0130 C   0  0  0  0  0  0  0  0  0  0  0  0
    9.6700   -3.7952   23.7259 C   0  0  0  0  0  0  0  0  0  0  0  0
   12.7593   -1.1330   24.8402 C   0  0  0  0  0  0  0  0  0  0  0  0
    7.3956   -4.7717   24.3202 C   0  0  0  0  0  0  0  0  0  0  0  0
    6.6249   -2.7722   21.0429 C   0  0  0  0  0  0  0  0  0  0  0  0
    8.9664   -2.2288   21.8442 C   0  0  0  0  0  0  0  0  0  0  0  0
    8.1033   -4.5555   21.9005 C   0  0  0  0  0  0  0  0  0  0  0  0
    8.5691   -4.7701   23.3496 C   0  0  1  0  0  0  0  0  0  0  0  0
    6.4873   -1.3238   20.6442 C   0  0  0  0  0  0  0  0  0  0  0  0
    7.0542   -5.9131   25.0015 N   0  0  0  0  0  0  0  0  0  0  0  0
    5.6828   -4.2557   25.5530 N   0  0  0  0  0  0  0  0  0  0  0  0
    7.8412   -3.1449   21.6197 N   0  0  0  0  0  0  0  0  0  0  0  0
   12.9996    0.0931   24.1525 N   0  0  0  0  0  0  0  0  0  0  0  0
    5.6807   -3.5434   20.8551 O   0  0  0  0  0  0  0  0  0  0  0  0
   13.9352    0.8280   24.5417 O   0  0  0  0  0  0  0  0  0  0  0  0
   12.2670    0.3928   23.1827 O   0  0  0  0  0  0  0  0  0  0  0  0
    5.4231   -1.2870   19.2431 Cl  0  0  0  0  0  0  0  0  0  0  0  0
    4.9246   -3.7641   26.0071 H   0  0  0  0  0  0  0  0  0  0  0  0
  1  2  2  0  0  0  0
  1  3  1  0  0  0  0
  2  8  1  0  0  0  0
  3 12  2  0  0  0  0
  4  8  2  0  0  0  0
  4 11  1  0  0  0  0
  5  9  2  0  0  0  0
  5 10  1  0  0  0  0
  6 13  2  0  0  0  0
  6 20  1  0  0  0  0
  7 19  2  0  0  0  0
  7 20  1  0  0  0  0
  8  9  1  0  0  0  0
  9 12  1  0  0  0  0
 10 11  2  0  0  0  0
 10 15  1  0  0  0  0
 11 17  1  0  0  0  0
 12 22  1  0  0  0  0
 13 17  1  0  0  0  0
 13 19  1  0  0  0  0
 14 18  1  0  0  0  0
 14 21  1  0  0  0  0
 14 23  2  0  0  0  0
 15 21  1  0  0  0  0
 16 17  1  0  0  0  0
 16 21  1  0  0  0  0
 18 26  1  0  0  0  0
 22 24  2  0  0  0  0
 22 25  2  0  0  0  0
 20 27  1  0  0  0  0
M  END

> <original SMILES>

O=C(CCl)N1Cc2cc3c([N+](=O)[O-])cccc3cc2C(c2c[nH]cn2)C1

> <ref_mols>

x0734_0,x1374_0,x1385_0,x1392_0,x1458_0

> <ref_pdb>

receptors/protein-0387.pdb

> <Chemgauss4>

-6.33078861236572

> <binding_free_energy>

-4.830868722222222

> <binding_std_error>

0.14150152575992933

$$$$
GIA-UNK-995df016-3
  -OEChem-05122002103D

 16 17  0     0  0  0  0  0  0999 V2000
    6.7636   -4.7490   22.2493 C   0  0  0  0  0  0  0  0  0  0  0  0
   11.0729   -2.3778   24.6244 C   0  0  0  0  0  0  0  0  0  0  0  0
    5.6509   -5.4055   24.4791 C   0  0  0  0  0  0  0  0  0  0  0  0
    4.6679   -5.7182   23.3915 C   0  0  0  0  0  0  0  0  0  0  0  0
    9.5901   -4.3438   24.4089 C   0  0  0  0  0  0  0  0  0  0  0  0
    9.6658   -2.5977   22.5918 C   0  0  0  0  0  0  0  0  0  0  0  0
    8.8651   -5.2778   23.4435 C   0  0  0  0  0  0  0  0  0  0  0  0
    8.9388   -3.5680   21.6630 C   0  0  0  0  0  0  0  0  0  0  0  0
    6.1328   -5.8021   23.1247 C   0  0  0  0  0  0  0  0  0  0  0  0
   10.4745   -3.3482   23.6534 C   0  0  0  0  0  0  0  0  0  0  0  0
   13.4107   -1.3255   25.5985 C   0  0  0  0  0  0  0  0  0  0  0  0
    8.1257   -4.5158   22.4351 N   0  0  0  0  0  0  0  0  0  0  0  0
    6.0655   -4.1540   21.4243 O   0  0  0  0  0  0  0  0  0  0  0  0
   10.5439   -1.3120   24.9160 O   0  0  0  0  0  0  0  0  0  0  0  0
   13.5610   -0.6700   24.4166 F   0  0  0  0  0  0  0  0  0  0  0  0
   12.6068   -2.9146   25.3088 S   0  0  0  0  0  0  0  0  0  0  0  0
  1  9  1  0  0  0  0
  1 12  1  0  0  0  0
  1 13  2  0  0  0  0
  2 10  1  0  0  0  0
  2 14  2  0  0  0  0
  2 16  1  0  0  0  0
  3  4  1  0  0  0  0
  3  9  1  0  0  0  0
  4  9  1  0  0  0  0
  5  7  1  0  0  0  0
  5 10  1  0  0  0  0
  6  8  1  0  0  0  0
  6 10  1  0  0  0  0
  7 12  1  0  0  0  0
  8 12  1  0  0  0  0
 11 15  1  0  0  0  0
 11 16  1  0  0  0  0
M  END

> <original SMILES>

O=C(SCF)C1CCN(C(=O)C2CC2)CC1

> <ref_mols>

x1334_0

> <ref_pdb>

receptors/protein-0387.pdb

> <Chemgauss4>

-4.68108415603638

> <binding_free_energy>

-4.816782840000016

> <binding_std_error>

2.1478806183810466

$$$$
VIJ-CYC-1a381570-12
  -OEChem-05122002103D

 19 19  0     1  0  0  0  0  0999 V2000
    8.2145    0.1153   20.7697 C   0  0  0  0  0  0  0  0  0  0  0  0
   11.3845   -1.2019   22.4825 C   0  0  0  0  0  0  0  0  0  0  0  0
   10.2521   -0.5321   24.5088 C   0  0  0  0  0  0  0  0  0  0  0  0
   10.2569   -1.9233   22.0907 C   0  0  0  0  0  0  0  0  0  0  0  0
    9.1244   -1.2534   24.1170 C   0  0  0  0  0  0  0  0  0  0  0  0
   11.3822   -0.5064   23.6916 C   0  0  0  0  0  0  0  0  0  0  0  0
    9.1268   -1.9491   22.9079 C   0  0  0  0  0  0  0  0  0  0  0  0
    6.9126   -0.0433   18.0421 C   0  0  0  0  0  0  0  0  0  0  0  0
    5.4367   -1.8461   18.9660 C   0  0  0  0  0  0  0  0  0  0  0  0
   12.5880    0.2644   24.1111 C   0  0  0  0  0  0  0  0  0  0  0  0
    7.3961   -1.0402   20.3658 C   0  0  2  0  0  0  0  0  0  0  0  0
    6.3244   -0.6485   19.3225 C   0  0  0  0  0  0  0  0  0  0  0  0
    8.8625    1.0239   21.0878 N   0  0  0  0  0  0  0  0  0  0  0  0
    6.8245   -1.6704   21.5308 N   0  0  0  0  0  0  0  0  0  0  0  0
    8.1251   -3.8986   21.4915 O   0  0  0  0  0  0  0  0  0  0  0  0
    6.9759   -3.2101   23.6199 O   0  0  0  0  0  0  0  0  0  0  0  0
   12.2830    1.5845   24.2591 F   0  0  0  0  0  0  0  0  0  0  0  0
    7.6967   -2.8614   22.4106 S   0  0  0  0  0  0  0  0  0  0  0  0
    6.0979   -1.1407   22.0526 H   0  0  0  0  0  0  0  0  0  0  0  0
  1 11  1  0  0  0  0
  1 13  3  0  0  0  0
  2  4  2  0  0  0  0
  2  6  1  0  0  0  0
  3  5  1  0  0  0  0
  3  6  2  0  0  0  0
  4  7  1  0  0  0  0
  5  7  2  0  0  0  0
  6 10  1  0  0  0  0
  7 18  1  0  0  0  0
  8 12  1  0  0  0  0
  9 12  1  0  0  0  0
 10 17  1  0  0  0  0
 11 12  1  0  0  0  0
 11 14  1  0  0  0  0
 14 18  1  0  0  0  0
 15 18  2  0  0  0  0
 16 18  2  0  0  0  0
 14 19  1  0  0  0  0
M  END

> <original SMILES>

CC(C)[C@@H](C#N)NS(=O)(=O)c1ccc(CF)cc1

> <ref_mols>

x0072_0,x0161_0,x0995_0

> <ref_pdb>

receptors/Mpro-x0161-protein.pdb

> <Chemgauss4>

-7.813967

> <binding_free_energy>

-4.732154606853385

> <binding_std_error>

0.3439617577681806

$$$$
GER-UNI-cad0fe83-1
  -OEChem-05122002103D

 22 25  0     1  0  0  0  0  0999 V2000
    6.1452   -5.1819   21.3872 C   0  0  0  0  0  0  0  0  0  0  0  0
    6.1358   -3.9417   22.0253 C   0  0  0  0  0  0  0  0  0  0  0  0
    7.2304   -6.0428   21.5520 C   0  0  0  0  0  0  0  0  0  0  0  0
    7.2115   -3.5621   22.8280 C   0  0  0  0  0  0  0  0  0  0  0  0
    8.3061   -5.6632   22.3547 C   0  0  0  0  0  0  0  0  0  0  0  0
    8.0342   -1.7556   26.6557 C   0  0  0  0  0  0  0  0  0  0  0  0
    8.5743   -0.5222   26.2924 C   0  0  0  0  0  0  0  0  0  0  0  0
    9.7595   -1.5791   24.4810 C   0  0  0  0  0  0  0  0  0  0  0  0
    8.2967   -4.4229   22.9927 C   0  0  0  0  0  0  0  0  0  0  0  0
    9.2200   -2.8363   24.8205 C   0  0  0  0  0  0  0  0  0  0  0  0
    8.3703   -2.9173   25.9409 C   0  0  0  0  0  0  0  0  0  0  0  0
    9.4444   -0.4349   25.2129 C   0  0  0  0  0  0  0  0  0  0  0  0
    8.3986   -5.4132   26.1663 C   0  0  0  0  0  0  0  0  0  0  0  0
    6.7764   -4.3890   27.1889 C   0  0  0  0  0  0  0  0  0  0  0  0
    9.6173   -5.7604   25.5035 C   0  0  0  0  0  0  0  0  0  0  0  0
    9.4827   -4.0052   23.8770 C   0  0  1  0  0  0  0  0  0  0  0  0
    5.7569   -3.3992   27.5968 C   0  0  0  0  0  0  0  0  0  0  0  0
    7.6879   -6.3145   26.8134 N   0  0  0  0  0  0  0  0  0  0  0  0
    6.6532   -5.6707   27.4415 N   0  0  0  0  0  0  0  0  0  0  0  0
   10.1700   -5.1354   24.5261 N   0  0  0  0  0  0  0  0  0  0  0  0
    7.8587   -4.1615   26.3760 N   0  0  0  0  0  0  0  0  0  0  0  0
   10.1173    1.0854   24.7690 Cl  0  0  0  0  0  0  0  0  0  0  0  0
  1  2  1  0  0  0  0
  1  3  2  0  0  0  0
  2  4  2  0  0  0  0
  3  5  1  0  0  0  0
  4  9  1  0  0  0  0
  5  9  2  0  0  0  0
  6  7  2  0  0  0  0
  6 11  1  0  0  0  0
  7 12  1  0  0  0  0
  8 10  1  0  0  0  0
  8 12  2  0  0  0  0
  9 16  1  0  0  0  0
 10 11  2  0  0  0  0
 10 16  1  0  0  0  0
 11 21  1  0  0  0  0
 12 22  1  0  0  0  0
 13 15  1  0  0  0  0
 13 18  2  0  0  0  0
 13 21  1  0  0  0  0
 14 17  1  0  0  0  0
 14 19  2  0  0  0  0
 14 21  1  0  0  0  0
 15 20  2  0  0  0  0
 16 20  1  0  0  0  0
 18 19  1  0  0  0  0
M  END

> <original SMILES>

Cc1nnc2n1-c1ccc(Cl)cc1C(c1ccccc1)=NC2

> <ref_mols>

x0072_0

> <ref_pdb>

receptors/Mpro-x0072-protein.pdb

> <Chemgauss4>

-7.59986

> <binding_free_energy>

-4.6742389391413965

> <binding_std_error>

0.09645063559177863

$$$$
NAU-LAT-ec9c7557-5
  -OEChem-05122002103D

 25 28  0     1  0  0  0  0  0999 V2000
    8.7441   -5.3906   26.2219 C   0  0  0  0  0  0  0  0  0  0  0  0
    9.9780   -5.0167   25.6897 C   0  0  0  0  0  0  0  0  0  0  0  0
    7.6412   -4.5476   26.0851 C   0  0  0  0  0  0  0  0  0  0  0  0
   12.5393   -1.4288   22.2786 C   0  0  0  0  0  0  0  0  0  0  0  0
    6.7715    0.0882   21.6752 C   0  0  0  0  0  0  0  0  0  0  0  0
   13.0842   -0.3442   22.9867 C   0  0  0  0  0  0  0  0  0  0  0  0
    6.2623   -1.0025   20.9705 C   0  0  0  0  0  0  0  0  0  0  0  0
   10.1091   -3.7996   25.0209 C   0  0  0  0  0  0  0  0  0  0  0  0
    7.7723   -3.3306   25.4163 C   0  0  0  0  0  0  0  0  0  0  0  0
   11.2638   -1.9154   22.5828 C   0  0  0  0  0  0  0  0  0  0  0  0
    7.7012   -0.1132   22.6954 C   0  0  0  0  0  0  0  0  0  0  0  0
   12.3626    0.2719   24.0093 C   0  0  0  0  0  0  0  0  0  0  0  0
    6.6825   -2.2946   21.2861 C   0  0  0  0  0  0  0  0  0  0  0  0
    9.0062   -2.9566   24.8841 C   0  0  0  0  0  0  0  0  0  0  0  0
   10.5488   -1.3052   23.6037 C   0  0  0  0  0  0  0  0  0  0  0  0
    8.1214   -1.4052   23.0111 C   0  0  0  0  0  0  0  0  0  0  0  0
   11.1055   -0.2275   24.2904 C   0  0  0  0  0  0  0  0  0  0  0  0
    7.6121   -2.4960   22.3064 C   0  0  0  0  0  0  0  0  0  0  0  0
    9.0313   -0.4943   25.2531 C   0  0  0  0  0  0  0  0  0  0  0  0
    9.1507   -1.6086   24.1438 C   0  0  1  0  0  0  0  0  0  0  0  0
   10.2204    0.2382   25.2511 N   0  0  0  0  0  0  0  0  0  0  0  0
    8.0695   -0.3069   25.9857 O   0  0  0  0  0  0  0  0  0  0  0  0
    8.0114   -3.7645   22.6027 O   0  0  0  0  0  0  0  0  0  0  0  0
   10.4126    1.0136   25.8743 H   0  0  0  0  0  0  0  0  0  0  0  0
    7.5637   -4.4005   22.0231 H   0  0  0  0  0  0  0  0  0  0  0  0
  1  2  1  0  0  0  0
  1  3  2  0  0  0  0
  2  8  2  0  0  0  0
  3  9  1  0  0  0  0
  4  6  1  0  0  0  0
  4 10  2  0  0  0  0
  5  7  1  0  0  0  0
  5 11  2  0  0  0  0
  6 12  2  0  0  0  0
  7 13  2  0  0  0  0
  8 14  1  0  0  0  0
  9 14  2  0  0  0  0
 10 15  1  0  0  0  0
 11 16  1  0  0  0  0
 12 17  1  0  0  0  0
 13 18  1  0  0  0  0
 14 20  1  0  0  0  0
 15 17  2  0  0  0  0
 15 20  1  0  0  0  0
 16 18  2  0  0  0  0
 16 20  1  0  0  0  0
 17 21  1  0  0  0  0
 18 23  1  0  0  0  0
 19 20  1  0  0  0  0
 19 21  1  0  0  0  0
 19 22  2  0  0  0  0
 21 24  1  0  0  0  0
 23 25  1  0  0  0  0
M  END

> <original SMILES>

O=C1Nc2ccccc2C1(c1ccccc1)c1ccccc1O

> <ref_mols>

x1093_0

> <ref_pdb>

receptors/protein-0387.pdb

> <Chemgauss4>

-5.9029688835144

> <binding_free_energy>

-4.595670652276617

> <binding_std_error>

0.6142256889994819

$$$$
CHR-SOS-7098f804-12
  -OEChem-05122002103D

 17 18  0     0  0  0  0  0  0999 V2000
   13.1452   -0.4387   24.2904 C   0  0  0  0  0  0  0  0  0  0  0  0
    6.4766    0.4467   19.7640 C   0  0  0  0  0  0  0  0  0  0  0  0
   11.8572   -0.1758   23.8242 C   0  0  0  0  0  0  0  0  0  0  0  0
    7.5976    0.1880   20.5448 C   0  0  0  0  0  0  0  0  0  0  0  0
   14.0265   -1.1937   23.5164 C   0  0  0  0  0  0  0  0  0  0  0  0
   12.3315   -1.4230   21.8101 C   0  0  0  0  0  0  0  0  0  0  0  0
    6.6179    0.3890   18.3869 C   0  0  0  0  0  0  0  0  0  0  0  0
    8.8456   -0.1490   18.5485 C   0  0  0  0  0  0  0  0  0  0  0  0
   11.4503   -0.6679   22.5841 C   0  0  0  0  0  0  0  0  0  0  0  0
    8.8087   -0.1163   19.9332 C   0  0  0  0  0  0  0  0  0  0  0  0
   13.6196   -1.6859   22.2763 C   0  0  0  0  0  0  0  0  0  0  0  0
   10.1070   -0.3939   22.0992 C   0  0  0  0  0  0  0  0  0  0  0  0
    7.7777    0.0968   17.7568 N   0  0  0  0  0  0  0  0  0  0  0  0
    9.9690   -0.3845   20.7025 N   0  0  0  0  0  0  0  0  0  0  0  0
    9.1709   -0.1535   22.8745 O   0  0  0  0  0  0  0  0  0  0  0  0
   14.7077   -2.6171   21.3215 Cl  0  0  0  0  0  0  0  0  0  0  0  0
   10.8109   -0.5978   20.1734 H   0  0  0  0  0  0  0  0  0  0  0  0
  1  3  2  0  0  0  0
  1  5  1  0  0  0  0
  2  4  2  0  0  0  0
  2  7  1  0  0  0  0
  3  9  1  0  0  0  0
  4 10  1  0  0  0  0
  5 11  2  0  0  0  0
  6  9  2  0  0  0  0
  6 11  1  0  0  0  0
  7 13  2  0  0  0  0
  8 10  2  0  0  0  0
  8 13  1  0  0  0  0
  9 12  1  0  0  0  0
 10 14  1  0  0  0  0
 11 16  1  0  0  0  0
 12 14  1  0  0  0  0
 12 15  2  0  0  0  0
 14 17  1  0  0  0  0
M  END

> <original SMILES>

O=C(Nc1cccnc1)c1cccc(Cl)c1

> <ref_mols>

x0107_0,x0161_0,x0195_0,x0678_0,x0946_0

> <ref_pdb>

receptors/Mpro-x0678-protein.pdb

> <Chemgauss4>

-9.620449

> <binding_free_energy>

-4.494363960594029

> <binding_std_error>

1.1350931702884552

$$$$
GIA-UNK-995df016-13
  -OEChem-05122002103D

 18 19  0     0  0  0  0  0  0999 V2000
    8.1165   -4.1658   22.4992 C   0  0  0  0  0  0  0  0  0  0  0  0
   12.1012   -1.8159   24.6579 C   0  0  0  0  0  0  0  0  0  0  0  0
    5.4397   -5.8208   23.2864 C   0  0  0  0  0  0  0  0  0  0  0  0
    6.1540   -6.2287   24.5624 C   0  0  0  0  0  0  0  0  0  0  0  0
    6.5061   -6.0183   22.2180 C   0  0  0  0  0  0  0  0  0  0  0  0
    7.5627   -5.6671   24.3976 C   0  0  0  0  0  0  0  0  0  0  0  0
    9.7433   -1.3769   23.9951 C   0  0  0  0  0  0  0  0  0  0  0  0
   10.3483   -3.4949   25.2644 C   0  0  0  0  0  0  0  0  0  0  0  0
    9.6282   -2.2207   22.7268 C   0  0  0  0  0  0  0  0  0  0  0  0
   10.1957   -4.2766   23.9589 C   0  0  0  0  0  0  0  0  0  0  0  0
    7.8097   -5.5997   22.8909 C   0  0  0  0  0  0  0  0  0  0  0  0
   10.6636   -2.0122   25.0423 C   0  0  0  0  0  0  0  0  0  0  0  0
   14.1375   -0.9332   26.2691 C   0  0  0  0  0  0  0  0  0  0  0  0
    9.2640   -3.5990   23.0523 N   0  0  0  0  0  0  0  0  0  0  0  0
    7.3552   -3.5756   21.7283 O   0  0  0  0  0  0  0  0  0  0  0  0
   12.4460   -1.2696   23.6170 O   0  0  0  0  0  0  0  0  0  0  0  0
   15.0747   -1.2100   27.2146 F   0  0  0  0  0  0  0  0  0  0  0  0
   13.2444   -2.4426   25.8451 S   0  0  0  0  0  0  0  0  0  0  0  0
  1 11  1  0  0  0  0
  1 14  1  0  0  0  0
  1 15  2  0  0  0  0
  2 12  1  0  0  0  0
  2 16  2  0  0  0  0
  2 18  1  0  0  0  0
  3  4  1  0  0  0  0
  3  5  1  0  0  0  0
  4  6  1  0  0  0  0
  5 11  1  0  0  0  0
  6 11  1  0  0  0  0
  7  9  1  0  0  0  0
  7 12  1  0  0  0  0
  8 10  1  0  0  0  0
  8 12  1  0  0  0  0
  9 14  1  0  0  0  0
 10 14  1  0  0  0  0
 13 17  1  0  0  0  0
 13 18  1  0  0  0  0
M  END

> <original SMILES>

O=C(SCF)C1CCN(C(=O)C2CCCC2)CC1

> <ref_mols>

x1334_0

> <ref_pdb>

receptors/protein-0387.pdb

> <Chemgauss4>

-4.65887403488159

> <binding_free_energy>

-4.488709803838361

> <binding_std_error>

1.622808702000702

$$$$
WAR-XCH-b6889685-3
  -OEChem-05122002103D

 26 28  0     1  0  0  0  0  0999 V2000
    7.5891    6.2842   22.9756 C   0  0  0  0  0  0  0  0  0  0  0  0
    9.9997   -1.7538   25.1311 C   0  0  0  0  0  0  0  0  0  0  0  0
   10.0800   -1.1216   22.8006 C   0  0  0  0  0  0  0  0  0  0  0  0
    9.1170   -2.7880   24.8201 C   0  0  0  0  0  0  0  0  0  0  0  0
    9.1972   -2.1558   22.4897 C   0  0  0  0  0  0  0  0  0  0  0  0
    8.7142    5.4403   22.7474 C   0  0  0  0  0  0  0  0  0  0  0  0
    7.8419    7.2339   23.9410 C   0  0  0  0  0  0  0  0  0  0  0  0
   10.4812   -0.9205   24.1213 C   0  0  0  0  0  0  0  0  0  0  0  0
    8.7157   -2.9891   23.4994 C   0  0  0  0  0  0  0  0  0  0  0  0
    9.7844    5.7773   23.5468 C   0  0  0  0  0  0  0  0  0  0  0  0
   10.6310    2.4421   24.5579 C   0  0  0  0  0  0  0  0  0  0  0  0
   12.1712    1.6453   22.7130 C   0  0  0  0  0  0  0  0  0  0  0  0
   11.0047    1.1912   25.3540 C   0  0  0  0  0  0  0  0  0  0  0  0
   12.5017    0.4103   23.5579 C   0  0  0  0  0  0  0  0  0  0  0  0
   11.7632    2.8389   23.5942 C   0  0  0  0  0  0  0  0  0  0  0  0
   12.0730    5.6500   24.4987 C   0  0  0  0  0  0  0  0  0  0  0  0
   11.3514    4.0321   22.7352 C   0  0  0  0  0  0  0  0  0  0  0  0
   11.3616    0.1110   24.4309 N   0  0  0  0  0  0  0  0  0  0  0  0
    6.1070   -3.4873   23.2728 N   0  0  0  0  0  0  0  0  0  0  0  0
   11.0470    5.1453   23.5698 N   0  0  3  0  0  0  0  0  0  0  0  0
    7.8009   -4.6444   21.7117 O   0  0  0  0  0  0  0  0  0  0  0  0
    7.7123   -5.3054   24.1413 O   0  0  0  0  0  0  0  0  0  0  0  0
    9.4305    7.1060   24.5675 S   0  0  0  0  0  0  0  0  0  0  0  0
    7.6103   -4.2829   23.1094 S   0  0  0  0  0  0  0  0  0  0  0  0
    5.5762   -3.2796   22.4181 H   0  0  0  0  0  0  0  0  0  0  0  0
    5.5180   -3.7305   24.0785 H   0  0  0  0  0  0  0  0  0  0  0  0
  1  6  1  0  0  0  0
  1  7  2  0  0  0  0
  2  4  2  0  0  0  0
  2  8  1  0  0  0  0
  3  5  1  0  0  0  0
  3  8  2  0  0  0  0
  4  9  1  0  0  0  0
  5  9  2  0  0  0  0
  6 10  2  0  0  0  0
  7 23  1  0  0  0  0
  8 18  1  0  0  0  0
  9 24  1  0  0  0  0
 10 20  1  0  0  0  0
 10 23  1  0  0  0  0
 11 13  1  0  0  0  0
 11 15  1  0  0  0  0
 12 14  1  0  0  0  0
 12 15  1  0  0  0  0
 13 18  1  0  0  0  0
 14 18  1  0  0  0  0
 15 17  1  0  0  0  0
 16 20  1  0  0  0  0
 17 20  1  0  0  0  0
 19 24  1  0  0  0  0
 21 24  2  0  0  0  0
 22 24  2  0  0  0  0
 19 25  1  0  0  0  0
 19 26  1  0  0  0  0
M  END

> <original SMILES>

CN(CC1CCN(c2ccc(S(N)(=O)=O)cc2)CC1)c1cccs1

> <ref_mols>

x0072_0,x0104_0,x0107_0,x0161_0,x0165_0

> <ref_pdb>

receptors/Mpro-x0104-protein.pdb

> <Chemgauss4>

-8.388055

> <binding_free_energy>

-4.4713420800000065

> <binding_std_error>

0.1267971565022731

$$$$
SUN-DEP-1496052a-1
  -OEChem-05122002103D

 12 12  0     1  0  0  0  0  0999 V2000
   12.8595    2.9052   22.8982 C   0  0  0  0  0  0  0  0  0  0  0  0
   11.7150    3.0028   23.5963 C   0  0  0  0  0  0  0  0  0  0  0  0
   13.5450    1.6035   22.6016 C   0  0  0  0  0  0  0  0  0  0  0  0
   11.0296    1.7918   24.1777 C   0  0  0  0  0  0  0  0  0  0  0  0
   11.9000    0.5312   24.1769 C   0  0  0  0  0  0  0  0  0  0  0  0
   12.6518    0.3776   22.8509 C   0  0  2  0  0  0  0  0  0  0  0  0
   11.0444    4.3224   23.8398 C   0  0  0  0  0  0  0  0  0  0  0  0
   14.1917   -1.0662   21.4895 C   0  0  0  0  0  0  0  0  0  0  0  0
   12.5985   -2.1245   23.1173 C   0  0  0  0  0  0  0  0  0  0  0  0
   13.4767   -0.9071   22.8300 C   0  0  0  0  0  0  0  0  0  0  0  0
   14.4793   -0.8212   23.8439 O   0  0  0  0  0  0  0  0  0  0  0  0
   14.9812   -1.6488   23.8022 H   0  0  0  0  0  0  0  0  0  0  0  0
  1  2  2  0  0  0  0
  1  3  1  0  0  0  0
  2  4  1  0  0  0  0
  2  7  1  0  0  0  0
  3  6  1  0  0  0  0
  4  5  1  0  0  0  0
  5  6  1  0  0  0  0
  6 10  1  0  0  0  0
  8 10  1  0  0  0  0
  9 10  1  0  0  0  0
 10 11  1  0  0  0  0
 11 12  1  0  0  0  0
M  END

> <original SMILES>

CC1=CCC(C(C)(C)O)CC1

> <ref_mols>

x0072_0,x0104_0,x0107_0

> <ref_pdb>

receptors/Mpro-x0072-protein.pdb

> <Chemgauss4>

-6.045083

> <binding_free_energy>

-4.4478991555202185

> <binding_std_error>

1.8542298833984612

$$$$
DUN-NEW-f8ce3686-12
  -OEChem-05122002103D

 19 20  0     0  0  0  0  0  0999 V2000
    6.4581   -4.0941   20.8026 C   0  0  0  0  0  0  0  0  0  0  0  0
    7.7767   -5.8101   21.9324 C   0  0  0  0  0  0  0  0  0  0  0  0
    8.7418   -6.2053   22.8632 C   0  0  0  0  0  0  0  0  0  0  0  0
    8.0800   -3.4743   22.5231 C   0  0  0  0  0  0  0  0  0  0  0  0
   10.6489   -4.0476   25.0594 C   0  0  0  0  0  0  0  0  0  0  0  0
    7.4494   -4.4662   21.7633 C   0  0  0  0  0  0  0  0  0  0  0  0
    9.0562   -3.8487   23.4678 C   0  0  0  0  0  0  0  0  0  0  0  0
    9.8748   -3.1318   24.3848 C   0  0  0  0  0  0  0  0  0  0  0  0
    9.3639   -5.2028   23.6157 C   0  0  0  0  0  0  0  0  0  0  0  0
   12.9898   -0.9185   25.5753 C   0  0  0  0  0  0  0  0  0  0  0  0
   14.2723   -1.5902   25.9392 C   0  0  0  0  0  0  0  0  0  0  0  0
    9.8973   -1.6687   24.5851 C   0  0  0  0  0  0  0  0  0  0  0  0
   11.1104   -0.9667   23.9481 C   0  0  0  0  0  0  0  0  0  0  0  0
    5.6535   -3.7920   20.0228 N   0  0  0  0  0  0  0  0  0  0  0  0
   10.3338   -5.2939   24.5885 N   0  0  0  0  0  0  0  0  0  0  0  0
   12.3572   -1.4605   24.4680 N   0  0  0  0  0  0  0  0  0  0  0  0
   12.5910    0.0262   26.2462 O   0  0  0  0  0  0  0  0  0  0  0  0
   10.7523   -6.1565   24.9081 H   0  0  0  0  0  0  0  0  0  0  0  0
   12.7981   -2.2496   23.9979 H   0  0  0  0  0  0  0  0  0  0  0  0
  1  6  1  0  0  0  0
  1 14  3  0  0  0  0
  2  3  2  0  0  0  0
  2  6  1  0  0  0  0
  3  9  1  0  0  0  0
  4  6  2  0  0  0  0
  4  7  1  0  0  0  0
  5  8  2  0  0  0  0
  5 15  1  0  0  0  0
  7  8  1  0  0  0  0
  7  9  2  0  0  0  0
  8 12  1  0  0  0  0
  9 15  1  0  0  0  0
 10 11  1  0  0  0  0
 10 16  1  0  0  0  0
 10 17  2  0  0  0  0
 12 13  1  0  0  0  0
 13 16  1  0  0  0  0
 15 18  1  0  0  0  0
 16 19  1  0  0  0  0
M  END

> <original SMILES>

CC(=O)NCCc1c[nH]c2ccc(C#N)cc12

> <ref_mols>

x0072_0,x1458_0

> <ref_pdb>

receptors/protein-0387.pdb

> <Chemgauss4>

-5.37841176986694

> <binding_free_energy>

-4.440789507904828

> <binding_std_error>

4.1384355290587775

$$$$
ANN-UNI-26382800-1
  -OEChem-05122002103D

 18 19  0     0  0  0  0  0  0999 V2000
   10.3345   -4.6691   24.4267 C   0  0  0  0  0  0  0  0  0  0  0  0
   11.3957   -3.9834   25.0072 C   0  0  0  0  0  0  0  0  0  0  0  0
    9.6536   -2.6371   23.3952 C   0  0  0  0  0  0  0  0  0  0  0  0
    9.4423   -3.9905   23.6040 C   0  0  0  0  0  0  0  0  0  0  0  0
   11.5196   -2.6304   24.7354 C   0  0  0  0  0  0  0  0  0  0  0  0
    6.9560   -6.6410   22.5332 C   0  0  0  0  0  0  0  0  0  0  0  0
    6.1094   -5.9531   21.7575 C   0  0  0  0  0  0  0  0  0  0  0  0
    8.0850   -6.0014   23.1636 C   0  0  0  0  0  0  0  0  0  0  0  0
    8.3071   -4.6891   22.9736 C   0  0  0  0  0  0  0  0  0  0  0  0
    6.3380   -4.4971   21.5380 C   0  0  0  0  0  0  0  0  0  0  0  0
   14.5787   -1.6332   26.6773 C   0  0  0  0  0  0  0  0  0  0  0  0
   13.5497   -2.5935   26.1856 C   0  0  0  0  0  0  0  0  0  0  0  0
   10.6729   -1.9371   23.9416 N   0  0  0  0  0  0  0  0  0  0  0  0
    7.4443   -3.9600   22.1771 N   0  0  0  0  0  0  0  0  0  0  0  0
   12.6061   -1.9455   25.3341 N   0  0  0  0  0  0  0  0  0  0  0  0
    5.5724   -3.8499   20.8281 O   0  0  0  0  0  0  0  0  0  0  0  0
    7.6327   -2.9691   22.0525 H   0  0  0  0  0  0  0  0  0  0  0  0
   12.6859   -0.9697   25.1328 H   0  0  0  0  0  0  0  0  0  0  0  0
  1  2  2  0  0  0  0
  1  4  1  0  0  0  0
  2  5  1  0  0  0  0
  3  4  2  0  0  0  0
  3 13  1  0  0  0  0
  4  9  1  0  0  0  0
  5 13  2  0  0  0  0
  5 15  1  0  0  0  0
  6  7  2  0  0  0  0
  6  8  1  0  0  0  0
  7 10  1  0  0  0  0
  8  9  2  0  0  0  0
  9 14  1  0  0  0  0
 10 14  1  0  0  0  0
 10 16  2  0  0  0  0
 11 12  1  0  0  0  0
 12 15  1  0  0  0  0
 14 17  1  0  0  0  0
 15 18  1  0  0  0  0
M  END

> <original SMILES>

CCNc1ccc(-c2cccc(=O)[nH]2)cn1

> <ref_mols>

x0104_0,x0305_0,x0434_0,x0678_0,x1093_0,x1249_0

> <ref_pdb>

receptors/Mpro-x0104-protein.pdb

> <Chemgauss4>

-5.965827

> <binding_free_energy>

-4.403245953211297

> <binding_std_error>

5.592616039198541

$$$$
JON-UIO-066ce08b-14
  -OEChem-05122002103D

 16 16  0     1  0  0  0  0  0999 V2000
   13.5437   -1.4248   21.3321 C   0  0  0  0  0  0  0  0  0  0  0  0
   12.3020   -0.8333   21.5640 C   0  0  0  0  0  0  0  0  0  0  0  0
   14.3746   -1.7461   22.4055 C   0  0  0  0  0  0  0  0  0  0  0  0
   12.7221   -0.8841   23.9427 C   0  0  0  0  0  0  0  0  0  0  0  0
   11.8912   -0.5629   22.8693 C   0  0  0  0  0  0  0  0  0  0  0  0
   13.9638   -1.4757   23.7108 C   0  0  0  0  0  0  0  0  0  0  0  0
    9.5237    0.5791   20.9136 C   0  0  0  0  0  0  0  0  0  0  0  0
    9.9440   -0.3265   24.4646 C   0  0  0  0  0  0  0  0  0  0  0  0
   10.5633    0.0696   23.1160 C   0  0  2  0  0  0  0  0  0  0  0  0
    8.4977    0.0470   19.9525 C   0  0  0  0  0  0  0  0  0  0  0  0
    9.6200   -0.2043   22.0451 N   0  0  0  0  0  0  0  0  0  0  0  0
   10.1941    1.5768   20.6631 O   0  0  0  0  0  0  0  0  0  0  0  0
   14.7617   -1.7838   24.7416 F   0  0  0  0  0  0  0  0  0  0  0  0
    9.0582   -0.2855   18.7601 F   0  0  0  0  0  0  0  0  0  0  0  0
    7.5391    0.9712   19.6810 F   0  0  0  0  0  0  0  0  0  0  0  0
    9.0070   -1.0047   22.1331 H   0  0  0  0  0  0  0  0  0  0  0  0
  1  2  2  0  0  0  0
  1  3  1  0  0  0  0
  2  5  1  0  0  0  0
  3  6  2  0  0  0  0
  4  5  2  0  0  0  0
  4  6  1  0  0  0  0
  5  9  1  0  0  0  0
  6 13  1  0  0  0  0
  7 10  1  0  0  0  0
  7 11  1  0  0  0  0
  7 12  2  0  0  0  0
  8  9  1  0  0  0  0
  9 11  1  0  0  0  0
 10 14  1  0  0  0  0
 10 15  1  0  0  0  0
 11 16  1  0  0  0  0
M  END

> <original SMILES>

C[C@H](NC(=O)C(F)F)c1cccc(F)c1

> <ref_mols>

x0689_0,x0769_0,x0831_0,x1382_0

> <ref_pdb>

receptors/Mpro-x1382-protein.pdb

> <Chemgauss4>

-5.387918

> <binding_free_energy>

-4.368486099999998

> <binding_std_error>

2.4790337764892314

$$$$
ALV-UNI-7ff1a6f9-4
  -OEChem-05122002103D

 23 26  0     0  0  0  0  0  0999 V2000
    8.0757    0.3375   24.2686 C   0  0  0  0  0  0  0  0  0  0  0  0
    9.9290   -0.6537   25.4601 C   0  0  0  0  0  0  0  0  0  0  0  0
    7.2718   -0.7481   24.6158 C   0  0  0  0  0  0  0  0  0  0  0  0
    9.1251   -1.7393   25.8074 C   0  0  0  0  0  0  0  0  0  0  0  0
   13.2218   -0.1732   23.4742 C   0  0  0  0  0  0  0  0  0  0  0  0
   11.2238   -0.5617   22.1930 C   0  0  0  0  0  0  0  0  0  0  0  0
   11.3024    4.8579   24.1366 C   0  0  0  0  0  0  0  0  0  0  0  0
   13.7281   -1.3470   22.9398 C   0  0  0  0  0  0  0  0  0  0  0  0
   11.8196   -1.7181   21.7158 C   0  0  0  0  0  0  0  0  0  0  0  0
   13.2579    4.3324   22.8469 C   0  0  0  0  0  0  0  0  0  0  0  0
    9.4044    0.3847   24.6906 C   0  0  0  0  0  0  0  0  0  0  0  0
   12.4571    5.2798   23.4771 C   0  0  0  0  0  0  0  0  0  0  0  0
   11.0202    3.4860   24.1207 C   0  0  0  0  0  0  0  0  0  0  0  0
   11.9451    0.2199   23.0886 C   0  0  0  0  0  0  0  0  0  0  0  0
    7.7964   -1.7865   25.3853 C   0  0  0  0  0  0  0  0  0  0  0  0
   11.9057    2.6512   23.4531 C   0  0  0  0  0  0  0  0  0  0  0  0
   10.2388    1.5119   24.3308 C   0  0  0  0  0  0  0  0  0  0  0  0
   12.8258    6.7224   23.4493 C   0  0  0  0  0  0  0  0  0  0  0  0
   13.0575   -2.1324   22.0674 N   0  0  0  0  0  0  0  0  0  0  0  0
   13.0290    2.9973   22.8028 N   0  0  0  0  0  0  0  0  0  0  0  0
    9.9868    2.7606   24.6620 N   0  0  0  0  0  0  0  0  0  0  0  0
   11.3897    1.3946   23.5986 N   0  0  0  0  0  0  0  0  0  0  0  0
    7.0242   -2.8287   25.7197 F   0  0  0  0  0  0  0  0  0  0  0  0
  1  3  2  0  0  0  0
  1 11  1  0  0  0  0
  2  4  1  0  0  0  0
  2 11  2  0  0  0  0
  3 15  1  0  0  0  0
  4 15  2  0  0  0  0
  5  8  2  0  0  0  0
  5 14  1  0  0  0  0
  6  9  1  0  0  0  0
  6 14  2  0  0  0  0
  7 12  2  0  0  0  0
  7 13  1  0  0  0  0
  8 19  1  0  0  0  0
  9 19  2  0  0  0  0
 10 12  1  0  0  0  0
 10 20  2  0  0  0  0
 11 17  1  0  0  0  0
 12 18  1  0  0  0  0
 13 16  2  0  0  0  0
 13 21  1  0  0  0  0
 14 22  1  0  0  0  0
 15 23  1  0  0  0  0
 16 20  1  0  0  0  0
 16 22  1  0  0  0  0
 17 21  2  0  0  0  0
 17 22  1  0  0  0  0
M  END

> <original SMILES>

Cc1cnc2c(c1)nc(-c1ccc(F)cc1)n2-c1ccncc1

> <ref_mols>

x0395_0,x0426_0,x0434_0,x0540_0,x0678_0,x0830_0,x1093_0

> <ref_pdb>

receptors/Mpro-x1093-protein.pdb

> <Chemgauss4>

-7.692672

> <binding_free_energy>

-4.353898407944776

> <binding_std_error>

0.19931261094161562

$$$$
PHI-UNK-c3ab17cb-1
  -OEChem-05122002103D

 24 25  0     0  0  0  0  0  0999 V2000
    7.9620   -4.0873   25.9088 C   0  0  0  0  0  0  0  0  0  0  0  0
    6.1186   -3.9023   24.3123 C   0  0  0  0  0  0  0  0  0  0  0  0
    5.6531   -3.6589   23.0201 C   0  0  0  0  0  0  0  0  0  0  0  0
    8.3861   -3.5316   23.5653 C   0  0  0  0  0  0  0  0  0  0  0  0
    7.4851   -3.8386   24.5849 C   0  0  0  0  0  0  0  0  0  0  0  0
    6.5542   -3.3520   22.0005 C   0  0  0  0  0  0  0  0  0  0  0  0
    7.9207   -3.2883   22.2731 C   0  0  0  0  0  0  0  0  0  0  0  0
    6.0407   -3.1065   20.6595 C   0  0  0  0  0  0  0  0  0  0  0  0
   10.5492   -1.2772   22.0097 C   0  0  0  0  0  0  0  0  0  0  0  0
    9.7146    0.9916   22.5794 C   0  0  0  0  0  0  0  0  0  0  0  0
   12.1770    0.4360   22.7580 C   0  0  0  0  0  0  0  0  0  0  0  0
    9.6754    0.9274   24.1027 C   0  0  0  0  0  0  0  0  0  0  0  0
   11.9744    0.4064   24.2692 C   0  0  0  0  0  0  0  0  0  0  0  0
   10.8803    0.2062   21.9903 C   0  0  0  0  0  0  0  0  0  0  0  0
    8.9118   -2.9612   21.1938 C   0  0  0  0  0  0  0  0  0  0  0  0
    8.3494   -4.2894   26.9840 N   0  0  0  0  0  0  0  0  0  0  0  0
    5.7017   -1.7992   20.3278 N   0  0  0  0  0  0  0  0  0  0  0  0
    9.4068   -1.6080   21.3061 N   0  0  0  0  0  0  0  0  0  0  0  0
    5.8939   -4.0327   19.8447 O   0  0  0  0  0  0  0  0  0  0  0  0
   11.2798   -2.0515   22.6167 O   0  0  0  0  0  0  0  0  0  0  0  0
   10.9342    1.3002   24.6591 O   0  0  0  0  0  0  0  0  0  0  0  0
    5.8195   -1.0653   21.0178 H   0  0  0  0  0  0  0  0  0  0  0  0
    5.3388   -1.5643   19.4095 H   0  0  0  0  0  0  0  0  0  0  0  0
    8.8903   -0.8645   20.8458 H   0  0  0  0  0  0  0  0  0  0  0  0
  1  5  1  0  0  0  0
  1 16  3  0  0  0  0
  2  3  2  0  0  0  0
  2  5  1  0  0  0  0
  3  6  1  0  0  0  0
  4  5  2  0  0  0  0
  4  7  1  0  0  0  0
  6  7  2  0  0  0  0
  6  8  1  0  0  0  0
  7 15  1  0  0  0  0
  8 17  1  0  0  0  0
  8 19  2  0  0  0  0
  9 14  1  0  0  0  0
  9 18  1  0  0  0  0
  9 20  2  0  0  0  0
 10 12  1  0  0  0  0
 10 14  1  0  0  0  0
 11 13  1  0  0  0  0
 11 14  1  0  0  0  0
 12 21  1  0  0  0  0
 13 21  1  0  0  0  0
 15 18  1  0  0  0  0
 17 22  1  0  0  0  0
 17 23  1  0  0  0  0
 18 24  1  0  0  0  0
M  END

> <original SMILES>

N#Cc1ccc(C(N)=O)c(CNC(=O)C2CCOCC2)c1

> <ref_mols>

x0104_0,x1093_0,x1249_0

> <ref_pdb>

receptors/Mpro-x1093_0.pdb

> <Chemgauss4>

-8.594815

> <binding_free_energy>

-4.331936919999919

> <binding_std_error>

0.5082344563823511

$$$$
LIZ-THE-f118233e-1
  -OEChem-05122002103D

 25 27  0     0  0  0  0  0  0999 V2000
    6.5830   -5.5756   26.3514 C   0  0  0  0  0  0  0  0  0  0  0  0
    5.1234    1.5244   19.9362 C   0  0  0  0  0  0  0  0  0  0  0  0
    5.7341    1.5279   17.6816 C   0  0  0  0  0  0  0  0  0  0  0  0
    6.1038   -5.0821   27.5449 C   0  0  0  0  0  0  0  0  0  0  0  0
    5.2883   -3.7904   25.6171 C   0  0  0  0  0  0  0  0  0  0  0  0
    6.1108   -4.8273   25.2346 C   0  0  0  0  0  0  0  0  0  0  0  0
    4.9215    2.0402   18.6722 C   0  0  0  0  0  0  0  0  0  0  0  0
    6.7745    0.1622   19.1713 C   0  0  0  0  0  0  0  0  0  0  0  0
    6.4373   -5.0983   23.8259 C   0  0  0  0  0  0  0  0  0  0  0  0
    8.2745   -0.7596   20.7221 C   0  0  0  0  0  0  0  0  0  0  0  0
    7.4213   -4.3415   21.6960 C   0  0  0  0  0  0  0  0  0  0  0  0
    7.5397   -2.8253   23.6800 C   0  0  0  0  0  0  0  0  0  0  0  0
    7.3380   -3.0799   20.8477 C   0  0  0  0  0  0  0  0  0  0  0  0
    8.5407   -2.0882   22.7998 C   0  0  0  0  0  0  0  0  0  0  0  0
    6.0445    0.5811   20.2225 N   0  0  0  0  0  0  0  0  0  0  0  0
    6.6746    0.5848   17.8965 N   0  0  0  0  0  0  0  0  0  0  0  0
    7.0846   -4.0939   23.0967 N   0  0  0  0  0  0  0  0  0  0  0  0
    8.0503   -1.9432   21.4325 N   0  0  0  0  0  0  0  0  0  0  0  0
    3.9558    3.0169   18.4119 N   0  0  0  0  0  0  0  0  0  0  0  0
    6.1146   -6.2021   23.3892 O   0  0  0  0  0  0  0  0  0  0  0  0
    8.8672    0.2194   21.1729 O   0  0  0  0  0  0  0  0  0  0  0  0
    7.7395   -0.8160   19.4311 O   0  0  0  0  0  0  0  0  0  0  0  0
    5.0886   -3.7221   27.3165 S   0  0  0  0  0  0  0  0  0  0  0  0
    3.3498    3.3308   19.1511 H   0  0  0  0  0  0  0  0  0  0  0  0
    3.8066    3.3338   17.4687 H   0  0  0  0  0  0  0  0  0  0  0  0
  1  4  2  0  0  0  0
  1  6  1  0  0  0  0
  2  7  1  0  0  0  0
  2 15  2  0  0  0  0
  3  7  2  0  0  0  0
  3 16  1  0  0  0  0
  4 23  1  0  0  0  0
  5  6  2  0  0  0  0
  5 23  1  0  0  0  0
  6  9  1  0  0  0  0
  7 19  1  0  0  0  0
  8 15  1  0  0  0  0
  8 16  2  0  0  0  0
  8 22  1  0  0  0  0
  9 17  1  0  0  0  0
  9 20  2  0  0  0  0
 10 18  1  0  0  0  0
 10 21  2  0  0  0  0
 10 22  1  0  0  0  0
 11 13  1  0  0  0  0
 11 17  1  0  0  0  0
 12 14  1  0  0  0  0
 12 17  1  0  0  0  0
 13 18  1  0  0  0  0
 14 18  1  0  0  0  0
 19 24  1  0  0  0  0
 19 25  1  0  0  0  0
M  END

> <original SMILES>

Nc1cnc(OC(=O)N2CCN(C(=O)c3ccsc3)CC2)nc1

> <ref_mols>

x0995_0,x1412_0

> <ref_pdb>

receptors/Mpro-x1412-protein.pdb

> <Chemgauss4>

-1.269837

> <binding_free_energy>

-4.326600107828284

> <binding_std_error>

0.08823414948839767

$$$$
WAR-XCH-b72a1bbc-4
  -OEChem-05122002103D

 19 20  0     0  0  0  0  0  0999 V2000
   10.7891    1.0601   21.2145 C   0  0  0  0  0  0  0  0  0  0  0  0
   10.2042   -1.2689   21.4800 C   0  0  0  0  0  0  0  0  0  0  0  0
   11.9202    0.8665   22.0073 C   0  0  0  0  0  0  0  0  0  0  0  0
   11.3354   -1.4626   22.2728 C   0  0  0  0  0  0  0  0  0  0  0  0
    6.4353    0.7427   19.8322 C   0  0  0  0  0  0  0  0  0  0  0  0
    6.6166    0.5418   18.4733 C   0  0  0  0  0  0  0  0  0  0  0  0
    8.8351    0.0163   18.7560 C   0  0  0  0  0  0  0  0  0  0  0  0
    9.9310   -0.0076   20.9508 C   0  0  0  0  0  0  0  0  0  0  0  0
    8.7579    0.1927   20.1281 C   0  0  0  0  0  0  0  0  0  0  0  0
    7.5314    0.5627   20.6686 C   0  0  0  0  0  0  0  0  0  0  0  0
   12.1934   -0.3949   22.5365 C   0  0  0  0  0  0  0  0  0  0  0  0
    7.3557    0.7760   22.1372 C   0  0  0  0  0  0  0  0  0  0  0  0
    7.7925    0.1820   17.9116 N   0  0  0  0  0  0  0  0  0  0  0  0
   12.9826   -0.3015   25.0808 N   0  0  0  0  0  0  0  0  0  0  0  0
   13.9800   -2.0443   23.4642 O   0  0  0  0  0  0  0  0  0  0  0  0
   14.5916    0.3843   23.1893 O   0  0  0  0  0  0  0  0  0  0  0  0
   13.6104   -0.6373   23.5275 S   0  0  0  0  0  0  0  0  0  0  0  0
   12.8544   -1.0881   25.7291 H   0  0  0  0  0  0  0  0  0  0  0  0
   13.2713    0.5714   25.5390 H   0  0  0  0  0  0  0  0  0  0  0  0
  1  3  2  0  0  0  0
  1  8  1  0  0  0  0
  2  4  1  0  0  0  0
  2  8  2  0  0  0  0
  3 11  1  0  0  0  0
  4 11  2  0  0  0  0
  5  6  2  0  0  0  0
  5 10  1  0  0  0  0
  6 13  1  0  0  0  0
  7  9  1  0  0  0  0
  7 13  2  0  0  0  0
  8  9  1  0  0  0  0
  9 10  2  0  0  0  0
 10 12  1  0  0  0  0
 11 17  1  0  0  0  0
 14 17  1  0  0  0  0
 15 17  2  0  0  0  0
 16 17  2  0  0  0  0
 14 18  1  0  0  0  0
 14 19  1  0  0  0  0
M  END

> <original SMILES>

Cc1ccncc1-c1ccc(S(N)(=O)=O)cc1

> <ref_mols>

x0072_0,x0104_0,x0107_0,x0161_0,x0165_0

> <ref_pdb>

receptors/Mpro-x0072-protein.pdb

> <Chemgauss4>

-6.754902

> <binding_free_energy>

-4.294462221632653

> <binding_std_error>

2.315093239710617

$$$$
DOU-UNK-b5326f8f-16
  -OEChem-05122002103D

 19 21  0     1  0  0  0  0  0999 V2000
    7.3441   -5.5678   23.8831 C   0  0  0  0  0  0  0  0  0  0  0  0
   10.0592   -3.8372   23.8727 C   0  0  0  0  0  0  0  0  0  0  0  0
   13.4566   -2.2850   25.9674 C   0  0  0  0  0  0  0  0  0  0  0  0
    8.8562   -3.8400   23.0984 C   0  0  0  0  0  0  0  0  0  0  0  0
   10.5400   -2.5642   24.0878 C   0  0  0  0  0  0  0  0  0  0  0  0
    8.4908   -2.5543   22.7391 C   0  0  0  0  0  0  0  0  0  0  0  0
   11.7006   -2.1972   24.8165 C   0  0  0  0  0  0  0  0  0  0  0  0
    7.0538   -4.7157   21.5707 C   0  0  0  0  0  0  0  0  0  0  0  0
    6.3269   -3.3758   21.8030 C   0  0  0  0  0  0  0  0  0  0  0  0
    8.0543   -5.0483   22.7000 C   0  0  2  0  0  0  0  0  0  0  0  0
    7.3114   -2.1980   21.8903 C   0  0  2  0  0  0  0  0  0  0  0  0
    7.4979   -0.8545   18.4720 C   0  0  0  0  0  0  0  0  0  0  0  0
    6.9031   -1.1324   19.8360 C   0  0  0  0  0  0  0  0  0  0  0  0
    6.7852   -5.9765   24.8140 N   0  0  0  0  0  0  0  0  0  0  0  0
   13.2450   -1.0114   25.7311 N   0  0  0  0  0  0  0  0  0  0  0  0
   12.0897   -0.9537   24.9740 N   0  0  0  0  0  0  0  0  0  0  0  0
   12.5177   -3.1038   25.4191 O   0  0  0  0  0  0  0  0  0  0  0  0
    7.8223   -1.9062   20.5924 O   0  0  0  0  0  0  0  0  0  0  0  0
    9.5539   -1.3727   23.3563 S   0  0  0  0  0  0  0  0  0  0  0  0
  1 10  1  0  0  0  0
  1 14  3  0  0  0  0
  2  4  1  0  0  0  0
  2  5  2  0  0  0  0
  3 15  2  0  0  0  0
  3 17  1  0  0  0  0
  4  6  2  0  0  0  0
  4 10  1  0  0  0  0
  5  7  1  0  0  0  0
  5 19  1  0  0  0  0
  6 11  1  0  0  0  0
  6 19  1  0  0  0  0
  7 16  2  0  0  0  0
  7 17  1  0  0  0  0
  8  9  1  0  0  0  0
  8 10  1  0  0  0  0
  9 11  1  0  0  0  0
 11 18  1  0  0  0  0
 12 13  1  0  0  0  0
 13 18  1  0  0  0  0
 15 16  1  0  0  0  0
M  END

> <original SMILES>

CCOC1CCC(C#N)c2cc(-c3nnco3)sc21

> <ref_mols>

x0104_0,x0107_0,x0387_0,x0397_0,x0708_0,x0770_0,x1093_0,x1392_0

> <ref_pdb>

receptors/Mpro-x0107-protein.pdb

> <Chemgauss4>

-8.000514

> <binding_free_energy>

-4.283819960544214

> <binding_std_error>

8.113457557677235

$$$$
WAR-XCH-b72a1bbc-23
  -OEChem-05122002103D

 21 22  0     0  0  0  0  0  0999 V2000
   10.3143   -2.7363   23.6316 C   0  0  0  0  0  0  0  0  0  0  0  0
   10.7899   -4.3086   25.4032 C   0  0  0  0  0  0  0  0  0  0  0  0
   11.5398   -2.1101   23.8583 C   0  0  0  0  0  0  0  0  0  0  0  0
   12.0155   -3.6824   25.6299 C   0  0  0  0  0  0  0  0  0  0  0  0
    9.9393   -3.8356   24.4041 C   0  0  0  0  0  0  0  0  0  0  0  0
   12.3904   -2.5831   24.8575 C   0  0  0  0  0  0  0  0  0  0  0  0
    7.3542   -4.0458   22.1895 C   0  0  0  0  0  0  0  0  0  0  0  0
    8.4594   -6.2903   22.5821 C   0  0  0  0  0  0  0  0  0  0  0  0
    7.5507   -3.7330   23.6738 C   0  0  0  0  0  0  0  0  0  0  0  0
    8.6323   -5.9192   24.0597 C   0  0  0  0  0  0  0  0  0  0  0  0
    7.2807   -5.5591   21.9139 C   0  0  0  0  0  0  0  0  0  0  0  0
    4.5435   -6.4609   24.2138 C   0  0  0  0  0  0  0  0  0  0  0  0
    5.9352   -6.1481   22.3460 C   0  0  0  0  0  0  0  0  0  0  0  0
    8.7175   -4.4602   24.1785 N   0  0  0  0  0  0  0  0  0  0  0  0
   14.9406   -2.6798   24.0879 N   0  0  0  0  0  0  0  0  0  0  0  0
   13.8334   -0.4254   24.6688 O   0  0  0  0  0  0  0  0  0  0  0  0
   14.3321   -2.0659   26.5148 O   0  0  0  0  0  0  0  0  0  0  0  0
    5.7781   -5.9372   23.7369 O   0  0  0  0  0  0  0  0  0  0  0  0
   13.9244   -1.7995   25.1424 S   0  0  0  0  0  0  0  0  0  0  0  0
   15.2815   -2.2078   23.2415 H   0  0  0  0  0  0  0  0  0  0  0  0
   15.6198   -3.3289   24.5034 H   0  0  0  0  0  0  0  0  0  0  0  0
  1  3  2  0  0  0  0
  1  5  1  0  0  0  0
  2  4  1  0  0  0  0
  2  5  2  0  0  0  0
  3  6  1  0  0  0  0
  4  6  2  0  0  0  0
  5 14  1  0  0  0  0
  6 19  1  0  0  0  0
  7  9  1  0  0  0  0
  7 11  1  0  0  0  0
  8 10  1  0  0  0  0
  8 11  1  0  0  0  0
  9 14  1  0  0  0  0
 10 14  1  0  0  0  0
 11 13  1  0  0  0  0
 12 18  1  0  0  0  0
 13 18  1  0  0  0  0
 15 19  1  0  0  0  0
 16 19  2  0  0  0  0
 17 19  2  0  0  0  0
 15 20  1  0  0  0  0
 15 21  1  0  0  0  0
M  END

> <original SMILES>

COCC1CCN(c2ccc(S(N)(=O)=O)cc2)CC1

> <ref_mols>

x0072_0,x0104_0,x0107_0,x0161_0,x0165_0

> <ref_pdb>

receptors/Mpro-x0161_0.pdb

> <Chemgauss4>

-8.294393

> <binding_free_energy>

-4.281006399999998

> <binding_std_error>

0.0

$$$$
JOH-UNI-abdb2f0c-3
  -OEChem-05122002103D

 17 18  0     1  0  0  0  0  0999 V2000
   10.2574   -4.6099   24.6510 C   0  0  0  0  0  0  0  0  0  0  0  0
   11.3750   -3.9993   25.2091 C   0  0  0  0  0  0  0  0  0  0  0  0
    9.8666   -2.6285   23.3950 C   0  0  0  0  0  0  0  0  0  0  0  0
    9.4835   -3.9182   23.7259 C   0  0  0  0  0  0  0  0  0  0  0  0
   11.6736   -2.7060   24.8116 C   0  0  0  0  0  0  0  0  0  0  0  0
   12.8294   -2.0199   25.3626 C   0  0  0  0  0  0  0  0  0  0  0  0
    7.3378   -6.7080   22.5017 C   0  0  0  0  0  0  0  0  0  0  0  0
    8.5131   -5.7390   22.3707 C   0  0  0  0  0  0  0  0  0  0  0  0
    7.0440   -3.8763   23.3444 C   0  0  0  0  0  0  0  0  0  0  0  0
    6.1443   -6.3325   21.6354 C   0  0  0  0  0  0  0  0  0  0  0  0
    6.1298   -4.0046   22.1319 C   0  0  0  0  0  0  0  0  0  0  0  0
   13.7169   -2.7371   26.3872 C   0  0  0  0  0  0  0  0  0  0  0  0
   10.9455   -2.0023   23.9159 N   0  0  0  0  0  0  0  0  0  0  0  0
    8.3518   -4.5079   23.1481 N   0  0  3  0  0  0  0  0  0  0  0  0
   13.1035   -0.8545   25.0073 O   0  0  0  0  0  0  0  0  0  0  0  0
    5.4141   -5.2316   22.1543 O   0  0  0  0  0  0  0  0  0  0  0  0
   15.0464   -1.7003   26.9444 Cl  0  0  0  0  0  0  0  0  0  0  0  0
  1  2  2  0  0  0  0
  1  4  1  0  0  0  0
  2  5  1  0  0  0  0
  3  4  2  0  0  0  0
  3 13  1  0  0  0  0
  4 14  1  0  0  0  0
  5  6  1  0  0  0  0
  5 13  2  0  0  0  0
  6 12  1  0  0  0  0
  6 15  2  0  0  0  0
  7  8  1  0  0  0  0
  7 10  1  0  0  0  0
  8 14  1  0  0  0  0
  9 11  1  0  0  0  0
  9 14  1  0  0  0  0
 10 16  1  0  0  0  0
 11 16  1  0  0  0  0
 12 17  1  0  0  0  0
M  END

> <original SMILES>

O=C(CCl)c1ccc(N2CCCOCC2)cn1

> <ref_mols>

x0434_0,x1077_0

> <ref_pdb>

receptors/Mpro-x1077-protein.pdb

> <Chemgauss4>

-7.072368

> <binding_free_energy>

-4.102296235688641

> <binding_std_error>

0.16903587802293998

$$$$
DAV-AUT-7eb4e0c3-4
  -OEChem-05122002103D

 21 23  0     1  0  0  0  0  0999 V2000
   11.6497    1.5950   24.4855 C   0  0  0  0  0  0  0  0  0  0  0  0
   10.9662    2.8091   24.5831 C   0  0  0  0  0  0  0  0  0  0  0  0
   13.1022    2.4727   22.7235 C   0  0  0  0  0  0  0  0  0  0  0  0
   12.4183    3.6662   22.8312 C   0  0  0  0  0  0  0  0  0  0  0  0
   12.7067    1.4284   23.5663 C   0  0  0  0  0  0  0  0  0  0  0  0
   11.3801    3.8209   23.7466 C   0  0  0  0  0  0  0  0  0  0  0  0
   12.6120    4.9236   22.0779 C   0  0  0  0  0  0  0  0  0  0  0  0
   12.2441   -2.8150   23.8939 C   0  0  0  0  0  0  0  0  0  0  0  0
   13.7373   -2.8501   24.1686 C   0  0  0  0  0  0  0  0  0  0  0  0
   12.7620   -0.8307   22.4536 C   0  0  0  0  0  0  0  0  0  0  0  0
   14.2434   -1.6434   24.9515 C   0  0  0  0  0  0  0  0  0  0  0  0
   13.4236    0.0937   23.4905 C   0  0  2  0  0  0  0  0  0  0  0  0
   10.4179   -1.6481   22.6923 C   0  0  0  0  0  0  0  0  0  0  0  0
   11.1746    6.2200   25.1410 C   0  0  0  0  0  0  0  0  0  0  0  0
   11.6809    5.9239   22.4964 N   0  0  0  0  0  0  0  0  0  0  0  0
   11.8225   -1.7859   23.0465 N   0  0  0  0  0  0  0  0  0  0  0  0
   13.4740    5.0330   21.2190 O   0  0  0  0  0  0  0  0  0  0  0  0
   11.5015   -3.6578   24.3992 O   0  0  0  0  0  0  0  0  0  0  0  0
    9.2730    5.3109   23.5613 O   0  0  0  0  0  0  0  0  0  0  0  0
   13.4553   -0.4695   24.8035 O   0  0  0  0  0  0  0  0  0  0  0  0
   10.7143    5.4354   23.6219 S   0  0  1  0  0  0  0  0  0  0  0  0
  1  2  2  0  0  0  0
  1  5  1  0  0  0  0
  2  6  1  0  0  0  0
  3  4  1  0  0  0  0
  3  5  2  0  0  0  0
  4  6  2  0  0  0  0
  4  7  1  0  0  0  0
  5 12  1  0  0  0  0
  6 21  1  0  0  0  0
  7 15  1  0  0  0  0
  7 17  2  0  0  0  0
  8  9  1  0  0  0  0
  8 16  1  0  0  0  0
  8 18  2  0  0  0  0
  9 11  1  0  0  0  0
 10 12  1  0  0  0  0
 10 16  1  0  0  0  0
 11 20  1  0  0  0  0
 12 20  1  0  0  0  0
 13 16  1  0  0  0  0
 14 21  1  0  0  0  0
 15 21  2  0  0  0  0
 19 21  2  0  0  0  0
M  END

> <original SMILES>

CN1C[C@@H](c2ccc3c(c2)C(=O)N=[S@@]3(C)=O)OCCC1=O

> <ref_mols>

x0161_0,x0305_0

> <ref_pdb>

receptors/Mpro-x0161_0.pdb

> <Chemgauss4>

-9.5307

> <binding_free_energy>

-4.097636199999997

> <binding_std_error>

5.962504999999996

$$$$
PAT-UNK-b2d83456-1
  -OEChem-05122002103D

 19 20  0     0  0  0  0  0  0999 V2000
   12.2661    0.4889   24.4552 C   0  0  0  0  0  0  0  0  0  0  0  0
   14.0138   -2.4914   25.8407 C   0  0  0  0  0  0  0  0  0  0  0  0
   13.7729   -1.1918   25.3950 C   0  0  0  0  0  0  0  0  0  0  0  0
   12.9935   -3.4419   25.8033 C   0  0  0  0  0  0  0  0  0  0  0  0
   11.4915   -1.7930   24.8747 C   0  0  0  0  0  0  0  0  0  0  0  0
   12.5118   -0.8426   24.9121 C   0  0  0  0  0  0  0  0  0  0  0  0
   11.7324   -3.0927   25.3204 C   0  0  0  0  0  0  0  0  0  0  0  0
    6.4501   -4.6114   21.6844 C   0  0  0  0  0  0  0  0  0  0  0  0
    7.0522   -3.8804   23.9701 C   0  0  0  0  0  0  0  0  0  0  0  0
    8.6041   -3.3365   22.1347 C   0  0  0  0  0  0  0  0  0  0  0  0
    8.2015   -4.4179   24.8102 C   0  0  0  0  0  0  0  0  0  0  0  0
    9.7779   -3.8644   22.9485 C   0  0  0  0  0  0  0  0  0  0  0  0
    5.6079   -5.7118   22.2789 C   0  0  0  0  0  0  0  0  0  0  0  0
   10.6351   -4.1151   25.2804 C   0  0  0  0  0  0  0  0  0  0  0  0
   12.0666    1.5702   24.0842 N   0  0  0  0  0  0  0  0  0  0  0  0
    7.3520   -3.9830   22.5419 N   0  0  0  0  0  0  0  0  0  0  0  0
    9.4744   -3.6998   24.4209 N   0  3  0  0  0  0  0  0  0  0  0  0
    6.3073   -4.3188   20.4945 O   0  0  0  0  0  0  0  0  0  0  0  0
    9.3267   -2.6958   24.5935 H   0  0  0  0  0  0  0  0  0  0  0  0
  1  6  1  0  0  0  0
  1 15  3  0  0  0  0
  2  3  1  0  0  0  0
  2  4  2  0  0  0  0
  3  6  2  0  0  0  0
  4  7  1  0  0  0  0
  5  6  1  0  0  0  0
  5  7  2  0  0  0  0
  7 14  1  0  0  0  0
  8 13  1  0  0  0  0
  8 16  1  0  0  0  0
  8 18  2  0  0  0  0
  9 11  1  0  0  0  0
  9 16  1  0  0  0  0
 10 12  1  0  0  0  0
 10 16  1  0  0  0  0
 11 17  1  0  0  0  0
 12 17  1  0  0  0  0
 14 17  1  0  0  0  0
 17 19  1  0  0  0  0
M  CHG  1  17   1
M  END

> <original SMILES>

CC(=O)N1CCN(Cc2cccc(C#N)c2)CC1

> <ref_mols>

x0104_0,x0692_0

> <ref_pdb>

receptors/protein-0387.pdb

> <Chemgauss4>

-4.65229272842407

> <binding_free_energy>

-4.024573880730259

> <binding_std_error>

5.190473899031503

$$$$
NIR-THE-c331be7a-1
  -OEChem-05122002103D

 23 25  0     1  0  0  0  0  0999 V2000
    8.4218   -5.4256   23.6653 C   0  0  0  0  0  0  0  0  0  0  0  0
    9.0512   -4.8695   24.7752 C   0  0  0  0  0  0  0  0  0  0  0  0
   12.6271    0.2115   24.4497 C   0  0  0  0  0  0  0  0  0  0  0  0
    8.0169   -4.6077   22.6108 C   0  0  0  0  0  0  0  0  0  0  0  0
    9.2734   -3.4944   24.8335 C   0  0  0  0  0  0  0  0  0  0  0  0
   11.2934   -0.1427   24.6529 C   0  0  0  0  0  0  0  0  0  0  0  0
   13.2458   -0.0705   23.2317 C   0  0  0  0  0  0  0  0  0  0  0  0
   11.1971   -1.0610   22.4203 C   0  0  0  0  0  0  0  0  0  0  0  0
   10.5784   -0.7789   23.6382 C   0  0  0  0  0  0  0  0  0  0  0  0
    8.2396   -3.2229   22.6531 C   0  0  0  0  0  0  0  0  0  0  0  0
    8.8674   -2.6599   23.7796 C   0  0  0  0  0  0  0  0  0  0  0  0
   12.5308   -0.7068   22.2171 C   0  0  0  0  0  0  0  0  0  0  0  0
    8.3886   -0.1342   20.4746 C   0  0  0  0  0  0  0  0  0  0  0  0
    7.7868   -2.3779   21.4868 C   0  0  0  0  0  0  0  0  0  0  0  0
    8.1816   -0.3921   22.9232 C   0  0  0  0  0  0  0  0  0  0  0  0
    9.1220   -1.1662   23.8608 C   0  0  2  0  0  0  0  0  0  0  0  0
    8.2155   -0.7662   19.1157 C   0  0  0  0  0  0  0  0  0  0  0  0
    8.1725   -0.9636   21.5773 N   0  0  0  0  0  0  0  0  0  0  0  0
   13.1564   -0.9915   20.9854 N   0  0  0  0  0  0  0  0  0  0  0  0
    8.7125    1.0534   20.5524 O   0  0  0  0  0  0  0  0  0  0  0  0
    6.5199   -0.5756   18.6850 Cl  0  0  0  0  0  0  0  0  0  0  0  0
   14.0980   -0.6902   20.8353 H   0  0  0  0  0  0  0  0  0  0  0  0
   12.6197   -1.4052   20.2501 H   0  0  0  0  0  0  0  0  0  0  0  0
  1  2  1  0  0  0  0
  1  4  2  0  0  0  0
  2  5  2  0  0  0  0
  3  6  1  0  0  0  0
  3  7  2  0  0  0  0
  4 10  1  0  0  0  0
  5 11  1  0  0  0  0
  6  9  2  0  0  0  0
  7 12  1  0  0  0  0
  8  9  1  0  0  0  0
  8 12  2  0  0  0  0
  9 16  1  0  0  0  0
 10 11  2  0  0  0  0
 10 14  1  0  0  0  0
 11 16  1  0  0  0  0
 12 19  1  0  0  0  0
 13 17  1  0  0  0  0
 13 18  1  0  0  0  0
 13 20  2  0  0  0  0
 14 18  1  0  0  0  0
 15 16  1  0  0  0  0
 15 18  1  0  0  0  0
 17 21  1  0  0  0  0
 19 22  1  0  0  0  0
 19 23  1  0  0  0  0
M  END

> <original SMILES>

Nc1cccc(C2CN(C(=O)CCl)Cc3ccccc32)c1

> <ref_mols>

x0104_0,x0195_0,x0305_0,x0874_0,x1420_0

> <ref_pdb>

receptors/Mpro-x0874-protein.pdb

> <Chemgauss4>

-7.634937

> <binding_free_energy>

-3.984557828571429

> <binding_std_error>

0.22546295993667764

$$$$
ANT-DIA-b7f58f21-7
  -OEChem-05122002103D

 17 18  0     0  0  0  0  0  0999 V2000
   10.7110    2.7076   24.4575 C   0  0  0  0  0  0  0  0  0  0  0  0
   10.1035    1.4650   24.6600 C   0  0  0  0  0  0  0  0  0  0  0  0
   12.1957    1.7536   22.7948 C   0  0  0  0  0  0  0  0  0  0  0  0
   10.6800   -1.7320   23.1871 C   0  0  0  0  0  0  0  0  0  0  0  0
   11.7433    2.8478   23.5365 C   0  0  0  0  0  0  0  0  0  0  0  0
   10.5414    0.3429   23.9236 C   0  0  0  0  0  0  0  0  0  0  0  0
   11.5809    0.5085   23.0032 C   0  0  0  0  0  0  0  0  0  0  0  0
    8.0338    6.3641   21.6691 C   0  0  0  0  0  0  0  0  0  0  0  0
   12.3782    4.1839   23.3358 C   0  0  0  0  0  0  0  0  0  0  0  0
   11.4246    5.3580   23.5855 C   0  0  0  0  0  0  0  0  0  0  0  0
   10.0358   -0.9455   24.0173 N   0  0  0  0  0  0  0  0  0  0  0  0
   10.2729    5.3199   22.7247 N   0  0  0  0  0  0  0  0  0  0  0  0
    9.0370    7.2626   23.9134 O   0  0  0  0  0  0  0  0  0  0  0  0
    7.9701    4.9785   23.8786 O   0  0  0  0  0  0  0  0  0  0  0  0
   11.9132   -1.0064   22.2498 S   0  0  0  0  0  0  0  0  0  0  0  0
    8.7767    6.0032   23.2439 S   0  0  0  0  0  0  0  0  0  0  0  0
   10.1779    4.4660   22.1329 H   0  0  0  0  0  0  0  0  0  0  0  0
  1  2  2  0  0  0  0
  1  5  1  0  0  0  0
  2  6  1  0  0  0  0
  3  5  2  0  0  0  0
  3  7  1  0  0  0  0
  4 11  2  0  0  0  0
  4 15  1  0  0  0  0
  5  9  1  0  0  0  0
  6  7  2  0  0  0  0
  6 11  1  0  0  0  0
  7 15  1  0  0  0  0
  8 16  1  0  0  0  0
  9 10  1  0  0  0  0
 10 12  1  0  0  0  0
 12 16  1  0  0  0  0
 13 16  2  0  0  0  0
 14 16  2  0  0  0  0
 12 17  1  0  0  0  0
M  END

> <original SMILES>

CS(=O)(=O)NCCc1ccc2ncsc2c1

> <ref_mols>

x0072_0,x0305_0,x0387_0

> <ref_pdb>

receptors/Mpro-x0305-protein.pdb

> <Chemgauss4>

-4.867293

> <binding_free_energy>

-3.9230990402721093

> <binding_std_error>

3.0898945374319453

$$$$
JOH-MEM-5e386bbd-6
  -OEChem-05122002103D

 20 22  0     0  0  0  0  0  0999 V2000
   11.3255   -3.6171   25.0026 C   0  0  0  0  0  0  0  0  0  0  0  0
   10.0387   -1.1525   24.4414 C   0  0  0  0  0  0  0  0  0  0  0  0
   10.1728   -3.5959   24.1959 C   0  0  0  0  0  0  0  0  0  0  0  0
    9.4096   -4.5669   23.5256 C   0  0  0  0  0  0  0  0  0  0  0  0
    9.5486   -2.3595   23.9294 C   0  0  0  0  0  0  0  0  0  0  0  0
   11.8190   -2.4129   25.5171 C   0  0  0  0  0  0  0  0  0  0  0  0
   11.1852   -1.2027   25.2400 C   0  0  0  0  0  0  0  0  0  0  0  0
    8.3851   -3.9275   22.8953 C   0  0  0  0  0  0  0  0  0  0  0  0
    6.4636   -4.3376   21.4895 C   0  0  0  0  0  0  0  0  0  0  0  0
    9.3589   -6.0303   23.2869 C   0  0  0  0  0  0  0  0  0  0  0  0
    8.0849   -6.1687   22.3723 C   0  0  0  0  0  0  0  0  0  0  0  0
    5.8140   -3.0978   22.0513 C   0  0  0  0  0  0  0  0  0  0  0  0
   14.1919   -2.3085   25.6354 C   0  0  0  0  0  0  0  0  0  0  0  0
    8.4436   -2.5985   23.1208 N   0  0  0  0  0  0  0  0  0  0  0  0
    7.5617   -4.7745   22.1994 N   0  0  0  0  0  0  0  0  0  0  0  0
    6.0070   -4.8717   20.4783 O   0  0  0  0  0  0  0  0  0  0  0  0
   11.6811   -0.0378   25.7505 O   0  0  0  0  0  0  0  0  0  0  0  0
   12.9371   -2.4394   26.2985 O   0  0  0  0  0  0  0  0  0  0  0  0
    7.8061   -1.8940   22.7745 H   0  0  0  0  0  0  0  0  0  0  0  0
   11.1318    0.7091   25.4684 H   0  0  0  0  0  0  0  0  0  0  0  0
  1  3  2  0  0  0  0
  1  6  1  0  0  0  0
  2  5  2  0  0  0  0
  2  7  1  0  0  0  0
  3  4  1  0  0  0  0
  3  5  1  0  0  0  0
  4  8  2  0  0  0  0
  4 10  1  0  0  0  0
  5 14  1  0  0  0  0
  6  7  2  0  0  0  0
  6 18  1  0  0  0  0
  7 17  1  0  0  0  0
  8 14  1  0  0  0  0
  8 15  1  0  0  0  0
  9 12  1  0  0  0  0
  9 15  1  0  0  0  0
  9 16  2  0  0  0  0
 10 11  1  0  0  0  0
 11 15  1  0  0  0  0
 13 18  1  0  0  0  0
 14 19  1  0  0  0  0
 17 20  1  0  0  0  0
M  END

> <original SMILES>

COc1cc2c3c([nH]c2cc1O)N(C(C)=O)CC3

> <ref_mols>

x0104_0

> <ref_pdb>

receptors/Mpro-x0104-protein.pdb

> <Chemgauss4>

-6.893034

> <binding_free_energy>

-3.886057019999999

> <binding_std_error>

0.1367605674317767

$$$$
ALV-UNI-7ff1a6f9-48
  -OEChem-05122002103D

 22 25  0     0  0  0  0  0  0999 V2000
    7.1842   -4.9716   26.4614 C   0  0  0  0  0  0  0  0  0  0  0  0
    6.6700   -5.3540   25.2261 C   0  0  0  0  0  0  0  0  0  0  0  0
    8.0800   -3.9053   26.5454 C   0  0  0  0  0  0  0  0  0  0  0  0
    7.0495   -4.6717   24.0699 C   0  0  0  0  0  0  0  0  0  0  0  0
    9.3735   -2.1314   25.4578 C   0  0  0  0  0  0  0  0  0  0  0  0
    9.7531   -1.4491   24.3017 C   0  0  0  0  0  0  0  0  0  0  0  0
    4.9121    1.2644   19.0739 C   0  0  0  0  0  0  0  0  0  0  0  0
    8.3432   -2.8979   22.9823 C   0  0  0  0  0  0  0  0  0  0  0  0
    5.7204    0.9665   17.9813 C   0  0  0  0  0  0  0  0  0  0  0  0
    8.4730   -3.2071   25.3920 C   0  0  0  0  0  0  0  0  0  0  0  0
    7.9501   -3.5960   24.1357 C   0  0  0  0  0  0  0  0  0  0  0  0
    9.2389   -1.8315   23.0663 C   0  0  0  0  0  0  0  0  0  0  0  0
    5.3722    0.9654   20.3566 C   0  0  0  0  0  0  0  0  0  0  0  0
    6.6382    0.3753   20.4620 C   0  0  0  0  0  0  0  0  0  0  0  0
    7.3384    0.1325   19.2884 C   0  0  0  0  0  0  0  0  0  0  0  0
    8.4847   -0.5154   21.0529 C   0  0  0  0  0  0  0  0  0  0  0  0
    4.5183    1.2778   21.5392 C   0  0  0  0  0  0  0  0  0  0  0  0
    9.6457   -1.1006   21.8313 C   0  0  0  0  0  0  0  0  0  0  0  0
    6.9494    0.3972   18.0303 N   0  0  0  0  0  0  0  0  0  0  0  0
    7.3661   -0.0341   21.5527 N   0  0  0  0  0  0  0  0  0  0  0  0
    8.5150   -0.4364   19.6864 N   0  0  0  0  0  0  0  0  0  0  0  0
    9.2661   -0.7414   19.0816 H   0  0  0  0  0  0  0  0  0  0  0  0
  1  2  1  0  0  0  0
  1  3  2  0  0  0  0
  2  4  2  0  0  0  0
  3 10  1  0  0  0  0
  4 11  1  0  0  0  0
  5  6  2  0  0  0  0
  5 10  1  0  0  0  0
  6 12  1  0  0  0  0
  7  9  2  0  0  0  0
  7 13  1  0  0  0  0
  8 11  1  0  0  0  0
  8 12  2  0  0  0  0
  9 19  1  0  0  0  0
 10 11  2  0  0  0  0
 12 18  1  0  0  0  0
 13 14  2  0  0  0  0
 13 17  1  0  0  0  0
 14 15  1  0  0  0  0
 14 20  1  0  0  0  0
 15 19  2  0  0  0  0
 15 21  1  0  0  0  0
 16 18  1  0  0  0  0
 16 20  2  0  0  0  0
 16 21  1  0  0  0  0
 21 22  1  0  0  0  0
M  END

> <original SMILES>

Cc1ccnc2[nH]c(Cc3ccc4ccccc4c3)nc12

> <ref_mols>

x0395_0,x0426_0,x0434_0,x0540_0,x0678_0,x0830_0,x1093_0

> <ref_pdb>

receptors/Mpro-x0426-protein.pdb

> <Chemgauss4>

-1.687032

> <binding_free_energy>

-3.820384840000001

> <binding_std_error>

2.451542103034311

$$$$
JOH-MSK-ec639444-3
  -OEChem-05122002103D

 19 20  0     0  0  0  0  0  0999 V2000
   14.2185   -0.6653   21.9340 C   0  0  0  0  0  0  0  0  0  0  0  0
   13.1157   -1.5075   22.0792 C   0  0  0  0  0  0  0  0  0  0  0  0
   10.8766   -1.9341   22.9775 C   0  0  0  0  0  0  0  0  0  0  0  0
   14.2166    0.5937   22.5272 C   0  0  0  0  0  0  0  0  0  0  0  0
    9.7720   -1.5126   23.7181 C   0  0  0  0  0  0  0  0  0  0  0  0
   10.8729    0.5887   24.1662 C   0  0  0  0  0  0  0  0  0  0  0  0
   11.9952   -1.0995   22.8211 C   0  0  0  0  0  0  0  0  0  0  0  0
   11.9933    0.1807   23.4243 C   0  0  0  0  0  0  0  0  0  0  0  0
   13.1120    1.0153   23.2678 C   0  0  0  0  0  0  0  0  0  0  0  0
    9.7701   -0.2536   24.3113 C   0  0  0  0  0  0  0  0  0  0  0  0
   11.9498    5.4755   24.0143 C   0  0  0  0  0  0  0  0  0  0  0  0
   12.2722    6.8150   24.5888 C   0  0  0  0  0  0  0  0  0  0  0  0
    8.7549    1.4574   25.6143 C   0  0  0  0  0  0  0  0  0  0  0  0
   13.1759    2.3811   23.8784 C   0  0  0  0  0  0  0  0  0  0  0  0
   12.9505    3.5091   22.8677 C   0  0  0  0  0  0  0  0  0  0  0  0
   13.0382    4.8118   23.4712 N   0  0  0  0  0  0  0  0  0  0  0  0
   10.7972    5.0616   24.0564 O   0  0  0  0  0  0  0  0  0  0  0  0
    8.6912    0.1559   25.0333 O   0  0  0  0  0  0  0  0  0  0  0  0
   13.9476    5.2702   23.5009 H   0  0  0  0  0  0  0  0  0  0  0  0
  1  2  2  0  0  0  0
  1  4  1  0  0  0  0
  2  7  1  0  0  0  0
  3  5  2  0  0  0  0
  3  7  1  0  0  0  0
  4  9  2  0  0  0  0
  5 10  1  0  0  0  0
  6  8  1  0  0  0  0
  6 10  2  0  0  0  0
  7  8  2  0  0  0  0
  8  9  1  0  0  0  0
  9 14  1  0  0  0  0
 10 18  1  0  0  0  0
 11 12  1  0  0  0  0
 11 16  1  0  0  0  0
 11 17  2  0  0  0  0
 13 18  1  0  0  0  0
 14 15  1  0  0  0  0
 15 16  1  0  0  0  0
 16 19  1  0  0  0  0
M  END

> <original SMILES>

COc1ccc2cccc(CCNC(C)=O)c2c1

> <ref_mols>

x0104_0

> <ref_pdb>

receptors/protein-0387.pdb

> <Chemgauss4>

-5.43759155273438

> <binding_free_energy>

-3.729116746436423

> <binding_std_error>

0.9989840532541456

$$$$
ELE-IMP-dfb36048-6
  -OEChem-05122002103D

 17 18  0     0  0  0  0  0  0999 V2000
   13.6646   -1.7815   21.6907 C   0  0  0  0  0  0  0  0  0  0  0  0
   14.5618   -1.9013   22.7559 C   0  0  0  0  0  0  0  0  0  0  0  0
   13.0516   -0.7094   24.2377 C   0  0  0  0  0  0  0  0  0  0  0  0
   10.8452    0.0192   23.0523 C   0  0  0  0  0  0  0  0  0  0  0  0
   12.1314   -0.5762   23.1789 C   0  0  0  0  0  0  0  0  0  0  0  0
   12.4585   -1.1143   21.9324 C   0  0  0  0  0  0  0  0  0  0  0  0
   14.2621   -1.3743   24.0106 C   0  0  0  0  0  0  0  0  0  0  0  0
   10.4243   -0.1652   21.7555 C   0  0  0  0  0  0  0  0  0  0  0  0
   11.4039   -0.8500   21.0879 N   0  0  0  0  0  0  0  0  0  0  0  0
    9.2463   -0.3058   19.3686 N   0  0  0  0  0  0  0  0  0  0  0  0
    7.8439   -0.4170   21.5288 O   0  0  0  0  0  0  0  0  0  0  0  0
    8.9170    1.7641   20.8665 O   0  0  0  0  0  0  0  0  0  0  0  0
   15.1424   -1.5055   25.0126 F   0  0  0  0  0  0  0  0  0  0  0  0
    8.9402    0.3157   20.9262 S   0  0  0  0  0  0  0  0  0  0  0  0
   11.3626   -1.1223   20.1152 H   0  0  0  0  0  0  0  0  0  0  0  0
    8.7057   -1.1253   19.0657 H   0  0  0  0  0  0  0  0  0  0  0  0
    9.4403    0.3651   18.6152 H   0  0  0  0  0  0  0  0  0  0  0  0
  1  2  2  0  0  0  0
  1  6  1  0  0  0  0
  2  7  1  0  0  0  0
  3  5  1  0  0  0  0
  3  7  2  0  0  0  0
  4  5  1  0  0  0  0
  4  8  2  0  0  0  0
  5  6  2  0  0  0  0
  6  9  1  0  0  0  0
  7 13  1  0  0  0  0
  8  9  1  0  0  0  0
  8 14  1  0  0  0  0
 10 14  1  0  0  0  0
 11 14  2  0  0  0  0
 12 14  2  0  0  0  0
  9 15  1  0  0  0  0
 10 16  1  0  0  0  0
 10 17  1  0  0  0  0
M  END

> <original SMILES>

NS(=O)(=O)c1cc2cc(F)ccc2[nH]1

> <ref_mols>

x0072_0,x0104_0,x0161_0

> <ref_pdb>

receptors/protein-0387.pdb

> <Chemgauss4>

-5.45695781707764

> <binding_free_energy>

-3.6569875099999933

> <binding_std_error>

0.0794453702030365

$$$$
PAU-UNI-6d15a9f5-2
  -OEChem-05122002103D

 18 20  0     1  0  0  0  0  0999 V2000
    6.4807   -0.6377   20.1183 C   0  0  0  0  0  0  0  0  0  0  0  0
    7.4768   -0.7690   21.0442 C   0  0  0  0  0  0  0  0  0  0  0  0
    8.5611   -0.0252   20.5673 C   0  0  0  0  0  0  0  0  0  0  0  0
    9.8053    0.1281   21.2875 C   0  0  0  0  0  0  0  0  0  0  0  0
   14.2523   -2.2313   22.9581 C   0  0  0  0  0  0  0  0  0  0  0  0
   13.2506   -1.5670   23.8690 C   0  0  0  0  0  0  0  0  0  0  0  0
   13.8496   -1.6901   21.6026 C   0  0  0  0  0  0  0  0  0  0  0  0
    8.7872   -1.5597   22.9105 C   0  0  0  0  0  0  0  0  0  0  0  0
   11.9963   -1.5974   23.0128 C   0  0  1  0  0  0  0  0  0  0  0  0
    6.3628    0.5870   17.9335 C   0  0  0  0  0  0  0  0  0  0  0  0
   11.0015   -0.5062   23.3577 C   0  0  0  0  0  0  0  0  0  0  0  0
    8.2894    0.5490   19.3909 N   0  0  0  0  0  0  0  0  0  0  0  0
    7.0211    0.1563   19.1437 N   0  0  0  0  0  0  0  0  0  0  0  0
    7.5180   -1.4315   22.2083 N   0  0  0  0  0  0  0  0  0  0  0  0
    9.8248   -0.5795   22.5044 N   0  0  0  0  0  0  0  0  0  0  0  0
   10.7156    0.8320   20.8604 O   0  0  0  0  0  0  0  0  0  0  0  0
   12.4361   -1.4450   21.6526 O   0  0  0  0  0  0  0  0  0  0  0  0
    6.7305   -1.9617   22.5699 H   0  0  0  0  0  0  0  0  0  0  0  0
  1  2  2  0  0  0  0
  1 13  1  0  0  0  0
  2  3  1  0  0  0  0
  2 14  1  0  0  0  0
  3  4  1  0  0  0  0
  3 12  2  0  0  0  0
  4 15  1  0  0  0  0
  4 16  2  0  0  0  0
  5  6  1  0  0  0  0
  5  7  1  0  0  0  0
  6  9  1  0  0  0  0
  7 17  1  0  0  0  0
  8 14  1  0  0  0  0
  8 15  1  0  0  0  0
  9 11  1  0  0  0  0
  9 17  1  0  0  0  0
 10 13  1  0  0  0  0
 11 15  1  0  0  0  0
 12 13  1  0  0  0  0
 14 18  1  0  0  0  0
M  END

> <original SMILES>

Cn1cc2c(n1)C(=O)N(C[C@@H]1CCCO1)CN2

> <ref_mols>

x1086_0

> <ref_pdb>

receptors/Mpro-x1086_0.pdb

> <Chemgauss4>

-7.325227

> <binding_free_energy>

-3.648190588383846

> <binding_std_error>

0.05391474999999879

$$$$
MAK-UNK-6435e6c2-10
  -OEChem-05122002103D

 17 18  0     0  0  0  0  0  0999 V2000
   11.7975   -0.7837   24.6064 C   0  0  0  0  0  0  0  0  0  0  0  0
   13.1704   -0.6777   24.5666 C   0  0  0  0  0  0  0  0  0  0  0  0
   12.2680   -1.7545   22.5476 C   0  0  0  0  0  0  0  0  0  0  0  0
   11.2747   -1.4076   23.4369 C   0  0  0  0  0  0  0  0  0  0  0  0
    7.2054   -5.4300   26.9557 C   0  0  0  0  0  0  0  0  0  0  0  0
    8.9418   -3.5923   26.6743 C   0  0  0  0  0  0  0  0  0  0  0  0
    8.5071   -5.2050   24.8628 C   0  0  0  0  0  0  0  0  0  0  0  0
    8.8577   -2.4430   25.6744 C   0  0  0  0  0  0  0  0  0  0  0  0
    8.4183   -4.0619   23.8579 C   0  0  0  0  0  0  0  0  0  0  0  0
    6.0749   -6.0646   26.1858 C   0  0  0  0  0  0  0  0  0  0  0  0
    8.1613   -4.7443   26.2082 N   0  0  0  0  0  0  0  0  0  0  0  0
    9.2716   -2.9269   24.3226 N   0  0  0  0  0  0  0  0  0  0  0  0
    7.2378   -5.5436   28.1836 O   0  0  0  0  0  0  0  0  0  0  0  0
    8.8356   -0.5068   23.5488 O   0  0  0  0  0  0  0  0  0  0  0  0
    9.4068   -2.2646   21.8366 O   0  0  0  0  0  0  0  0  0  0  0  0
   13.8234   -1.3286   23.1236 S   0  0  0  0  0  0  0  0  0  0  0  0
    9.5560   -1.7001   23.1606 S   0  0  0  0  0  0  0  0  0  0  0  0
  1  2  2  0  0  0  0
  1  4  1  0  0  0  0
  2 16  1  0  0  0  0
  3  4  2  0  0  0  0
  3 16  1  0  0  0  0
  4 17  1  0  0  0  0
  5 10  1  0  0  0  0
  5 11  1  0  0  0  0
  5 13  2  0  0  0  0
  6  8  1  0  0  0  0
  6 11  1  0  0  0  0
  7  9  1  0  0  0  0
  7 11  1  0  0  0  0
  8 12  1  0  0  0  0
  9 12  1  0  0  0  0
 12 17  1  0  0  0  0
 14 17  2  0  0  0  0
 15 17  2  0  0  0  0
M  END

> <original SMILES>

CC(=O)N1CCN(S(=O)(=O)c2ccsc2)CC1

> <ref_mols>

x0689_0

> <ref_pdb>

receptors/Mpro-x0689-protein.pdb

> <Chemgauss4>

-2.380683

> <binding_free_energy>

-3.5113213023757055

> <binding_std_error>

4.427563155848553

$$$$
CAS-DEP-751a2458-1
  -OEChem-05122002103D

 21 23  0     0  0  0  0  0  0999 V2000
   13.8813   -1.8714   26.2785 C   0  0  0  0  0  0  0  0  0  0  0  0
    8.8032   -5.3343   23.9184 C   0  0  0  0  0  0  0  0  0  0  0  0
   13.2593   -0.6486   26.0160 C   0  0  0  0  0  0  0  0  0  0  0  0
   13.3045   -3.0803   25.8757 C   0  0  0  0  0  0  0  0  0  0  0  0
    7.7728   -6.0507   23.3096 C   0  0  0  0  0  0  0  0  0  0  0  0
    7.3593   -4.1921   21.8224 C   0  0  0  0  0  0  0  0  0  0  0  0
    9.1117   -4.0468   23.4793 C   0  0  0  0  0  0  0  0  0  0  0  0
   12.0346   -0.5928   25.3388 C   0  0  0  0  0  0  0  0  0  0  0  0
   11.4409   -1.7978   24.9266 C   0  0  0  0  0  0  0  0  0  0  0  0
   12.0848   -3.0006   25.2028 C   0  0  0  0  0  0  0  0  0  0  0  0
    7.0508   -5.4796   22.2616 C   0  0  0  0  0  0  0  0  0  0  0  0
    8.3898   -3.4757   22.4313 C   0  0  0  0  0  0  0  0  0  0  0  0
   10.1811   -3.3229   24.1226 C   0  0  0  0  0  0  0  0  0  0  0  0
   11.4084    0.7391   25.0830 C   0  0  0  0  0  0  0  0  0  0  0  0
   10.2601   -2.0178   24.2553 N   0  0  0  0  0  0  0  0  0  0  0  0
   11.2566   -3.9590   24.6773 N   0  0  0  0  0  0  0  0  0  0  0  0
    6.0454   -6.1788   21.6677 O   0  0  0  0  0  0  0  0  0  0  0  0
    8.6698   -2.2190   21.9817 O   0  0  0  0  0  0  0  0  0  0  0  0
   11.4167   -4.9577   24.6994 H   0  0  0  0  0  0  0  0  0  0  0  0
    5.6410   -5.6513   20.9605 H   0  0  0  0  0  0  0  0  0  0  0  0
    8.0739   -1.9845   21.2538 H   0  0  0  0  0  0  0  0  0  0  0  0
  1  3  2  0  0  0  0
  1  4  1  0  0  0  0
  2  5  2  0  0  0  0
  2  7  1  0  0  0  0
  3  8  1  0  0  0  0
  4 10  2  0  0  0  0
  5 11  1  0  0  0  0
  6 11  2  0  0  0  0
  6 12  1  0  0  0  0
  7 12  2  0  0  0  0
  7 13  1  0  0  0  0
  8  9  2  0  0  0  0
  8 14  1  0  0  0  0
  9 10  1  0  0  0  0
  9 15  1  0  0  0  0
 10 16  1  0  0  0  0
 11 17  1  0  0  0  0
 12 18  1  0  0  0  0
 13 15  2  0  0  0  0
 13 16  1  0  0  0  0
 16 19  1  0  0  0  0
 17 20  1  0  0  0  0
 18 21  1  0  0  0  0
M  END

> <original SMILES>

Cc1cccc2nc(-c3ccc(O)cc3O)[nH]c12

> <ref_mols>

x0104_0

> <ref_pdb>

receptors/Mpro-x0104_0.pdb

> <Chemgauss4>

-7.900784

> <binding_free_energy>

-3.497918795959592

> <binding_std_error>

1.0138550535765758

$$$$
DAR-DIA-caba39e3-2
  -OEChem-05122002103D

 22 24  0     1  0  0  0  0  0999 V2000
    6.5889   -5.4863   23.6590 C   0  0  0  0  0  0  0  0  0  0  0  0
    7.9544   -5.2922   23.8377 C   0  0  0  0  0  0  0  0  0  0  0  0
   10.1052   -0.1693   24.8433 C   0  0  0  0  0  0  0  0  0  0  0  0
    5.8516   -4.5769   22.9035 C   0  0  0  0  0  0  0  0  0  0  0  0
    8.5814   -4.1798   23.2752 C   0  0  0  0  0  0  0  0  0  0  0  0
    9.1683   -0.7930   24.0195 C   0  0  0  0  0  0  0  0  0  0  0  0
   11.4426   -0.1023   24.4526 C   0  0  0  0  0  0  0  0  0  0  0  0
   10.9062   -1.2830   22.4142 C   0  0  0  0  0  0  0  0  0  0  0  0
    9.5688   -1.3499   22.8049 C   0  0  0  0  0  0  0  0  0  0  0  0
    6.4727   -3.4607   22.3216 C   0  0  0  0  0  0  0  0  0  0  0  0
    7.8483   -3.2338   22.5370 C   0  0  0  0  0  0  0  0  0  0  0  0
   11.8431   -0.6592   23.2380 C   0  0  0  0  0  0  0  0  0  0  0  0
    6.1479   -1.4444   19.3226 C   0  0  0  0  0  0  0  0  0  0  0  0
    5.6362   -2.5146   21.4959 C   0  0  0  0  0  0  0  0  0  0  0  0
    7.5472   -0.9764   21.3902 C   0  0  0  0  0  0  0  0  0  0  0  0
    8.5458   -2.0314   21.9058 C   0  0  1  0  0  0  0  0  0  0  0  0
   13.4885   -1.1830   21.6028 C   0  0  0  0  0  0  0  0  0  0  0  0
    6.5059   -0.1067   18.7257 C   0  0  0  0  0  0  0  0  0  0  0  0
    6.4521   -1.6265   20.6705 N   0  0  0  0  0  0  0  0  0  0  0  0
    5.6165   -2.3007   18.6111 O   0  0  0  0  0  0  0  0  0  0  0  0
   13.1480   -0.5933   22.8565 O   0  0  0  0  0  0  0  0  0  0  0  0
    5.3580    0.1866   17.4245 Cl  0  0  0  0  0  0  0  0  0  0  0  0
  1  2  1  0  0  0  0
  1  4  2  0  0  0  0
  2  5  2  0  0  0  0
  3  6  1  0  0  0  0
  3  7  2  0  0  0  0
  4 10  1  0  0  0  0
  5 11  1  0  0  0  0
  6  9  2  0  0  0  0
  7 12  1  0  0  0  0
  8  9  1  0  0  0  0
  8 12  2  0  0  0  0
  9 16  1  0  0  0  0
 10 11  2  0  0  0  0
 10 14  1  0  0  0  0
 11 16  1  0  0  0  0
 12 21  1  0  0  0  0
 13 18  1  0  0  0  0
 13 19  1  0  0  0  0
 13 20  2  0  0  0  0
 14 19  1  0  0  0  0
 15 16  1  0  0  0  0
 15 19  1  0  0  0  0
 17 21  1  0  0  0  0
 18 22  1  0  0  0  0
M  END

> <original SMILES>

COc1cccc([C@@H]2CN(C(=O)CCl)Cc3ccccc32)c1

> <ref_mols>

x0195_0,x0305_0,x0830_0,x1249_0,x1392_0

> <ref_pdb>

receptors/Mpro-x0830-protein.pdb

> <Chemgauss4>

-7.967033

> <binding_free_energy>

-3.4729984800000047

> <binding_std_error>

0.37375314653322667

$$$$
MAK-UNK-6435e6c2-3
  -OEChem-05122002103D

 16 17  0     0  0  0  0  0  0999 V2000
   12.4193   -1.7103   22.2275 C   0  0  0  0  0  0  0  0  0  0  0  0
   13.3001   -0.6777   22.4630 C   0  0  0  0  0  0  0  0  0  0  0  0
   11.1739   -0.3695   23.6604 C   0  0  0  0  0  0  0  0  0  0  0  0
   11.1875   -1.5318   22.9210 C   0  0  0  0  0  0  0  0  0  0  0  0
    6.0687   -1.2672   19.1935 C   0  0  0  0  0  0  0  0  0  0  0  0
    6.5055   -2.2427   21.4248 C   0  0  0  0  0  0  0  0  0  0  0  0
    7.7699   -0.2300   20.7741 C   0  0  0  0  0  0  0  0  0  0  0  0
    7.7885   -2.9308   21.8675 C   0  0  0  0  0  0  0  0  0  0  0  0
    9.0727   -0.8875   21.2090 C   0  0  0  0  0  0  0  0  0  0  0  0
    5.8483    0.0581   18.5089 C   0  0  0  0  0  0  0  0  0  0  0  0
   10.0416   -2.4978   22.8533 C   0  0  0  0  0  0  0  0  0  0  0  0
    6.7753   -1.2393   20.3950 N   0  0  0  0  0  0  0  0  0  0  0  0
    8.7826   -1.8811   22.3117 N   0  3  0  0  0  0  0  0  0  0  0  0
    5.6278   -2.2953   18.6733 O   0  0  0  0  0  0  0  0  0  0  0  0
   12.6416    0.5007   23.5166 S   0  0  0  0  0  0  0  0  0  0  0  0
    8.3539   -1.3603   23.0892 H   0  0  0  0  0  0  0  0  0  0  0  0
  1  2  2  0  0  0  0
  1  4  1  0  0  0  0
  2 15  1  0  0  0  0
  3  4  2  0  0  0  0
  3 15  1  0  0  0  0
  4 11  1  0  0  0  0
  5 10  1  0  0  0  0
  5 12  1  0  0  0  0
  5 14  2  0  0  0  0
  6  8  1  0  0  0  0
  6 12  1  0  0  0  0
  7  9  1  0  0  0  0
  7 12  1  0  0  0  0
  8 13  1  0  0  0  0
  9 13  1  0  0  0  0
 11 13  1  0  0  0  0
 13 16  1  0  0  0  0
M  CHG  1  13   1
M  END

> <original SMILES>

CC(=O)N1CCN(Cc2ccsc2)CC1

> <ref_mols>

x0689_0

> <ref_pdb>

receptors/Mpro-x0689_0.pdb

> <Chemgauss4>

-1.966782

> <binding_free_energy>

-3.45374704999999

> <binding_std_error>

0.11411574999998919

$$$$
DAR-DIA-43a5904b-11
  -OEChem-05122002103D

 24 26  0     1  0  0  0  0  0999 V2000
   12.6822    1.1044   23.9797 C   0  0  0  0  0  0  0  0  0  0  0  0
   11.3026    1.0621   24.1811 C   0  0  0  0  0  0  0  0  0  0  0  0
   13.2713    0.2888   23.0135 C   0  0  0  0  0  0  0  0  0  0  0  0
   11.1012   -0.6114   22.4503 C   0  0  0  0  0  0  0  0  0  0  0  0
    7.4361   -5.1637   24.8801 C   0  0  0  0  0  0  0  0  0  0  0  0
    9.2855   -4.0984   24.3510 C   0  0  0  0  0  0  0  0  0  0  0  0
   10.5121    0.2042   23.4164 C   0  0  0  0  0  0  0  0  0  0  0  0
    7.9321   -4.0898   24.1169 C   0  0  0  0  0  0  0  0  0  0  0  0
   12.4808   -0.5691   22.2488 C   0  0  0  0  0  0  0  0  0  0  0  0
    8.5292   -1.1964   24.0800 C   0  0  0  0  0  0  0  0  0  0  0  0
    7.7710   -1.7941   23.1523 C   0  0  0  0  0  0  0  0  0  0  0  0
    8.7566    1.2161   21.3090 C   0  0  0  0  0  0  0  0  0  0  0  0
    7.6124   -0.9435   21.9308 C   0  0  0  0  0  0  0  0  0  0  0  0
    9.0131    0.1579   23.6368 C   0  0  2  0  0  0  0  0  0  0  0  0
    8.1130    0.4256   22.4068 C   0  0  1  0  0  0  0  0  0  0  0  0
   10.7855   -5.5448   25.7426 C   0  0  0  0  0  0  0  0  0  0  0  0
    7.1549   -3.1430   23.2368 C   0  0  0  0  0  0  0  0  0  0  0  0
    8.3962   -5.8077   25.5490 N   0  0  0  0  0  0  0  0  0  0  0  0
    9.5091   -5.1367   25.2067 N   0  0  0  0  0  0  0  0  0  0  0  0
    9.2065    2.4530   21.7066 N   0  0  0  0  0  0  0  0  0  0  0  0
    8.8761    0.7732   20.1693 O   0  0  0  0  0  0  0  0  0  0  0  0
   13.2083   -1.5759   21.0577 Cl  0  0  0  0  0  0  0  0  0  0  0  0
    9.0763    2.7307   22.6739 H   0  0  0  0  0  0  0  0  0  0  0  0
    9.6636    3.0993   21.0716 H   0  0  0  0  0  0  0  0  0  0  0  0
  1  2  2  0  0  0  0
  1  3  1  0  0  0  0
  2  7  1  0  0  0  0
  3  9  2  0  0  0  0
  4  7  2  0  0  0  0
  4  9  1  0  0  0  0
  5  8  1  0  0  0  0
  5 18  2  0  0  0  0
  6  8  2  0  0  0  0
  6 19  1  0  0  0  0
  7 14  1  0  0  0  0
  8 17  1  0  0  0  0
  9 22  1  0  0  0  0
 10 11  2  0  0  0  0
 10 14  1  0  0  0  0
 11 13  1  0  0  0  0
 11 17  1  0  0  0  0
 12 15  1  0  0  0  0
 12 20  1  0  0  0  0
 12 21  2  0  0  0  0
 13 15  1  0  0  0  0
 14 15  1  0  0  0  0
 16 19  1  0  0  0  0
 18 19  1  0  0  0  0
 20 23  1  0  0  0  0
 20 24  1  0  0  0  0
M  END

> <original SMILES>

Cn1cc(CC2=C[C@@H](c3cccc(Cl)c3)[C@@H](C(N)=O)C2)cn1

> <ref_mols>

x0874_0

> <ref_pdb>

receptors/protein-0387.pdb

> <Chemgauss4>

-5.58957767486572

> <binding_free_energy>

-3.4268515538461544

> <binding_std_error>

0.10383043092194301

$$$$
JOH-UNI-522b0723-2
  -OEChem-05122002103D

 16 17  0     1  0  0  0  0  0999 V2000
    6.7362   -4.1175   21.7569 C   0  0  0  0  0  0  0  0  0  0  0  0
    8.5351   -4.6922   23.3175 C   0  0  0  0  0  0  0  0  0  0  0  0
    9.7173   -4.3097   23.9416 C   0  0  0  0  0  0  0  0  0  0  0  0
    9.6061   -2.2428   22.7702 C   0  0  0  0  0  0  0  0  0  0  0  0
    7.9492   -3.7987   22.4353 C   0  0  0  0  0  0  0  0  0  0  0  0
   10.2695   -3.0633   23.6682 C   0  0  0  0  0  0  0  0  0  0  0  0
   11.7956   -3.1420   25.6205 C   0  0  0  0  0  0  0  0  0  0  0  0
   13.3032   -3.0961   25.8357 C   0  0  0  0  0  0  0  0  0  0  0  0
   12.1020   -1.3917   23.8489 C   0  0  2  0  0  0  0  0  0  0  0  0
   13.6133   -1.4875   24.1486 C   0  0  1  0  0  0  0  0  0  0  0  0
   11.4160   -0.2069   24.5440 C   0  0  0  0  0  0  0  0  0  0  0  0
   14.3747   -0.2010   23.8497 C   0  0  0  0  0  0  0  0  0  0  0  0
    5.7489   -4.3769   21.2049 N   0  0  0  0  0  0  0  0  0  0  0  0
    8.4560   -2.5796   22.1445 N   0  0  0  0  0  0  0  0  0  0  0  0
   11.4576   -2.6516   24.2795 N   0  0  2  0  0  0  0  0  0  0  0  0
   13.8279   -1.8080   25.5264 O   0  0  0  0  0  0  0  0  0  0  0  0
  1  5  1  0  0  0  0
  1 13  3  0  0  0  0
  2  3  2  0  0  0  0
  2  5  1  0  0  0  0
  3  6  1  0  0  0  0
  4  6  2  0  0  0  0
  4 14  1  0  0  0  0
  5 14  2  0  0  0  0
  6 15  1  0  0  0  0
  7  8  1  0  0  0  0
  7 15  1  0  0  0  0
  8 16  1  0  0  0  0
  9 10  1  0  0  0  0
  9 11  1  0  0  0  0
  9 15  1  0  0  0  0
 10 12  1  0  0  0  0
 10 16  1  0  0  0  0
M  END

> <original SMILES>

CC1OCCN(c2ccc(C#N)nc2)C1C

> <ref_mols>

x0434_0,x1077_0

> <ref_pdb>

receptors/Mpro-x0434-protein.pdb

> <Chemgauss4>

-4.900206

> <binding_free_energy>

-3.4243348140540064

> <binding_std_error>

7.294013424037564

$$$$
TRY-UNI-1fd04853-6
  -OEChem-05122002103D

 24 26  0     0  0  0  0  0  0999 V2000
   11.7765    1.1049   24.7441 C   0  0  0  0  0  0  0  0  0  0  0  0
   14.1490   -1.7293   24.3027 C   0  0  0  0  0  0  0  0  0  0  0  0
    7.4775   -1.8536   20.7006 C   0  0  0  0  0  0  0  0  0  0  0  0
   13.6094   -0.4434   24.2729 C   0  0  0  0  0  0  0  0  0  0  0  0
    8.1948   -2.7615   21.4775 C   0  0  0  0  0  0  0  0  0  0  0  0
   13.4081   -2.7845   24.8349 C   0  0  0  0  0  0  0  0  0  0  0  0
   11.5878   -1.2678   25.3077 C   0  0  0  0  0  0  0  0  0  0  0  0
    6.1981   -2.1959   20.2838 C   0  0  0  0  0  0  0  0  0  0  0  0
    6.8733   -6.0157   22.4796 C   0  0  0  0  0  0  0  0  0  0  0  0
   12.3288   -0.2127   24.7754 C   0  0  0  0  0  0  0  0  0  0  0  0
    7.5778   -3.9816   21.7976 C   0  0  0  0  0  0  0  0  0  0  0  0
   12.1275   -2.5537   25.3375 C   0  0  0  0  0  0  0  0  0  0  0  0
    7.9371   -5.1410   22.5346 C   0  0  0  0  0  0  0  0  0  0  0  0
    6.2905   -4.1948   21.3132 C   0  0  0  0  0  0  0  0  0  0  0  0
    9.5504   -4.3355   24.3026 C   0  0  0  0  0  0  0  0  0  0  0  0
    9.2150   -5.3772   23.2357 C   0  0  0  0  0  0  0  0  0  0  0  0
   11.3302   -3.6896   25.9104 C   0  0  0  0  0  0  0  0  0  0  0  0
   11.3280    2.1749   24.7185 N   0  0  0  0  0  0  0  0  0  0  0  0
    5.5552   -3.3541   20.5612 N   0  0  0  0  0  0  0  0  0  0  0  0
    5.8806   -5.4318   21.7361 N   0  0  0  0  0  0  0  0  0  0  0  0
   10.7944   -4.5477   24.8798 N   0  0  0  0  0  0  0  0  0  0  0  0
    8.7855   -3.4197   24.5943 O   0  0  0  0  0  0  0  0  0  0  0  0
    4.9840   -5.8498   21.5298 H   0  0  0  0  0  0  0  0  0  0  0  0
   11.3499   -5.3377   24.5651 H   0  0  0  0  0  0  0  0  0  0  0  0
  1 10  1  0  0  0  0
  1 18  3  0  0  0  0
  2  4  2  0  0  0  0
  2  6  1  0  0  0  0
  3  5  2  0  0  0  0
  3  8  1  0  0  0  0
  4 10  1  0  0  0  0
  5 11  1  0  0  0  0
  6 12  2  0  0  0  0
  7 10  2  0  0  0  0
  7 12  1  0  0  0  0
  8 19  2  0  0  0  0
  9 13  2  0  0  0  0
  9 20  1  0  0  0  0
 11 13  1  0  0  0  0
 11 14  2  0  0  0  0
 12 17  1  0  0  0  0
 13 16  1  0  0  0  0
 14 19  1  0  0  0  0
 14 20  1  0  0  0  0
 15 16  1  0  0  0  0
 15 21  1  0  0  0  0
 15 22  2  0  0  0  0
 17 21  1  0  0  0  0
 20 23  1  0  0  0  0
 21 24  1  0  0  0  0
M  END

> <original SMILES>

N#Cc1cccc(CNC(=O)Cc2c[nH]c3ncccc23)c1

> <ref_mols>

x0104_0,x0161_0,x0195_0,x0305_0,x0387_0,x0678_0,x1382_0

> <ref_pdb>

receptors/Mpro-x0387-protein.pdb

> <Chemgauss4>

-3.854483

> <binding_free_energy>

-3.4232561830976493

> <binding_std_error>

3.2973950383137893

$$$$
ALV-UNI-7ff1a6f9-33
  -OEChem-05122002103D

 23 26  0     0  0  0  0  0  0999 V2000
   11.4355   -2.0425   22.3469 C   0  0  0  0  0  0  0  0  0  0  0  0
   12.5053   -0.2163   21.1817 C   0  0  0  0  0  0  0  0  0  0  0  0
   12.6748   -2.4577   22.8340 C   0  0  0  0  0  0  0  0  0  0  0  0
   13.7447   -0.6315   21.6688 C   0  0  0  0  0  0  0  0  0  0  0  0
    9.6335    0.7397   24.0712 C   0  0  0  0  0  0  0  0  0  0  0  0
    7.9769   -0.7058   24.0392 C   0  0  0  0  0  0  0  0  0  0  0  0
   11.3508   -0.9218   21.5207 C   0  0  0  0  0  0  0  0  0  0  0  0
    8.8416   -0.0390   23.2061 C   0  0  0  0  0  0  0  0  0  0  0  0
    8.9462   -0.0963   21.7657 C   0  0  0  0  0  0  0  0  0  0  0  0
   13.8294   -1.7522   22.4950 C   0  0  0  0  0  0  0  0  0  0  0  0
   10.0694   -0.4926   21.0169 C   0  0  0  0  0  0  0  0  0  0  0  0
    7.9991    0.2127   20.8202 C   0  0  0  0  0  0  0  0  0  0  0  0
    6.6657    0.6696   20.8364 C   0  0  0  0  0  0  0  0  0  0  0  0
    6.0291    0.8692   19.6760 C   0  0  0  0  0  0  0  0  0  0  0  0
    6.7875    0.5894   18.4201 C   0  0  0  0  0  0  0  0  0  0  0  0
    6.0490    0.8198   17.1274 C   0  0  0  0  0  0  0  0  0  0  0  0
    7.6524   -0.7314   26.5243 C   0  0  0  0  0  0  0  0  0  0  0  0
    9.3012    0.5831   25.3554 N   0  0  0  0  0  0  0  0  0  0  0  0
    9.8610   -0.4420   19.6987 N   0  0  0  0  0  0  0  0  0  0  0  0
    8.0171    0.1675   18.3689 N   0  0  0  0  0  0  0  0  0  0  0  0
    8.2909   -0.3015   25.3033 N   0  0  0  0  0  0  0  0  0  0  0  0
    8.5865   -0.0080   19.5923 N   0  0  0  0  0  0  0  0  0  0  0  0
   15.0195   -2.1510   22.9629 F   0  0  0  0  0  0  0  0  0  0  0  0
  1  3  2  0  0  0  0
  1  7  1  0  0  0  0
  2  4  1  0  0  0  0
  2  7  2  0  0  0  0
  3 10  1  0  0  0  0
  4 10  2  0  0  0  0
  5  8  1  0  0  0  0
  5 18  2  0  0  0  0
  6  8  2  0  0  0  0
  6 21  1  0  0  0  0
  7 11  1  0  0  0  0
  8  9  1  0  0  0  0
  9 11  1  0  0  0  0
  9 12  2  0  0  0  0
 10 23  1  0  0  0  0
 11 19  2  0  0  0  0
 12 13  1  0  0  0  0
 12 22  1  0  0  0  0
 13 14  2  0  0  0  0
 14 15  1  0  0  0  0
 15 16  1  0  0  0  0
 15 20  2  0  0  0  0
 17 21  1  0  0  0  0
 18 21  1  0  0  0  0
 19 22  1  0  0  0  0
 20 22  1  0  0  0  0
M  END

> <original SMILES>

Cc1ccc2c(-c3cnn(C)c3)c(-c3ccc(F)cc3)nn2n1

> <ref_mols>

x0395_0,x0426_0,x0434_0,x0540_0,x0678_0,x0830_0,x1093_0

> <ref_pdb>

receptors/Mpro-x0395-protein.pdb

> <Chemgauss4>

-5.022665

> <binding_free_energy>

-3.356871784329897

> <binding_std_error>

0.07531767132052324

$$$$
JOH-UNI-9dc98897-1
  -OEChem-05122002103D

 16 17  0     1  0  0  0  0  0999 V2000
    6.6702   -4.2211   21.5350 C   0  0  0  0  0  0  0  0  0  0  0  0
    9.3626   -4.5118   24.0590 C   0  0  0  0  0  0  0  0  0  0  0  0
    9.2772   -2.3394   23.0948 C   0  0  0  0  0  0  0  0  0  0  0  0
    7.7681   -3.9241   22.3952 C   0  0  0  0  0  0  0  0  0  0  0  0
    9.8709   -3.2198   23.9848 C   0  0  0  0  0  0  0  0  0  0  0  0
    8.2912   -4.8788   23.2523 C   0  0  0  0  0  0  0  0  0  0  0  0
   12.1400   -0.7075   24.3836 C   0  0  0  0  0  0  0  0  0  0  0  0
   11.0861   -1.4319   25.2197 C   0  0  0  0  0  0  0  0  0  0  0  0
   11.9097   -3.8272   25.2512 C   0  0  0  0  0  0  0  0  0  0  0  0
   13.5745   -1.0829   24.7431 C   0  0  0  0  0  0  0  0  0  0  0  0
   13.2566   -3.2498   25.6740 C   0  0  0  0  0  0  0  0  0  0  0  0
    5.7768   -4.4628   20.8349 N   0  0  0  0  0  0  0  0  0  0  0  0
    8.2352   -2.6594   22.2952 N   0  0  0  0  0  0  0  0  0  0  0  0
   10.9482   -2.8228   24.7840 N   0  0  3  0  0  0  0  0  0  0  0  0
   13.8366   -2.4781   24.6262 O   0  0  0  0  0  0  0  0  0  0  0  0
    7.7905   -6.1193   23.3130 F   0  0  0  0  0  0  0  0  0  0  0  0
  1  4  1  0  0  0  0
  1 12  3  0  0  0  0
  2  5  2  0  0  0  0
  2  6  1  0  0  0  0
  3  5  1  0  0  0  0
  3 13  2  0  0  0  0
  4  6  2  0  0  0  0
  4 13  1  0  0  0  0
  5 14  1  0  0  0  0
  6 16  1  0  0  0  0
  7  8  1  0  0  0  0
  7 10  1  0  0  0  0
  8 14  1  0  0  0  0
  9 11  1  0  0  0  0
  9 14  1  0  0  0  0
 10 15  1  0  0  0  0
 11 15  1  0  0  0  0
M  END

> <original SMILES>

N#Cc1ncc(N2CCCOCC2)cc1F

> <ref_mols>

x1077_0

> <ref_pdb>

receptors/Mpro-x1077-protein.pdb

> <Chemgauss4>

-6.838572

> <binding_free_energy>

-3.328755145263173

> <binding_std_error>

0.04613149447339841

$$$$
JOH-MEM-5e386bbd-7
  -OEChem-05122002103D

 15 16  0     0  0  0  0  0  0999 V2000
   12.0472    0.5201   24.4956 C   0  0  0  0  0  0  0  0  0  0  0  0
   12.7045    0.2279   23.2971 C   0  0  0  0  0  0  0  0  0  0  0  0
   11.2663   -1.6898   22.9086 C   0  0  0  0  0  0  0  0  0  0  0  0
    9.2771   -1.3036   25.9507 C   0  0  0  0  0  0  0  0  0  0  0  0
   10.5888   -1.4151   24.1131 C   0  0  0  0  0  0  0  0  0  0  0  0
    9.5046   -2.0268   24.8025 C   0  0  0  0  0  0  0  0  0  0  0  0
   10.9941   -0.3187   24.8773 C   0  0  0  0  0  0  0  0  0  0  0  0
   12.3217   -0.8594   22.5142 C   0  0  0  0  0  0  0  0  0  0  0  0
    8.7813   -4.3751   25.3602 C   0  0  0  0  0  0  0  0  0  0  0  0
    8.7511   -3.2217   24.3723 C   0  0  0  0  0  0  0  0  0  0  0  0
   10.1802   -0.2752   25.9868 N   0  0  0  0  0  0  0  0  0  0  0  0
    7.7904   -4.8138   25.9348 O   0  0  0  0  0  0  0  0  0  0  0  0
   12.9812   -1.1186   21.3499 O   0  0  0  0  0  0  0  0  0  0  0  0
   10.2418    0.4159   26.7216 H   0  0  0  0  0  0  0  0  0  0  0  0
   12.6040   -1.9013   20.9189 H   0  0  0  0  0  0  0  0  0  0  0  0
  1  2  2  0  0  0  0
  1  7  1  0  0  0  0
  2  8  1  0  0  0  0
  3  5  1  0  0  0  0
  3  8  2  0  0  0  0
  4  6  2  0  0  0  0
  4 11  1  0  0  0  0
  5  6  1  0  0  0  0
  5  7  2  0  0  0  0
  6 10  1  0  0  0  0
  7 11  1  0  0  0  0
  8 13  1  0  0  0  0
  9 10  1  0  0  0  0
  9 12  2  0  0  0  0
 11 14  1  0  0  0  0
 13 15  1  0  0  0  0
M  END

> <original SMILES>

O=CCc1c[nH]c2ccc(O)cc12

> <ref_mols>

x0104_0

> <ref_pdb>

receptors/protein-0387.pdb

> <Chemgauss4>

-6.39984846115112

> <binding_free_energy>

-3.315722781225716

> <binding_std_error>

3.2919165901983836

$$$$
DAR-DIA-fc970077-8
  -OEChem-05122002103D

 19 21  0     1  0  0  0  0  0999 V2000
   14.2873   -0.7801   23.5251 C   0  0  0  0  0  0  0  0  0  0  0  0
   14.0691   -1.7821   22.5796 C   0  0  0  0  0  0  0  0  0  0  0  0
   13.2033   -0.1532   24.1397 C   0  0  0  0  0  0  0  0  0  0  0  0
    5.9274    1.2294   19.4014 C   0  0  0  0  0  0  0  0  0  0  0  0
   12.7670   -2.1572   22.2486 C   0  0  0  0  0  0  0  0  0  0  0  0
   11.9012   -0.5282   23.8087 C   0  0  0  0  0  0  0  0  0  0  0  0
    6.5601    0.6267   20.4829 C   0  0  0  0  0  0  0  0  0  0  0  0
    6.4405    0.9938   18.1361 C   0  0  0  0  0  0  0  0  0  0  0  0
    8.1059   -0.3544   18.9650 C   0  0  0  0  0  0  0  0  0  0  0  0
   11.6831   -1.5302   22.8632 C   0  0  0  0  0  0  0  0  0  0  0  0
    7.6710   -0.1818   20.2691 C   0  0  0  0  0  0  0  0  0  0  0  0
    9.7283   -1.0989   21.3293 C   0  0  0  0  0  0  0  0  0  0  0  0
    7.6001   -1.0155   22.6186 C   0  0  0  0  0  0  0  0  0  0  0  0
    8.1451   -2.1602   23.4442 C   0  0  0  0  0  0  0  0  0  0  0  0
   10.2679   -1.9370   22.5038 C   0  0  2  0  0  0  0  0  0  0  0  0
    7.5173    0.2146   17.8891 N   0  0  0  0  0  0  0  0  0  0  0  0
    8.3497   -0.8212   21.3718 N   0  0  0  0  0  0  0  0  0  0  0  0
   10.4991   -0.7509   20.4315 O   0  0  0  0  0  0  0  0  0  0  0  0
    9.5149   -1.9054   23.6999 O   0  0  0  0  0  0  0  0  0  0  0  0
  1  2  1  0  0  0  0
  1  3  2  0  0  0  0
  2  5  2  0  0  0  0
  3  6  1  0  0  0  0
  4  7  2  0  0  0  0
  4  8  1  0  0  0  0
  5 10  1  0  0  0  0
  6 10  2  0  0  0  0
  7 11  1  0  0  0  0
  8 16  2  0  0  0  0
  9 11  2  0  0  0  0
  9 16  1  0  0  0  0
 10 15  1  0  0  0  0
 11 17  1  0  0  0  0
 12 15  1  0  0  0  0
 12 17  1  0  0  0  0
 12 18  2  0  0  0  0
 13 14  1  0  0  0  0
 13 17  1  0  0  0  0
 14 19  1  0  0  0  0
 15 19  1  0  0  0  0
M  END

> <original SMILES>

O=C1C(c2ccccc2)OCCN1c1cccnc1

> <ref_mols>

x0434_0

> <ref_pdb>

receptors/protein-0387.pdb

> <Chemgauss4>

-5.58173084259033

> <binding_free_energy>

-3.2937237567598956

> <binding_std_error>

3.469339829002683

$$$$
ALV-UNI-7ff1a6f9-35
  -OEChem-05122002103D

 26 29  0     0  0  0  0  0  0999 V2000
    9.6159   -1.4279   25.1200 C   0  0  0  0  0  0  0  0  0  0  0  0
    8.1143   -0.8853   23.3067 C   0  0  0  0  0  0  0  0  0  0  0  0
    8.9420   -2.6331   25.3174 C   0  0  0  0  0  0  0  0  0  0  0  0
    7.4404   -2.0906   23.5041 C   0  0  0  0  0  0  0  0  0  0  0  0
   12.2315   -1.0496   22.3750 C   0  0  0  0  0  0  0  0  0  0  0  0
   13.4465   -0.1180   24.1391 C   0  0  0  0  0  0  0  0  0  0  0  0
    9.2020   -0.5540   24.1147 C   0  0  0  0  0  0  0  0  0  0  0  0
   12.3027   -0.0935   23.3675 C   0  0  0  0  0  0  0  0  0  0  0  0
   11.2561    0.8622   23.5847 C   0  0  0  0  0  0  0  0  0  0  0  0
    7.8543   -2.9645   24.5095 C   0  0  0  0  0  0  0  0  0  0  0  0
    9.8982    0.6916   23.9109 C   0  0  0  0  0  0  0  0  0  0  0  0
   11.4179    2.2237   23.5035 C   0  0  0  0  0  0  0  0  0  0  0  0
   14.2621   -1.8846   22.9639 C   0  0  0  0  0  0  0  0  0  0  0  0
   12.4856    3.1001   23.2232 C   0  0  0  0  0  0  0  0  0  0  0  0
   12.2671    4.4206   23.2330 C   0  0  0  0  0  0  0  0  0  0  0  0
   10.8823    4.8848   23.5458 C   0  0  0  0  0  0  0  0  0  0  0  0
   10.6616    6.3750   23.5507 C   0  0  0  0  0  0  0  0  0  0  0  0
   13.1964   -1.9640   22.1444 N   0  0  0  0  0  0  0  0  0  0  0  0
   14.4499   -1.0030   23.9644 N   0  0  0  0  0  0  0  0  0  0  0  0
    9.2416    1.8485   24.0292 N   0  0  0  0  0  0  0  0  0  0  0  0
    9.8750    4.1046   23.8087 N   0  0  0  0  0  0  0  0  0  0  0  0
   10.1862    2.7802   23.7770 N   0  0  0  0  0  0  0  0  0  0  0  0
   15.2921   -2.8270   22.7525 N   0  0  0  0  0  0  0  0  0  0  0  0
    7.2073   -4.1219   24.6991 F   0  0  0  0  0  0  0  0  0  0  0  0
   15.1722   -3.5295   22.0522 H   0  0  0  0  0  0  0  0  0  0  0  0
   16.0789   -2.8333   23.3683 H   0  0  0  0  0  0  0  0  0  0  0  0
  1  3  2  0  0  0  0
  1  7  1  0  0  0  0
  2  4  1  0  0  0  0
  2  7  2  0  0  0  0
  3 10  1  0  0  0  0
  4 10  2  0  0  0  0
  5  8  1  0  0  0  0
  5 18  2  0  0  0  0
  6  8  2  0  0  0  0
  6 19  1  0  0  0  0
  7 11  1  0  0  0  0
  8  9  1  0  0  0  0
  9 11  1  0  0  0  0
  9 12  2  0  0  0  0
 10 24  1  0  0  0  0
 11 20  2  0  0  0  0
 12 14  1  0  0  0  0
 12 22  1  0  0  0  0
 13 18  1  0  0  0  0
 13 19  2  0  0  0  0
 13 23  1  0  0  0  0
 14 15  2  0  0  0  0
 15 16  1  0  0  0  0
 16 17  1  0  0  0  0
 16 21  2  0  0  0  0
 20 22  1  0  0  0  0
 21 22  1  0  0  0  0
 23 25  1  0  0  0  0
 23 26  1  0  0  0  0
M  END

> <original SMILES>

Cc1ccc2c(-c3cnc(N)nc3)c(-c3ccc(F)cc3)nn2n1

> <ref_mols>

x0395_0,x0426_0,x0434_0,x0540_0,x0678_0,x0830_0,x1093_0

> <ref_pdb>

receptors/Mpro-x1093-protein.pdb

> <Chemgauss4>

-6.996514

> <binding_free_energy>

-3.2817915745454442

> <binding_std_error>

0.08435632895107219

$$$$
WAR-XCH-b72a1bbc-38
  -OEChem-05122002103D

 27 29  0     0  0  0  0  0  0999 V2000
   11.0152    1.9514   23.0975 C   0  0  0  0  0  0  0  0  0  0  0  0
   13.2649    2.7616   23.4437 C   0  0  0  0  0  0  0  0  0  0  0  0
   10.5119    3.2126   23.4163 C   0  0  0  0  0  0  0  0  0  0  0  0
   12.7616    4.0228   23.7624 C   0  0  0  0  0  0  0  0  0  0  0  0
    7.1321   -4.5217   25.1163 C   0  0  0  0  0  0  0  0  0  0  0  0
    7.3140   -5.5635   26.0114 C   0  0  0  0  0  0  0  0  0  0  0  0
    9.4850   -5.8862   25.3324 C   0  0  0  0  0  0  0  0  0  0  0  0
    8.2022   -4.1692   24.3016 C   0  0  0  0  0  0  0  0  0  0  0  0
   12.3917    1.7258   23.1112 C   0  0  0  0  0  0  0  0  0  0  0  0
    9.4047   -4.8596   24.4053 C   0  0  0  0  0  0  0  0  0  0  0  0
   11.3851    4.2483   23.7487 C   0  0  0  0  0  0  0  0  0  0  0  0
   11.4535   -1.5037   22.6531 C   0  0  0  0  0  0  0  0  0  0  0  0
   13.1677   -1.2561   24.4999 C   0  0  0  0  0  0  0  0  0  0  0  0
   12.2094   -0.4339   21.8642 C   0  0  0  0  0  0  0  0  0  0  0  0
   13.8775   -0.1871   23.6623 C   0  0  0  0  0  0  0  0  0  0  0  0
   12.3981   -2.2496   23.6120 C   0  0  0  0  0  0  0  0  0  0  0  0
    8.0128   -3.0483   23.3311 C   0  0  0  0  0  0  0  0  0  0  0  0
   11.6246   -3.2529   24.4642 C   0  0  0  0  0  0  0  0  0  0  0  0
    8.4670   -6.2574   26.1409 N   0  0  0  0  0  0  0  0  0  0  0  0
   12.8941    0.4683   22.7934 N   0  0  0  0  0  0  0  0  0  0  0  0
   10.7268    6.5657   22.6080 N   0  0  0  0  0  0  0  0  0  0  0  0
    9.3873    5.6704   24.6204 O   0  0  0  0  0  0  0  0  0  0  0  0
   11.7328    6.5175   24.9792 O   0  0  0  0  0  0  0  0  0  0  0  0
   10.8132   -4.4787   23.4081 S   0  0  0  0  0  0  0  0  0  0  0  0
   10.7560    5.8271   24.1485 S   0  0  0  0  0  0  0  0  0  0  0  0
    9.8126    6.7256   22.1674 H   0  0  0  0  0  0  0  0  0  0  0  0
   11.4159    7.3023   22.4134 H   0  0  0  0  0  0  0  0  0  0  0  0
  1  3  2  0  0  0  0
  1  9  1  0  0  0  0
  2  4  1  0  0  0  0
  2  9  2  0  0  0  0
  3 11  1  0  0  0  0
  4 11  2  0  0  0  0
  5  6  2  0  0  0  0
  5  8  1  0  0  0  0
  6 19  1  0  0  0  0
  7 10  1  0  0  0  0
  7 19  2  0  0  0  0
  8 10  2  0  0  0  0
  8 17  1  0  0  0  0
  9 20  1  0  0  0  0
 10 24  1  0  0  0  0
 11 25  1  0  0  0  0
 12 14  1  0  0  0  0
 12 16  1  0  0  0  0
 13 15  1  0  0  0  0
 13 16  1  0  0  0  0
 14 20  1  0  0  0  0
 15 20  1  0  0  0  0
 16 18  1  0  0  0  0
 18 24  1  0  0  0  0
 21 25  1  0  0  0  0
 22 25  2  0  0  0  0
 23 25  2  0  0  0  0
 21 26  1  0  0  0  0
 21 27  1  0  0  0  0
M  END

> <original SMILES>

Cc1ccncc1SCC1CCN(c2ccc(S(N)(=O)=O)cc2)CC1

> <ref_mols>

x0072_0,x0104_0,x0107_0,x0161_0,x0165_0

> <ref_pdb>

receptors/Mpro-x0165-protein.pdb

> <Chemgauss4>

0.055301

> <binding_free_energy>

-3.275109487692312

> <binding_std_error>

0.24775637073200082

$$$$
LIZ-THE-57c545eb-1
  -OEChem-05122002103D

 17 17  0     0  0  0  0  0  0999 V2000
   10.3276   -2.4369   23.4281 C   0  0  0  0  0  0  0  0  0  0  0  0
   10.8665   -4.1044   25.0913 C   0  0  0  0  0  0  0  0  0  0  0  0
    9.2966   -3.2461   22.9508 C   0  0  0  0  0  0  0  0  0  0  0  0
    9.8354   -4.9136   24.6140 C   0  0  0  0  0  0  0  0  0  0  0  0
   11.1126   -2.8661   24.4983 C   0  0  0  0  0  0  0  0  0  0  0  0
    9.0505   -4.4844   23.5438 C   0  0  0  0  0  0  0  0  0  0  0  0
   12.5868    0.3230   24.7103 C   0  0  0  0  0  0  0  0  0  0  0  0
   14.0802   -2.5588   26.3658 C   0  0  0  0  0  0  0  0  0  0  0  0
   11.8708   -0.7231   25.4949 C   0  0  0  0  0  0  0  0  0  0  0  0
   13.5231   -2.5277   24.9833 C   0  0  0  0  0  0  0  0  0  0  0  0
    7.1455   -4.5304   21.6800 N   0  0  0  0  0  0  0  0  0  0  0  0
   12.1553   -2.0482   24.9813 N   0  0  0  0  0  0  0  0  0  0  0  0
    8.3490   -6.7015   22.3752 O   0  0  0  0  0  0  0  0  0  0  0  0
    6.7442   -5.6123   23.9833 O   0  0  0  0  0  0  0  0  0  0  0  0
    7.7606   -5.4983   22.9466 S   0  0  0  0  0  0  0  0  0  0  0  0
    7.3238   -4.8307   20.7138 H   0  0  0  0  0  0  0  0  0  0  0  0
    6.2290   -4.0862   21.8142 H   0  0  0  0  0  0  0  0  0  0  0  0
  1  3  2  0  0  0  0
  1  5  1  0  0  0  0
  2  4  1  0  0  0  0
  2  5  2  0  0  0  0
  3  6  1  0  0  0  0
  4  6  2  0  0  0  0
  5 12  1  0  0  0  0
  6 15  1  0  0  0  0
  7  9  1  0  0  0  0
  8 10  1  0  0  0  0
  9 12  1  0  0  0  0
 10 12  1  0  0  0  0
 11 15  1  0  0  0  0
 13 15  2  0  0  0  0
 14 15  2  0  0  0  0
 11 16  1  0  0  0  0
 11 17  1  0  0  0  0
M  END

> <original SMILES>

CCN(CC)c1ccc(S(N)(=O)=O)cc1

> <ref_mols>

x0161_0

> <ref_pdb>

receptors/Mpro-x0161-protein.pdb

> <Chemgauss4>

-6.989722

> <binding_free_energy>

-3.2341013540816306

> <binding_std_error>

0.04994654590892648

$$$$
WAR-XCH-b72a1bbc-7
  -OEChem-05122002103D

 23 25  0     0  0  0  0  0  0999 V2000
    6.1942   -3.3382   22.0946 C   0  0  0  0  0  0  0  0  0  0  0  0
   11.5062    1.5840   23.5413 C   0  0  0  0  0  0  0  0  0  0  0  0
   13.6131    0.6233   22.8521 C   0  0  0  0  0  0  0  0  0  0  0  0
   11.9415    2.8406   23.1205 C   0  0  0  0  0  0  0  0  0  0  0  0
   14.0484    1.8799   22.4313 C   0  0  0  0  0  0  0  0  0  0  0  0
    7.3169   -3.7082   22.8729 C   0  0  0  0  0  0  0  0  0  0  0  0
    6.4645   -2.0803   21.6080 C   0  0  0  0  0  0  0  0  0  0  0  0
   12.3420    0.4753   23.4072 C   0  0  0  0  0  0  0  0  0  0  0  0
   13.2125    2.9886   22.5655 C   0  0  0  0  0  0  0  0  0  0  0  0
    8.1934   -2.6502   22.8063 C   0  0  0  0  0  0  0  0  0  0  0  0
    9.5600   -1.1979   24.3739 C   0  0  0  0  0  0  0  0  0  0  0  0
   10.6469   -2.2274   22.3194 C   0  0  0  0  0  0  0  0  0  0  0  0
   10.9619   -0.9461   24.9329 C   0  0  0  0  0  0  0  0  0  0  0  0
   12.0190   -1.9432   22.9416 C   0  0  0  0  0  0  0  0  0  0  0  0
    9.5644   -2.3994   23.4055 C   0  0  0  0  0  0  0  0  0  0  0  0
   11.9083   -0.7783   23.8268 N   0  0  0  0  0  0  0  0  0  0  0  0
   12.3980    5.5223   22.4195 N   0  0  0  0  0  0  0  0  0  0  0  0
   14.8722    4.9677   22.8847 O   0  0  0  0  0  0  0  0  0  0  0  0
   13.9214    4.5339   20.5922 O   0  0  0  0  0  0  0  0  0  0  0  0
    7.6813   -1.6538   22.0372 O   0  0  0  0  0  0  0  0  0  0  0  0
   13.7585    4.5612   22.0391 S   0  0  0  0  0  0  0  0  0  0  0  0
   12.4745    6.1745   23.2096 H   0  0  0  0  0  0  0  0  0  0  0  0
   11.8253    5.8757   21.6434 H   0  0  0  0  0  0  0  0  0  0  0  0
  1  6  1  0  0  0  0
  1  7  2  0  0  0  0
  2  4  2  0  0  0  0
  2  8  1  0  0  0  0
  3  5  1  0  0  0  0
  3  8  2  0  0  0  0
  4  9  1  0  0  0  0
  5  9  2  0  0  0  0
  6 10  2  0  0  0  0
  7 20  1  0  0  0  0
  8 16  1  0  0  0  0
  9 21  1  0  0  0  0
 10 15  1  0  0  0  0
 10 20  1  0  0  0  0
 11 13  1  0  0  0  0
 11 15  1  0  0  0  0
 12 14  1  0  0  0  0
 12 15  1  0  0  0  0
 13 16  1  0  0  0  0
 14 16  1  0  0  0  0
 17 21  1  0  0  0  0
 18 21  2  0  0  0  0
 19 21  2  0  0  0  0
 17 22  1  0  0  0  0
 17 23  1  0  0  0  0
M  END

> <original SMILES>

NS(=O)(=O)c1ccc(N2CCC(c3ccco3)CC2)cc1

> <ref_mols>

x0072_0,x0104_0,x0107_0,x0161_0,x0165_0

> <ref_pdb>

receptors/Mpro-x0072-protein.pdb

> <Chemgauss4>

-8.560461

> <binding_free_energy>

-3.225703480824743

> <binding_std_error>

0.2668232262264621

$$$$
WAR-XCH-b72a1bbc-2
  -OEChem-05122002103D

 18 19  0     0  0  0  0  0  0999 V2000
    9.9831   -4.0761   24.1894 C   0  0  0  0  0  0  0  0  0  0  0  0
   10.0382   -2.0810   22.8279 C   0  0  0  0  0  0  0  0  0  0  0  0
   11.1552   -3.6723   24.8287 C   0  0  0  0  0  0  0  0  0  0  0  0
   11.2103   -1.6772   23.4672 C   0  0  0  0  0  0  0  0  0  0  0  0
    7.9229   -5.0516   22.3795 C   0  0  0  0  0  0  0  0  0  0  0  0
    7.3201   -2.7491   22.0339 C   0  0  0  0  0  0  0  0  0  0  0  0
    6.7450   -5.4000   21.7386 C   0  0  0  0  0  0  0  0  0  0  0  0
    6.1693   -3.2006   21.4082 C   0  0  0  0  0  0  0  0  0  0  0  0
    9.4246   -3.2805   23.1890 C   0  0  0  0  0  0  0  0  0  0  0  0
    8.2086   -3.6987   22.5260 C   0  0  0  0  0  0  0  0  0  0  0  0
   11.7688   -2.4728   24.4676 C   0  0  0  0  0  0  0  0  0  0  0  0
    5.8576   -4.5062   21.2474 N   0  0  0  0  0  0  0  0  0  0  0  0
   14.4183   -2.6846   24.2670 N   0  0  0  0  0  0  0  0  0  0  0  0
   13.3423   -0.5187   25.1596 O   0  0  0  0  0  0  0  0  0  0  0  0
   13.2873   -2.5989   26.5801 O   0  0  0  0  0  0  0  0  0  0  0  0
   13.2352   -1.9668   25.2692 S   0  0  0  0  0  0  0  0  0  0  0  0
   14.9787   -2.0684   23.6657 H   0  0  0  0  0  0  0  0  0  0  0  0
   14.9387   -3.4897   24.6362 H   0  0  0  0  0  0  0  0  0  0  0  0
  1  3  2  0  0  0  0
  1  9  1  0  0  0  0
  2  4  1  0  0  0  0
  2  9  2  0  0  0  0
  3 11  1  0  0  0  0
  4 11  2  0  0  0  0
  5  7  2  0  0  0  0
  5 10  1  0  0  0  0
  6  8  1  0  0  0  0
  6 10  2  0  0  0  0
  7 12  1  0  0  0  0
  8 12  2  0  0  0  0
  9 10  1  0  0  0  0
 11 16  1  0  0  0  0
 13 16  1  0  0  0  0
 14 16  2  0  0  0  0
 15 16  2  0  0  0  0
 13 17  1  0  0  0  0
 13 18  1  0  0  0  0
M  END

> <original SMILES>

NS(=O)(=O)c1ccc(-c2ccncc2)cc1

> <ref_mols>

x0072_0,x0104_0,x0107_0,x0161_0,x0165_0

> <ref_pdb>

receptors/Mpro-x0165-protein.pdb

> <Chemgauss4>

1.234029

> <binding_free_energy>

-3.1983621587179485

> <binding_std_error>

0.1586106727307764

$$$$
DAR-DIA-43a5904b-8
  -OEChem-05122002103D

 23 25  0     1  0  0  0  0  0999 V2000
   13.1390   -1.3087   21.2596 C   0  0  0  0  0  0  0  0  0  0  0  0
   11.9333   -0.7186   21.6384 C   0  0  0  0  0  0  0  0  0  0  0  0
   14.0553   -1.7094   22.2320 C   0  0  0  0  0  0  0  0  0  0  0  0
   12.5602   -0.9296   23.9622 C   0  0  0  0  0  0  0  0  0  0  0  0
    7.9291   -0.1980   18.8646 C   0  0  0  0  0  0  0  0  0  0  0  0
    6.3531    0.9470   17.8571 C   0  0  0  0  0  0  0  0  0  0  0  0
   11.6438   -0.5290   22.9897 C   0  0  0  0  0  0  0  0  0  0  0  0
   13.7659   -1.5198   23.5833 C   0  0  0  0  0  0  0  0  0  0  0  0
    7.0651   -0.0528   19.9298 C   0  0  0  0  0  0  0  0  0  0  0  0
    9.1318   -0.6802   22.9651 C   0  0  0  0  0  0  0  0  0  0  0  0
    8.4161   -0.0461   22.0278 C   0  0  0  0  0  0  0  0  0  0  0  0
   11.2151    2.2951   22.3670 C   0  0  0  0  0  0  0  0  0  0  0  0
    9.0114    1.2818   21.6767 C   0  0  0  0  0  0  0  0  0  0  0  0
   10.3339    0.1135   23.4006 C   0  0  2  0  0  0  0  0  0  0  0  0
   10.0193    1.5088   22.8100 C   0  0  1  0  0  0  0  0  0  0  0  0
    7.1921   -0.5447   21.3500 C   0  0  0  0  0  0  0  0  0  0  0  0
    7.5223    0.3743   17.6752 N   0  0  0  0  0  0  0  0  0  0  0  0
   11.7721    3.0645   23.3610 N   0  0  0  0  0  0  0  0  0  0  0  0
   11.6511    2.2298   21.2203 O   0  0  0  0  0  0  0  0  0  0  0  0
    5.6850    0.8364   19.4339 S   0  0  0  0  0  0  0  0  0  0  0  0
   14.8973   -2.0132   24.7825 Cl  0  0  0  0  0  0  0  0  0  0  0  0
   11.3518    3.0461   24.2844 H   0  0  0  0  0  0  0  0  0  0  0  0
   12.5867    3.6502   23.2083 H   0  0  0  0  0  0  0  0  0  0  0  0
  1  2  2  0  0  0  0
  1  3  1  0  0  0  0
  2  7  1  0  0  0  0
  3  8  2  0  0  0  0
  4  7  2  0  0  0  0
  4  8  1  0  0  0  0
  5  9  2  0  0  0  0
  5 17  1  0  0  0  0
  6 17  2  0  0  0  0
  6 20  1  0  0  0  0
  7 14  1  0  0  0  0
  8 21  1  0  0  0  0
  9 16  1  0  0  0  0
  9 20  1  0  0  0  0
 10 11  2  0  0  0  0
 10 14  1  0  0  0  0
 11 13  1  0  0  0  0
 11 16  1  0  0  0  0
 12 15  1  0  0  0  0
 12 18  1  0  0  0  0
 12 19  2  0  0  0  0
 13 15  1  0  0  0  0
 14 15  1  0  0  0  0
 18 22  1  0  0  0  0
 18 23  1  0  0  0  0
M  END

> <original SMILES>

NC(=O)[C@H]1CC(Cc2cncs2)=C[C@H]1c1cccc(Cl)c1

> <ref_mols>

x0874_0

> <ref_pdb>

receptors/Mpro-x0874-protein.pdb

> <Chemgauss4>

-9.045493

> <binding_free_energy>

-3.1899912500388474

> <binding_std_error>

2.3498464305653233

$$$$
ANT-DIA-045cfdc4-1
  -OEChem-05122002103D

 15 16  0     1  0  0  0  0  0999 V2000
   11.1405    0.9473   24.3786 C   0  0  0  0  0  0  0  0  0  0  0  0
   10.2065    1.9409   24.1838 C   0  0  0  0  0  0  0  0  0  0  0  0
   11.9862    2.0003   22.4871 C   0  0  0  0  0  0  0  0  0  0  0  0
   12.1716    0.9817   23.3959 C   0  0  0  0  0  0  0  0  0  0  0  0
   11.5632   -1.7463   22.7313 C   0  0  0  0  0  0  0  0  0  0  0  0
   14.3137   -0.9993   21.3581 C   0  0  0  0  0  0  0  0  0  0  0  0
   14.3677    0.2440   22.2329 C   0  0  0  0  0  0  0  0  0  0  0  0
   13.9821   -2.1123   22.3404 C   0  0  0  0  0  0  0  0  0  0  0  0
   13.3334    0.0109   23.3563 C   0  0  2  0  0  0  0  0  0  0  0  0
   12.9426   -1.4850   23.2684 C   0  0  1  0  0  0  0  0  0  0  0  0
    9.1961   -2.0913   23.4098 C   0  0  0  0  0  0  0  0  0  0  0  0
   10.5890   -1.8449   23.7063 N   0  0  0  0  0  0  0  0  0  0  0  0
   11.3953   -1.8493   21.5217 O   0  0  0  0  0  0  0  0  0  0  0  0
   10.5740    2.9097   22.8204 S   0  0  0  0  0  0  0  0  0  0  0  0
   10.8651   -1.7391   24.6779 H   0  0  0  0  0  0  0  0  0  0  0  0
  1  2  2  0  0  0  0
  1  4  1  0  0  0  0
  2 14  1  0  0  0  0
  3  4  2  0  0  0  0
  3 14  1  0  0  0  0
  4  9  1  0  0  0  0
  5 10  1  0  0  0  0
  5 12  1  0  0  0  0
  5 13  2  0  0  0  0
  6  7  1  0  0  0  0
  6  8  1  0  0  0  0
  7  9  1  0  0  0  0
  8 10  1  0  0  0  0
  9 10  1  0  0  0  0
 11 12  1  0  0  0  0
 12 15  1  0  0  0  0
M  END

> <original SMILES>

CNC(=O)[C@H]1CCC[C@H]1c1ccsc1

> <ref_mols>

x0874_0

> <ref_pdb>

receptors/protein-0387.pdb

> <Chemgauss4>

-4.89860916137695

> <binding_free_energy>

-3.1400820587595337

> <binding_std_error>

5.052159662768032

$$$$
GIA-UNK-5ec6c2b8-2
  -OEChem-05122002103D

 17 18  0     0  0  0  0  0  0999 V2000
   10.4028   -3.9990   24.9191 C   0  0  0  0  0  0  0  0  0  0  0  0
    6.2793   -4.4165   21.3401 C   0  0  0  0  0  0  0  0  0  0  0  0
   13.2492   -1.0246   26.2255 C   0  0  0  0  0  0  0  0  0  0  0  0
   11.9939   -0.5480   25.5009 C   0  0  0  0  0  0  0  0  0  0  0  0
   13.7882   -2.3182   25.6222 C   0  0  0  0  0  0  0  0  0  0  0  0
   10.9217   -1.6335   25.4585 C   0  0  0  0  0  0  0  0  0  0  0  0
   12.7202   -3.4078   25.5799 C   0  0  0  0  0  0  0  0  0  0  0  0
    8.2661   -3.0789   21.9303 C   0  0  0  0  0  0  0  0  0  0  0  0
    8.1926   -5.5882   22.4105 C   0  0  0  0  0  0  0  0  0  0  0  0
    9.5951   -3.1696   22.6721 C   0  0  0  0  0  0  0  0  0  0  0  0
    8.4747   -5.0851   23.8231 C   0  0  0  0  0  0  0  0  0  0  0  0
   11.4575   -2.9344   24.8565 C   0  0  0  0  0  0  0  0  0  0  0  0
    7.7731   -4.4538   21.4675 C   0  0  0  0  0  0  0  0  0  0  0  0
    9.5262   -4.0648   23.8343 N   0  0  0  0  0  0  0  0  0  0  0  0
   10.3506   -4.7475   25.8979 O   0  0  0  0  0  0  0  0  0  0  0  0
    5.6831   -4.5868   20.2847 O   0  0  0  0  0  0  0  0  0  0  0  0
    5.2468   -4.1075   22.7854 S   0  5  0  0  0  0  0  0  0  0  0  0
  1 12  1  0  0  0  0
  1 14  1  0  0  0  0
  1 15  2  0  0  0  0
  2 13  1  0  0  0  0
  2 16  2  0  0  0  0
  2 17  1  0  0  0  0
  3  4  1  0  0  0  0
  3  5  1  0  0  0  0
  4  6  1  0  0  0  0
  5  7  1  0  0  0  0
  6 12  1  0  0  0  0
  7 12  1  0  0  0  0
  8 10  1  0  0  0  0
  8 13  1  0  0  0  0
  9 11  1  0  0  0  0
  9 13  1  0  0  0  0
 10 14  1  0  0  0  0
 11 14  1  0  0  0  0
M  CHG  1  17  -1
M  END

> <original SMILES>

O=C(S)C1CCN(C(=O)C2CCCCC2)CC1

> <ref_mols>

x1380_0,x1386_0

> <ref_pdb>

receptors/protein-0387.pdb

> <Chemgauss4>

-5.12373733520508

> <binding_free_energy>

-3.1276341150678633

> <binding_std_error>

2.3680483665610517

$$$$
BET-COM-8a5969bb-1
  -OEChem-05122002103D

 11 12  0     0  0  0  0  0  0999 V2000
   11.2373   -0.4751   25.5956 C   0  0  0  0  0  0  0  0  0  0  0  0
   13.1260   -1.9854   26.0555 C   0  0  0  0  0  0  0  0  0  0  0  0
   11.7806   -0.1660   24.1958 C   0  0  0  0  0  0  0  0  0  0  0  0
   13.7219   -1.7173   24.6687 C   0  0  0  0  0  0  0  0  0  0  0  0
   11.5891   -1.9302   25.9605 C   0  0  0  0  0  0  0  0  0  0  0  0
   12.5954   -1.3668   23.6778 C   0  0  0  0  0  0  0  0  0  0  0  0
   11.1057   -2.8804   24.8256 C   0  0  0  0  0  0  0  0  0  0  0  0
   13.1562   -1.0891   22.2871 C   0  0  0  0  0  0  0  0  0  0  0  0
   11.4883   -4.3439   25.0931 C   0  0  0  0  0  0  0  0  0  0  0  0
    9.5834   -2.8197   24.6285 C   0  0  0  0  0  0  0  0  0  0  0  0
   11.7135   -2.5031   23.5716 O   0  0  0  0  0  0  0  0  0  0  0  0
  1  3  1  0  0  0  0
  1  5  1  0  0  0  0
  2  4  1  0  0  0  0
  2  5  1  0  0  0  0
  3  6  1  0  0  0  0
  4  6  1  0  0  0  0
  5  7  1  0  0  0  0
  6  8  1  0  0  0  0
  6 11  1  0  0  0  0
  7  9  1  0  0  0  0
  7 10  1  0  0  0  0
  7 11  1  0  0  0  0
M  END

> <original SMILES>

CC12CCC(CC1)C(C)(C)O2

> <ref_mols>

x0072_0

> <ref_pdb>

receptors/Mpro-x0072_0.pdb

> <Chemgauss4>

-4.761117

> <binding_free_energy>

-3.1136364142857147

> <binding_std_error>

0.0

$$$$
JOH-UNI-9dc98897-7
  -OEChem-05122002103D

 19 20  0     1  0  0  0  0  0999 V2000
    6.4436   -3.6662   20.9889 C   0  0  0  0  0  0  0  0  0  0  0  0
    8.1256   -3.9653   22.7448 C   0  0  0  0  0  0  0  0  0  0  0  0
    9.1413   -1.5467   21.9934 C   0  0  0  0  0  0  0  0  0  0  0  0
    7.5812   -3.2106   21.7182 C   0  0  0  0  0  0  0  0  0  0  0  0
    9.2350   -3.4550   23.4099 C   0  0  0  0  0  0  0  0  0  0  0  0
    9.7586   -2.2233   23.0331 C   0  0  0  0  0  0  0  0  0  0  0  0
   11.8541    0.1443   25.1223 C   0  0  0  0  0  0  0  0  0  0  0  0
   10.6835   -0.8021   24.8389 C   0  0  0  0  0  0  0  0  0  0  0  0
   12.2288   -2.0283   23.2555 C   0  0  0  0  0  0  0  0  0  0  0  0
   12.3468    0.8993   23.8915 C   0  0  0  0  0  0  0  0  0  0  0  0
   12.8274   -0.9162   22.4018 C   0  0  0  0  0  0  0  0  0  0  0  0
    9.8425   -4.2461   24.5215 C   0  0  0  0  0  0  0  0  0  0  0  0
    5.5179   -4.0370   20.3953 N   0  0  0  0  0  0  0  0  0  0  0  0
    8.0622   -2.0103   21.3239 N   0  0  0  0  0  0  0  0  0  0  0  0
   10.8720   -1.6700   23.6730 N   0  0  3  0  0  0  0  0  0  0  0  0
   13.3375    0.1563   23.1866 O   0  0  0  0  0  0  0  0  0  0  0  0
    9.2050   -5.4293   24.7606 F   0  0  0  0  0  0  0  0  0  0  0  0
   11.1475   -4.5808   24.3017 F   0  0  0  0  0  0  0  0  0  0  0  0
    9.8297   -3.5748   25.7089 F   0  0  0  0  0  0  0  0  0  0  0  0
  1  4  1  0  0  0  0
  1 13  3  0  0  0  0
  2  4  1  0  0  0  0
  2  5  2  0  0  0  0
  3  6  2  0  0  0  0
  3 14  1  0  0  0  0
  4 14  2  0  0  0  0
  5  6  1  0  0  0  0
  5 12  1  0  0  0  0
  6 15  1  0  0  0  0
  7  8  1  0  0  0  0
  7 10  1  0  0  0  0
  8 15  1  0  0  0  0
  9 11  1  0  0  0  0
  9 15  1  0  0  0  0
 10 16  1  0  0  0  0
 11 16  1  0  0  0  0
 12 17  1  0  0  0  0
 12 18  1  0  0  0  0
 12 19  1  0  0  0  0
M  END

> <original SMILES>

N#Cc1cc(C(F)(F)F)c(N2CCCOCC2)cn1

> <ref_mols>

x1077_0

> <ref_pdb>

receptors/Mpro-x1077-protein.pdb

> <Chemgauss4>

-5.938368

> <binding_free_energy>

-3.111078259999985

> <binding_std_error>

6.315518795199497

$$$$
ALV-UNI-7ff1a6f9-3
  -OEChem-05122002103D

 23 26  0     0  0  0  0  0  0999 V2000
    7.4842   -5.0956   24.5674 C   0  0  0  0  0  0  0  0  0  0  0  0
    8.3413   -5.2095   22.3114 C   0  0  0  0  0  0  0  0  0  0  0  0
   12.9565   -1.0228   24.7295 C   0  0  0  0  0  0  0  0  0  0  0  0
   11.8256   -1.1609   23.9179 C   0  0  0  0  0  0  0  0  0  0  0  0
    6.3773   -5.8533   24.1852 C   0  0  0  0  0  0  0  0  0  0  0  0
    7.2344   -5.9673   21.9292 C   0  0  0  0  0  0  0  0  0  0  0  0
    9.8433   -1.8091   21.2638 C   0  0  0  0  0  0  0  0  0  0  0  0
    7.8945   -1.7528   22.6722 C   0  0  0  0  0  0  0  0  0  0  0  0
   12.5327   -3.1632   25.8098 C   0  0  0  0  0  0  0  0  0  0  0  0
    9.0987   -1.1496   20.2991 C   0  0  0  0  0  0  0  0  0  0  0  0
    7.2373   -1.0958   21.6446 C   0  0  0  0  0  0  0  0  0  0  0  0
    8.4662   -4.7736   23.6305 C   0  0  0  0  0  0  0  0  0  0  0  0
   13.3057   -2.0050   25.6592 C   0  0  0  0  0  0  0  0  0  0  0  0
   11.3930   -3.3183   25.0028 C   0  0  0  0  0  0  0  0  0  0  0  0
   11.0707   -2.3223   24.0852 C   0  0  0  0  0  0  0  0  0  0  0  0
    9.2223   -2.1127   22.4702 C   0  0  0  0  0  0  0  0  0  0  0  0
    6.2524   -6.2892   22.8661 C   0  0  0  0  0  0  0  0  0  0  0  0
    9.6155   -3.9877   24.0272 C   0  0  0  0  0  0  0  0  0  0  0  0
   14.5211   -1.8192   26.5063 C   0  0  0  0  0  0  0  0  0  0  0  0
    7.8071   -0.7839   20.4590 N   0  0  0  0  0  0  0  0  0  0  0  0
   10.4779   -4.3447   24.9523 N   0  0  0  0  0  0  0  0  0  0  0  0
    9.9297   -2.7769   23.4754 N   0  0  0  0  0  0  0  0  0  0  0  0
    5.1899   -7.0178   22.4991 F   0  0  0  0  0  0  0  0  0  0  0  0
  1  5  2  0  0  0  0
  1 12  1  0  0  0  0
  2  6  1  0  0  0  0
  2 12  2  0  0  0  0
  3  4  2  0  0  0  0
  3 13  1  0  0  0  0
  4 15  1  0  0  0  0
  5 17  1  0  0  0  0
  6 17  2  0  0  0  0
  7 10  2  0  0  0  0
  7 16  1  0  0  0  0
  8 11  1  0  0  0  0
  8 16  2  0  0  0  0
  9 13  2  0  0  0  0
  9 14  1  0  0  0  0
 10 20  1  0  0  0  0
 11 20  2  0  0  0  0
 12 18  1  0  0  0  0
 13 19  1  0  0  0  0
 14 15  2  0  0  0  0
 14 21  1  0  0  0  0
 15 22  1  0  0  0  0
 16 22  1  0  0  0  0
 17 23  1  0  0  0  0
 18 21  2  0  0  0  0
 18 22  1  0  0  0  0
M  END

> <original SMILES>

Cc1ccc2c(c1)nc(-c1ccc(F)cc1)n2-c1ccncc1

> <ref_mols>

x0395_0,x0426_0,x0434_0,x0540_0,x0678_0,x0830_0,x1093_0

> <ref_pdb>

receptors/Mpro-x1093-protein.pdb

> <Chemgauss4>

-7.999856

> <binding_free_energy>

-3.097827548234825

> <binding_std_error>

5.263837767139997

$$$$
ANN-UNI-26382800-6
  -OEChem-05122002103D

 22 23  0     0  0  0  0  0  0999 V2000
    6.4620   -3.2586   20.7862 C   0  0  0  0  0  0  0  0  0  0  0  0
    6.6951   -6.5876   22.4351 C   0  0  0  0  0  0  0  0  0  0  0  0
   14.4077   -2.7710   26.9187 C   0  0  0  0  0  0  0  0  0  0  0  0
    6.2481   -5.5467   21.6214 C   0  0  0  0  0  0  0  0  0  0  0  0
    7.8139   -6.4063   23.2482 C   0  0  0  0  0  0  0  0  0  0  0  0
   13.4020   -3.6407   26.4972 C   0  0  0  0  0  0  0  0  0  0  0  0
   14.4724   -1.4768   26.4024 C   0  0  0  0  0  0  0  0  0  0  0  0
    8.0391   -4.1430   22.4335 C   0  0  0  0  0  0  0  0  0  0  0  0
   12.5256   -1.9221   25.0427 C   0  0  0  0  0  0  0  0  0  0  0  0
    6.9201   -4.3244   21.6205 C   0  0  0  0  0  0  0  0  0  0  0  0
    8.4859   -5.1840   23.2473 C   0  0  0  0  0  0  0  0  0  0  0  0
   12.4609   -3.2163   25.5591 C   0  0  0  0  0  0  0  0  0  0  0  0
   13.5313   -1.0524   25.4643 C   0  0  0  0  0  0  0  0  0  0  0  0
   10.4165   -3.8511   24.2040 C   0  0  0  0  0  0  0  0  0  0  0  0
   12.6008    0.5785   24.0049 C   0  0  0  0  0  0  0  0  0  0  0  0
    6.0899   -2.3930   20.1086 N   0  0  0  0  0  0  0  0  0  0  0  0
    9.6042   -5.0026   24.0615 N   0  0  0  0  0  0  0  0  0  0  0  0
   11.4407   -4.0987   25.1320 N   0  0  0  0  0  0  0  0  0  0  0  0
   10.2444   -2.7961   23.6019 O   0  0  0  0  0  0  0  0  0  0  0  0
   13.5944    0.2104   24.9602 O   0  0  0  0  0  0  0  0  0  0  0  0
    9.8739   -5.8104   24.6328 H   0  0  0  0  0  0  0  0  0  0  0  0
   11.4575   -5.0246   25.5521 H   0  0  0  0  0  0  0  0  0  0  0  0
  1 10  1  0  0  0  0
  1 16  3  0  0  0  0
  2  4  1  0  0  0  0
  2  5  2  0  0  0  0
  3  6  1  0  0  0  0
  3  7  2  0  0  0  0
  4 10  2  0  0  0  0
  5 11  1  0  0  0  0
  6 12  2  0  0  0  0
  7 13  1  0  0  0  0
  8 10  1  0  0  0  0
  8 11  2  0  0  0  0
  9 12  1  0  0  0  0
  9 13  2  0  0  0  0
 11 17  1  0  0  0  0
 12 18  1  0  0  0  0
 13 20  1  0  0  0  0
 14 17  1  0  0  0  0
 14 18  1  0  0  0  0
 14 19  2  0  0  0  0
 15 20  1  0  0  0  0
 17 21  1  0  0  0  0
 18 22  1  0  0  0  0
M  END

> <original SMILES>

COc1cccc(NC(=O)Nc2cccc(C#N)c2)c1

> <ref_mols>

x0104_0,x0305_0,x0434_0,x0678_0,x1093_0,x1249_0

> <ref_pdb>

receptors/Mpro-x0434-protein.pdb

> <Chemgauss4>

-6.088238

> <binding_free_energy>

-3.0583359105506815

> <binding_std_error>

0.21658845992841877

$$$$
KIM-UNI-60f168f5-2
  -OEChem-05122002103D

 16 17  0     0  0  0  0  0  0999 V2000
    5.2183    1.0159   19.3875 C   0  0  0  0  0  0  0  0  0  0  0  0
    5.7789    0.8788   18.1279 C   0  0  0  0  0  0  0  0  0  0  0  0
    7.6587   -0.1332   18.9766 C   0  0  0  0  0  0  0  0  0  0  0  0
    5.9419    0.5435   20.4768 C   0  0  0  0  0  0  0  0  0  0  0  0
    7.1863   -0.0434   20.2760 C   0  0  0  0  0  0  0  0  0  0  0  0
    9.2652    0.0054   21.5919 C   0  0  0  0  0  0  0  0  0  0  0  0
    7.4248   -1.5934   22.1773 C   0  0  0  0  0  0  0  0  0  0  0  0
   10.1035   -0.7542   22.5930 C   0  0  0  0  0  0  0  0  0  0  0  0
    9.2505   -1.0917   23.7884 C   0  0  0  0  0  0  0  0  0  0  0  0
    5.3616    0.6789   21.8464 C   0  0  0  0  0  0  0  0  0  0  0  0
    6.9848    0.3144   17.8935 N   0  0  0  0  0  0  0  0  0  0  0  0
    8.1132   -1.8606   23.3529 N   0  0  0  0  0  0  0  0  0  0  0  0
    7.9784   -0.5510   21.3766 N   0  0  0  0  0  0  0  0  0  0  0  0
    9.7231    1.0161   21.0579 O   0  0  0  0  0  0  0  0  0  0  0  0
    6.4434   -2.2765   21.8713 O   0  0  0  0  0  0  0  0  0  0  0  0
    7.8006   -2.6337   23.9323 H   0  0  0  0  0  0  0  0  0  0  0  0
  1  2  2  0  0  0  0
  1  4  1  0  0  0  0
  2 11  1  0  0  0  0
  3  5  1  0  0  0  0
  3 11  2  0  0  0  0
  4  5  2  0  0  0  0
  4 10  1  0  0  0  0
  5 13  1  0  0  0  0
  6  8  1  0  0  0  0
  6 13  1  0  0  0  0
  6 14  2  0  0  0  0
  7 12  1  0  0  0  0
  7 13  1  0  0  0  0
  7 15  2  0  0  0  0
  8  9  1  0  0  0  0
  9 12  1  0  0  0  0
 12 16  1  0  0  0  0
M  END

> <original SMILES>

Cc1ccncc1N1C(=O)CCNC1=O

> <ref_mols>

x0107_0,x0991_0

> <ref_pdb>

receptors/protein-0387.pdb

> <Chemgauss4>

-5.225182056427

> <binding_free_energy>

-3.0229277399999894

> <binding_std_error>

3.964877152560051

$$$$
DOU-UNK-b5326f8f-13
  -OEChem-05122002103D

 21 25  0     1  0  0  0  0  0999 V2000
   13.8998    1.7560   22.3121 C   0  0  0  0  0  0  0  0  0  0  0  0
   13.4578    6.3127   22.6919 C   0  0  0  0  0  0  0  0  0  0  0  0
   13.2239    0.5209   22.5555 C   0  0  0  0  0  0  0  0  0  0  0  0
   13.1419    2.8459   22.6795 C   0  0  0  0  0  0  0  0  0  0  0  0
   11.9629    0.7308   23.0826 C   0  0  0  0  0  0  0  0  0  0  0  0
   13.5033    4.2145   22.5834 C   0  0  0  0  0  0  0  0  0  0  0  0
    9.4717   -1.5313   22.3391 C   0  0  0  0  0  0  0  0  0  0  0  0
    8.5121   -2.4792   24.8307 C   0  0  0  0  0  0  0  0  0  0  0  0
    8.2932   -3.7677   24.0881 C   0  0  0  0  0  0  0  0  0  0  0  0
   12.6070   -1.8642   22.1445 C   0  0  0  0  0  0  0  0  0  0  0  0
   13.7536   -0.8513   22.2902 C   0  0  2  0  0  0  0  0  0  0  0  0
   10.9776   -0.3383   23.4402 C   0  0  2  0  0  0  0  0  0  0  0  0
   10.3188   -2.5921   22.9706 C   0  0  2  0  0  0  0  0  0  0  0  0
    9.6695   -3.1808   24.1854 C   0  0  0  0  0  0  0  0  0  0  0  0
   11.5618   -1.7606   23.2850 C   0  0  1  0  0  0  0  0  0  0  0  0
   14.6274    6.0043   22.1823 N   0  0  0  0  0  0  0  0  0  0  0  0
   14.6573    4.6240   22.1108 N   0  0  0  0  0  0  0  0  0  0  0  0
    9.8011   -0.2956   22.5394 N   0  0  0  0  0  0  0  0  0  0  0  0
   12.6841    5.2289   22.9742 O   0  0  0  0  0  0  0  0  0  0  0  0
   11.6194    2.3865   23.3100 S   0  0  0  0  0  0  0  0  0  0  0  0
   14.8300   -1.3048   23.6443 Cl  0  0  0  0  0  0  0  0  0  0  0  0
  1  3  1  0  0  0  0
  1  4  2  0  0  0  0
  2 16  2  0  0  0  0
  2 19  1  0  0  0  0
  3  5  2  0  0  0  0
  3 11  1  0  0  0  0
  4  6  1  0  0  0  0
  4 20  1  0  0  0  0
  5 12  1  0  0  0  0
  5 20  1  0  0  0  0
  6 17  2  0  0  0  0
  6 19  1  0  0  0  0
  7 13  1  0  0  0  0
  7 18  2  0  0  0  0
  8  9  1  0  0  0  0
  8 14  1  0  0  0  0
  9 14  1  0  0  0  0
 10 11  1  0  0  0  0
 10 15  1  0  0  0  0
 11 21  1  0  0  0  0
 12 15  1  0  0  0  0
 12 18  1  0  0  0  0
 13 14  1  0  0  0  0
 13 15  1  0  0  0  0
 16 17  1  0  0  0  0
M  END

> <original SMILES>

ClC1CC2C(C3CC3)=CNC2c2sc(-c3nnco3)cc21

> <ref_mols>

x0104_0,x0107_0,x0387_0,x0397_0,x0708_0,x0770_0,x1093_0,x1392_0

> <ref_pdb>

receptors/Mpro-x0107-protein.pdb

> <Chemgauss4>

-5.302523

> <binding_free_energy>

-2.9046839

> <binding_std_error>

0.6071947884706491

$$$$
MAK-UNK-6435e6c2-8
  -OEChem-05122002103D

 12 12  0     0  0  0  0  0  0999 V2000
    4.8165    0.8781   19.2824 C   0  0  0  0  0  0  0  0  0  0  0  0
    5.6256    0.7351   18.1668 C   0  0  0  0  0  0  0  0  0  0  0  0
    7.1744   -0.4939   19.3369 C   0  0  0  0  0  0  0  0  0  0  0  0
    5.2376    0.2926   20.4712 C   0  0  0  0  0  0  0  0  0  0  0  0
    6.4380   -0.4082   20.5074 C   0  0  0  0  0  0  0  0  0  0  0  0
    8.0826   -1.7460   21.8602 C   0  0  0  0  0  0  0  0  0  0  0  0
    4.3851    0.4316   21.6896 C   0  0  0  0  0  0  0  0  0  0  0  0
    8.2204   -2.2356   23.2800 C   0  0  0  0  0  0  0  0  0  0  0  0
    6.7979    0.0617   18.1634 N   0  0  0  0  0  0  0  0  0  0  0  0
    6.9023   -1.0130   21.6752 N   0  0  0  0  0  0  0  0  0  0  0  0
    8.9438   -1.9960   21.0232 O   0  0  0  0  0  0  0  0  0  0  0  0
    6.3102   -0.9119   22.5080 H   0  0  0  0  0  0  0  0  0  0  0  0
  1  2  2  0  0  0  0
  1  4  1  0  0  0  0
  2  9  1  0  0  0  0
  3  5  1  0  0  0  0
  3  9  2  0  0  0  0
  4  5  2  0  0  0  0
  4  7  1  0  0  0  0
  5 10  1  0  0  0  0
  6  8  1  0  0  0  0
  6 10  1  0  0  0  0
  6 11  2  0  0  0  0
 10 12  1  0  0  0  0
M  END

> <original SMILES>

CC(=O)Nc1cnccc1C

> <ref_mols>

x0689_0

> <ref_pdb>

receptors/Mpro-x0689-protein.pdb

> <Chemgauss4>

-2.902107

> <binding_free_energy>

-2.901085007843406

> <binding_std_error>

6.886006882047528

$$$$
ANT-OPE-997bdc93-1
  -OEChem-05122002103D

 19 21  0     1  0  0  0  0  0999 V2000
   11.4210   -2.1049   23.7522 C   0  0  0  0  0  0  0  0  0  0  0  0
   12.6065   -1.9012   23.0444 C   0  0  0  0  0  0  0  0  0  0  0  0
   10.6477   -1.0003   24.0990 C   0  0  0  0  0  0  0  0  0  0  0  0
   12.9930   -0.5980   22.7357 C   0  0  0  0  0  0  0  0  0  0  0  0
   11.0353    0.3094   23.7730 C   0  0  0  0  0  0  0  0  0  0  0  0
   12.2226    0.5178   23.1061 C   0  0  0  0  0  0  0  0  0  0  0  0
   11.9776    5.7121   24.6298 C   0  0  0  0  0  0  0  0  0  0  0  0
    9.3615   -1.0002   24.8658 C   0  0  0  0  0  0  0  0  0  0  0  0
   14.2030   -0.1811   21.9585 C   0  0  0  0  0  0  0  0  0  0  0  0
   10.0296    1.2950   24.2733 C   0  0  0  0  0  0  0  0  0  0  0  0
    8.8136    0.3912   24.5238 C   0  0  0  0  0  0  0  0  0  0  0  0
   14.3062    1.2974   22.3498 C   0  0  0  0  0  0  0  0  0  0  0  0
   12.8645    1.7848   22.6159 C   0  0  2  0  0  0  0  0  0  0  0  0
   12.2031    6.9004   25.5046 C   0  0  0  0  0  0  0  0  0  0  0  0
   12.8489    2.9602   23.5820 C   0  0  0  0  0  0  0  0  0  0  0  0
   13.0389    4.2989   22.8807 C   0  0  0  0  0  0  0  0  0  0  0  0
   13.0446    5.4030   23.8001 N   0  0  0  0  0  0  0  0  0  0  0  0
   10.9137    5.1074   24.6944 O   0  0  0  0  0  0  0  0  0  0  0  0
   13.8771    5.9900   23.8447 H   0  0  0  0  0  0  0  0  0  0  0  0
  1  2  2  0  0  0  0
  1  3  1  0  0  0  0
  2  4  1  0  0  0  0
  3  5  2  0  0  0  0
  3  8  1  0  0  0  0
  4  6  2  0  0  0  0
  4  9  1  0  0  0  0
  5  6  1  0  0  0  0
  5 10  1  0  0  0  0
  6 13  1  0  0  0  0
  7 14  1  0  0  0  0
  7 17  1  0  0  0  0
  7 18  2  0  0  0  0
  8 11  1  0  0  0  0
  9 12  1  0  0  0  0
 10 11  1  0  0  0  0
 12 13  1  0  0  0  0
 13 15  1  0  0  0  0
 15 16  1  0  0  0  0
 16 17  1  0  0  0  0
 17 19  1  0  0  0  0
M  END

> <original SMILES>

CC(=O)NCCC1CCc2ccc3c(c21)CCC3

> <ref_mols>

x0104_0

> <ref_pdb>

receptors/Mpro-x0104_0.pdb

> <Chemgauss4>

-8.87511

> <binding_free_energy>

-2.8709653369696966

> <binding_std_error>

0.9954758040260236

$$$$
JOH-MSK-a63bdd1d-9
  -OEChem-05122002103D

 18 19  0     0  0  0  0  0  0999 V2000
   12.5860    0.8519   24.3596 C   0  0  0  0  0  0  0  0  0  0  0  0
   13.3768    0.5745   23.2408 C   0  0  0  0  0  0  0  0  0  0  0  0
   11.8632   -1.1890   22.5362 C   0  0  0  0  0  0  0  0  0  0  0  0
    9.5121   -0.8110   25.3093 C   0  0  0  0  0  0  0  0  0  0  0  0
   11.0503   -0.9275   23.6571 C   0  0  0  0  0  0  0  0  0  0  0  0
    9.8386   -1.4837   24.1544 C   0  0  0  0  0  0  0  0  0  0  0  0
   11.4297    0.0849   24.5411 C   0  0  0  0  0  0  0  0  0  0  0  0
   13.0228   -0.4297   22.3419 C   0  0  0  0  0  0  0  0  0  0  0  0
    8.4446   -1.3350   20.9934 C   0  0  0  0  0  0  0  0  0  0  0  0
    6.2190   -0.6303   21.8599 C   0  0  0  0  0  0  0  0  0  0  0  0
    9.0621   -2.5838   23.5481 C   0  0  0  0  0  0  0  0  0  0  0  0
    7.6193   -2.2183   23.1707 C   0  0  0  0  0  0  0  0  0  0  0  0
   10.4775    0.1333   25.5342 N   0  0  0  0  0  0  0  0  0  0  0  0
    7.6141   -1.0741   22.2260 N   0  3  0  0  0  0  0  0  0  0  0  0
   13.8136   -0.6765   21.2595 O   0  0  0  0  0  0  0  0  0  0  0  0
   10.4907    0.7733   26.3163 H   0  0  0  0  0  0  0  0  0  0  0  0
    8.0547   -0.2685   22.7025 H   0  0  0  0  0  0  0  0  0  0  0  0
   13.4402   -1.3983   20.7302 H   0  0  0  0  0  0  0  0  0  0  0  0
  1  2  2  0  0  0  0
  1  7  1  0  0  0  0
  2  8  1  0  0  0  0
  3  5  1  0  0  0  0
  3  8  2  0  0  0  0
  4  6  2  0  0  0  0
  4 13  1  0  0  0  0
  5  6  1  0  0  0  0
  5  7  2  0  0  0  0
  6 11  1  0  0  0  0
  7 13  1  0  0  0  0
  8 15  1  0  0  0  0
  9 14  1  0  0  0  0
 10 14  1  0  0  0  0
 11 12  1  0  0  0  0
 12 14  1  0  0  0  0
 13 16  1  0  0  0  0
 14 17  1  0  0  0  0
 15 18  1  0  0  0  0
M  CHG  1  14   1
M  END

> <original SMILES>

CN(C)CCc1c[nH]c2ccc(O)cc12

> <ref_mols>

x0104_0

> <ref_pdb>

receptors/protein-0387.pdb

> <Chemgauss4>

-5.7353892326355

> <binding_free_energy>

-2.7960356746106845

> <binding_std_error>

3.2013785932814938

$$$$
GIA-UNK-595fac82-2
  -OEChem-05122002103D

 20 21  0     0  0  0  0  0  0999 V2000
    8.1123   -3.4505   23.5811 C   0  0  0  0  0  0  0  0  0  0  0  0
    8.1115   -2.4647   22.5943 C   0  0  0  0  0  0  0  0  0  0  0  0
    9.2768   -3.7148   24.3020 C   0  0  0  0  0  0  0  0  0  0  0  0
    9.2753   -1.7432   22.3284 C   0  0  0  0  0  0  0  0  0  0  0  0
   10.4406   -2.9933   24.0361 C   0  0  0  0  0  0  0  0  0  0  0  0
   10.4398   -2.0074   23.0493 C   0  0  0  0  0  0  0  0  0  0  0  0
   11.6647   -1.2480   22.7693 C   0  0  0  0  0  0  0  0  0  0  0  0
   12.4215    4.9693   23.2942 C   0  0  0  0  0  0  0  0  0  0  0  0
   12.7248    2.1659   22.8939 C   0  0  0  0  0  0  0  0  0  0  0  0
   10.6155    1.8963   24.2468 C   0  0  0  0  0  0  0  0  0  0  0  0
   13.0903    0.7212   23.2203 C   0  0  0  0  0  0  0  0  0  0  0  0
   11.0261    0.4595   24.5516 C   0  0  0  0  0  0  0  0  0  0  0  0
   11.8402    2.7756   23.9827 C   0  0  0  0  0  0  0  0  0  0  0  0
   13.2502    6.3364   21.3849 C   0  0  0  0  0  0  0  0  0  0  0  0
   11.8855   -0.0677   23.4826 N   0  0  0  0  0  0  0  0  0  0  0  0
   12.3401    5.3866   21.9823 N   0  0  0  0  0  0  0  0  0  0  0  0
   12.4076   -1.7145   21.9070 O   0  0  0  0  0  0  0  0  0  0  0  0
   13.2570    5.3385   24.1128 O   0  0  0  0  0  0  0  0  0  0  0  0
   11.4233    4.0694   23.5636 O   0  0  0  0  0  0  0  0  0  0  0  0
   11.5985    5.0046   21.4035 H   0  0  0  0  0  0  0  0  0  0  0  0
  1  2  1  0  0  0  0
  1  3  2  0  0  0  0
  2  4  2  0  0  0  0
  3  5  1  0  0  0  0
  4  6  1  0  0  0  0
  5  6  2  0  0  0  0
  6  7  1  0  0  0  0
  7 15  1  0  0  0  0
  7 17  2  0  0  0  0
  8 16  1  0  0  0  0
  8 18  2  0  0  0  0
  8 19  1  0  0  0  0
  9 11  1  0  0  0  0
  9 13  1  0  0  0  0
 10 12  1  0  0  0  0
 10 13  1  0  0  0  0
 11 15  1  0  0  0  0
 12 15  1  0  0  0  0
 13 19  1  0  0  0  0
 14 16  1  0  0  0  0
 16 20  1  0  0  0  0
M  END

> <original SMILES>

CNC(=O)OC1CCN(C(=O)c2ccccc2)CC1

> <ref_mols>

x1380_0,x1386_0

> <ref_pdb>

receptors/protein-0387.pdb

> <Chemgauss4>

-5.26461315155029

> <binding_free_energy>

-2.7790409385237016

> <binding_std_error>

0.454922168197554

$$$$
GIA-UNK-995df016-1
  -OEChem-05122002103D

 16 16  0     0  0  0  0  0  0999 V2000
   11.5454   -1.1620   24.8298 C   0  0  0  0  0  0  0  0  0  0  0  0
    7.5965   -4.2165   22.5797 C   0  0  0  0  0  0  0  0  0  0  0  0
   10.5374   -3.4133   24.8273 C   0  0  0  0  0  0  0  0  0  0  0  0
   10.5482   -1.9859   22.7071 C   0  0  0  0  0  0  0  0  0  0  0  0
    9.7097   -4.3552   23.9597 C   0  0  0  0  0  0  0  0  0  0  0  0
    9.0464   -2.2319   22.8192 C   0  0  0  0  0  0  0  0  0  0  0  0
   11.2938   -2.3779   23.9888 C   0  0  0  0  0  0  0  0  0  0  0  0
    6.5797   -5.7753   24.2227 C   0  0  0  0  0  0  0  0  0  0  0  0
    6.6344   -6.3709   21.7813 C   0  0  0  0  0  0  0  0  0  0  0  0
   13.5500   -1.7654   26.6016 C   0  0  0  0  0  0  0  0  0  0  0  0
    7.3606   -5.6676   22.9204 C   0  0  0  0  0  0  0  0  0  0  0  0
    8.7485   -3.6358   23.1139 N   0  0  0  0  0  0  0  0  0  0  0  0
   10.6455   -0.4714   25.2924 O   0  0  0  0  0  0  0  0  0  0  0  0
    6.7854   -3.6183   21.8689 O   0  0  0  0  0  0  0  0  0  0  0  0
   13.2587   -3.0756   26.3835 F   0  0  0  0  0  0  0  0  0  0  0  0
   13.2558   -0.8227   25.0915 S   0  0  0  0  0  0  0  0  0  0  0  0
  1  7  1  0  0  0  0
  1 13  2  0  0  0  0
  1 16  1  0  0  0  0
  2 11  1  0  0  0  0
  2 12  1  0  0  0  0
  2 14  2  0  0  0  0
  3  5  1  0  0  0  0
  3  7  1  0  0  0  0
  4  6  1  0  0  0  0
  4  7  1  0  0  0  0
  5 12  1  0  0  0  0
  6 12  1  0  0  0  0
  8 11  1  0  0  0  0
  9 11  1  0  0  0  0
 10 15  1  0  0  0  0
 10 16  1  0  0  0  0
M  END

> <original SMILES>

CC(C)C(=O)N1CCC(C(=O)SCF)CC1

> <ref_mols>

x1334_0

> <ref_pdb>

receptors/protein-0387.pdb

> <Chemgauss4>

-5.12599277496338

> <binding_free_energy>

-2.7704038245298364

> <binding_std_error>

2.2201672683948996

$$$$
DAR-DIA-23aa0b97-2
  -OEChem-05122002103D

 23 25  0     0  0  0  0  0  0999 V2000
    6.3449   -4.3210   20.5987 C   0  0  0  0  0  0  0  0  0  0  0  0
   11.4645    0.7909   24.4330 C   0  0  0  0  0  0  0  0  0  0  0  0
   11.1492   -0.5355   24.7224 C   0  0  0  0  0  0  0  0  0  0  0  0
    7.9220   -4.6967   22.4388 C   0  0  0  0  0  0  0  0  0  0  0  0
   12.7937    1.1298   24.2184 C   0  0  0  0  0  0  0  0  0  0  0  0
    6.4062   -6.4292   21.8412 C   0  0  0  0  0  0  0  0  0  0  0  0
    7.8797   -6.7902   23.5665 C   0  0  0  0  0  0  0  0  0  0  0  0
   13.6562   -3.1822   24.9469 C   0  0  0  0  0  0  0  0  0  0  0  0
    6.8895   -5.1489   21.6246 C   0  0  0  0  0  0  0  0  0  0  0  0
   12.2027   -1.4621   24.7812 C   0  0  0  0  0  0  0  0  0  0  0  0
   12.3203   -2.8543   25.0346 C   0  0  0  0  0  0  0  0  0  0  0  0
    8.4322   -5.5268   23.4306 C   0  0  0  0  0  0  0  0  0  0  0  0
   13.4889   -0.9853   24.5451 C   0  0  0  0  0  0  0  0  0  0  0  0
   10.1337   -3.8642   24.2587 C   0  0  0  0  0  0  0  0  0  0  0  0
   11.2189   -3.7897   25.3385 C   0  0  0  0  0  0  0  0  0  0  0  0
    5.9019   -3.6475   19.7640 N   0  0  0  0  0  0  0  0  0  0  0  0
    6.8763   -7.2645   22.7945 N   0  0  0  0  0  0  0  0  0  0  0  0
   13.8472    0.2814   24.2624 N   0  0  0  0  0  0  0  0  0  0  0  0
   14.3555   -2.0412   24.6500 N   0  0  0  0  0  0  0  0  0  0  0  0
    9.4829   -5.0953   24.2749 N   0  0  0  0  0  0  0  0  0  0  0  0
    9.9184   -2.9199   23.5056 O   0  0  0  0  0  0  0  0  0  0  0  0
   15.3573   -1.9862   24.5285 H   0  0  0  0  0  0  0  0  0  0  0  0
    9.7997   -5.7623   24.9755 H   0  0  0  0  0  0  0  0  0  0  0  0
  1  9  1  0  0  0  0
  1 16  3  0  0  0  0
  2  3  2  0  0  0  0
  2  5  1  0  0  0  0
  3 10  1  0  0  0  0
  4  9  2  0  0  0  0
  4 12  1  0  0  0  0
  5 18  2  0  0  0  0
  6  9  1  0  0  0  0
  6 17  2  0  0  0  0
  7 12  2  0  0  0  0
  7 17  1  0  0  0  0
  8 11  2  0  0  0  0
  8 19  1  0  0  0  0
 10 11  1  0  0  0  0
 10 13  2  0  0  0  0
 11 15  1  0  0  0  0
 12 20  1  0  0  0  0
 13 18  1  0  0  0  0
 13 19  1  0  0  0  0
 14 15  1  0  0  0  0
 14 20  1  0  0  0  0
 14 21  2  0  0  0  0
 19 22  1  0  0  0  0
 20 23  1  0  0  0  0
M  END

> <original SMILES>

N#Cc1cncc(NC(=O)Cc2c[nH]c3ncccc23)c1

> <ref_mols>

x0104_0,x0305_0,x0434_0,x0678_0,x0995_0,x1093_0,x1249_0

> <ref_pdb>

receptors/Mpro-x0104-protein.pdb

> <Chemgauss4>

-7.36787

> <binding_free_energy>

-2.7098713169230564

> <binding_std_error>

1.3086265316893846

$$$$
DAR-DIA-caba39e3-1
  -OEChem-05122002103D

 21 23  0     1  0  0  0  0  0999 V2000
    8.5333   -5.4066   26.0520 C   0  0  0  0  0  0  0  0  0  0  0  0
    9.8432   -5.0320   25.7726 C   0  0  0  0  0  0  0  0  0  0  0  0
   11.2717    0.3779   25.0170 C   0  0  0  0  0  0  0  0  0  0  0  0
    7.4778   -4.7938   25.3798 C   0  0  0  0  0  0  0  0  0  0  0  0
   10.0988   -4.0328   24.8328 C   0  0  0  0  0  0  0  0  0  0  0  0
   10.2720   -0.5251   24.6554 C   0  0  0  0  0  0  0  0  0  0  0  0
   12.4260    0.4879   24.2416 C   0  0  0  0  0  0  0  0  0  0  0  0
   11.5809   -1.2082   22.7429 C   0  0  0  0  0  0  0  0  0  0  0  0
   10.4266   -1.3182   23.5184 C   0  0  0  0  0  0  0  0  0  0  0  0
    7.7220   -3.7964   24.4228 C   0  0  0  0  0  0  0  0  0  0  0  0
    9.0455   -3.3801   24.1679 C   0  0  0  0  0  0  0  0  0  0  0  0
   12.5806   -0.3052   23.1046 C   0  0  0  0  0  0  0  0  0  0  0  0
    6.2741   -2.6262   21.3084 C   0  0  0  0  0  0  0  0  0  0  0  0
    6.5474   -3.1760   23.7070 C   0  0  0  0  0  0  0  0  0  0  0  0
    8.0695   -1.5191   22.7237 C   0  0  0  0  0  0  0  0  0  0  0  0
    9.3344   -2.3037   23.1245 C   0  0  1  0  0  0  0  0  0  0  0  0
    6.2267   -1.4467   20.3702 C   0  0  0  0  0  0  0  0  0  0  0  0
    6.9510   -2.4378   22.5121 N   0  0  0  0  0  0  0  0  0  0  0  0
    5.7280   -3.6823   20.9794 O   0  0  0  0  0  0  0  0  0  0  0  0
   13.6891   -0.1999   22.3601 F   0  0  0  0  0  0  0  0  0  0  0  0
    5.3831   -0.1592   21.2233 Cl  0  0  0  0  0  0  0  0  0  0  0  0
  1  2  1  0  0  0  0
  1  4  2  0  0  0  0
  2  5  2  0  0  0  0
  3  6  2  0  0  0  0
  3  7  1  0  0  0  0
  4 10  1  0  0  0  0
  5 11  1  0  0  0  0
  6  9  1  0  0  0  0
  7 12  2  0  0  0  0
  8  9  2  0  0  0  0
  8 12  1  0  0  0  0
  9 16  1  0  0  0  0
 10 11  2  0  0  0  0
 10 14  1  0  0  0  0
 11 16  1  0  0  0  0
 12 20  1  0  0  0  0
 13 17  1  0  0  0  0
 13 18  1  0  0  0  0
 13 19  2  0  0  0  0
 14 18  1  0  0  0  0
 15 16  1  0  0  0  0
 15 18  1  0  0  0  0
 17 21  1  0  0  0  0
M  END

> <original SMILES>

O=C(CCl)N1Cc2ccccc2[C@H](c2cccc(F)c2)C1

> <ref_mols>

x0195_0,x0305_0,x0830_0,x1249_0,x1392_0

> <ref_pdb>

receptors/Mpro-x1392-protein.pdb

> <Chemgauss4>

-8.931615

> <binding_free_energy>

-2.7022224539393846

> <binding_std_error>

0.2925134043985321

$$$$
DAR-DIA-43a5904b-10
  -OEChem-05122002103D

 21 23  0     1  0  0  0  0  0999 V2000
   11.8937    1.0955   24.5503 C   0  0  0  0  0  0  0  0  0  0  0  0
   10.5484    0.7381   24.6389 C   0  0  0  0  0  0  0  0  0  0  0  0
   12.8295    0.1772   24.0740 C   0  0  0  0  0  0  0  0  0  0  0  0
   11.0745   -1.4560   23.7750 C   0  0  0  0  0  0  0  0  0  0  0  0
   10.1387   -0.5377   24.2513 C   0  0  0  0  0  0  0  0  0  0  0  0
   12.4198   -1.0985   23.6864 C   0  0  0  0  0  0  0  0  0  0  0  0
    8.3460   -2.0890   25.2386 C   0  0  0  0  0  0  0  0  0  0  0  0
    7.3768   -2.8511   24.7174 C   0  0  0  0  0  0  0  0  0  0  0  0
    8.9538   -1.9624   22.0292 C   0  0  0  0  0  0  0  0  0  0  0  0
    6.9136   -2.3318   23.3899 C   0  0  0  0  0  0  0  0  0  0  0  0
    7.2670   -5.7292   27.2796 C   0  0  0  0  0  0  0  0  0  0  0  0
    8.5950   -5.2616   26.7526 C   0  0  0  0  0  0  0  0  0  0  0  0
    8.6794   -0.9251   24.3489 C   0  0  2  0  0  0  0  0  0  0  0  0
    8.0094   -1.3234   23.0129 C   0  0  1  0  0  0  0  0  0  0  0  0
    7.3953   -4.3585   26.6751 C   0  0  0  0  0  0  0  0  0  0  0  0
    6.7561   -4.0515   25.3340 C   0  0  0  0  0  0  0  0  0  0  0  0
    9.5460   -1.0688   21.1684 N   0  0  0  0  0  0  0  0  0  0  0  0
    9.1729   -3.1712   22.0256 O   0  0  0  0  0  0  0  0  0  0  0  0
   13.5749   -2.2315   23.0999 Cl  0  0  0  0  0  0  0  0  0  0  0  0
    9.3147   -0.0845   21.2533 H   0  0  0  0  0  0  0  0  0  0  0  0
   10.2052   -1.3542   20.4515 H   0  0  0  0  0  0  0  0  0  0  0  0
  1  2  2  0  0  0  0
  1  3  1  0  0  0  0
  2  5  1  0  0  0  0
  3  6  2  0  0  0  0
  4  5  2  0  0  0  0
  4  6  1  0  0  0  0
  5 13  1  0  0  0  0
  6 19  1  0  0  0  0
  7  8  2  0  0  0  0
  7 13  1  0  0  0  0
  8 10  1  0  0  0  0
  8 16  1  0  0  0  0
  9 14  1  0  0  0  0
  9 17  1  0  0  0  0
  9 18  2  0  0  0  0
 10 14  1  0  0  0  0
 11 12  1  0  0  0  0
 11 15  1  0  0  0  0
 12 15  1  0  0  0  0
 13 14  1  0  0  0  0
 15 16  1  0  0  0  0
 17 20  1  0  0  0  0
 17 21  1  0  0  0  0
M  END

> <original SMILES>

NC(=O)[C@H]1CC(CC2CC2)=C[C@H]1c1cccc(Cl)c1

> <ref_mols>

x0874_0

> <ref_pdb>

receptors/protein-0387.pdb

> <Chemgauss4>

-5.60416555404663

> <binding_free_energy>

-2.6645112802020208

> <binding_std_error>

0.14082973134090104

$$$$
ALV-UNI-7ff1a6f9-1
  -OEChem-05122002103D

 23 26  0     0  0  0  0  0  0999 V2000
    7.1604   -2.2979   21.1217 C   0  0  0  0  0  0  0  0  0  0  0  0
    8.5327   -0.3300   20.8366 C   0  0  0  0  0  0  0  0  0  0  0  0
    6.2733   -1.8190   20.1578 C   0  0  0  0  0  0  0  0  0  0  0  0
    7.6456    0.1489   19.8726 C   0  0  0  0  0  0  0  0  0  0  0  0
    8.2775   -5.3643   22.2624 C   0  0  0  0  0  0  0  0  0  0  0  0
    7.0184   -4.2402   23.9756 C   0  0  0  0  0  0  0  0  0  0  0  0
    7.3008   -6.3471   22.2648 C   0  0  0  0  0  0  0  0  0  0  0  0
    6.0979   -5.2732   23.9013 C   0  0  0  0  0  0  0  0  0  0  0  0
    8.2901   -1.5534   21.4612 C   0  0  0  0  0  0  0  0  0  0  0  0
    8.1262   -4.2942   23.1371 C   0  0  0  0  0  0  0  0  0  0  0  0
    9.1088   -3.2503   23.1744 C   0  0  0  0  0  0  0  0  0  0  0  0
    6.5159   -0.5956   19.5332 C   0  0  0  0  0  0  0  0  0  0  0  0
    9.2069   -2.0484   22.4579 C   0  0  0  0  0  0  0  0  0  0  0  0
   10.2149   -3.2538   23.9877 C   0  0  0  0  0  0  0  0  0  0  0  0
   10.7405   -4.1481   24.9598 C   0  0  0  0  0  0  0  0  0  0  0  0
   11.8844   -3.8397   25.5987 C   0  0  0  0  0  0  0  0  0  0  0  0
   12.1067   -1.7604   24.3987 C   0  0  0  0  0  0  0  0  0  0  0  0
   12.6083   -2.6032   25.3206 C   0  0  0  0  0  0  0  0  0  0  0  0
   13.8706   -2.3463   26.0788 C   0  0  0  0  0  0  0  0  0  0  0  0
    6.2110   -6.3290   23.0646 N   0  0  0  0  0  0  0  0  0  0  0  0
   10.2851   -1.3324   22.7799 N   0  0  0  0  0  0  0  0  0  0  0  0
   10.9177   -2.0735   23.7301 N   0  0  0  0  0  0  0  0  0  0  0  0
    5.6640   -0.1357   18.6074 F   0  0  0  0  0  0  0  0  0  0  0  0
  1  3  2  0  0  0  0
  1  9  1  0  0  0  0
  2  4  1  0  0  0  0
  2  9  2  0  0  0  0
  3 12  1  0  0  0  0
  4 12  2  0  0  0  0
  5  7  2  0  0  0  0
  5 10  1  0  0  0  0
  6  8  1  0  0  0  0
  6 10  2  0  0  0  0
  7 20  1  0  0  0  0
  8 20  2  0  0  0  0
  9 13  1  0  0  0  0
 10 11  1  0  0  0  0
 11 13  1  0  0  0  0
 11 14  2  0  0  0  0
 12 23  1  0  0  0  0
 13 21  2  0  0  0  0
 14 15  1  0  0  0  0
 14 22  1  0  0  0  0
 15 16  2  0  0  0  0
 16 18  1  0  0  0  0
 17 18  2  0  0  0  0
 17 22  1  0  0  0  0
 18 19  1  0  0  0  0
 21 22  1  0  0  0  0
M  END

> <original SMILES>

Cc1ccc2c(-c3ccncc3)c(-c3ccc(F)cc3)nn2c1

> <ref_mols>

x0395_0,x0426_0,x0434_0,x0540_0,x0678_0,x0830_0,x1093_0

> <ref_pdb>

receptors/Mpro-x0540-protein.pdb

> <Chemgauss4>

-6.294449

> <binding_free_energy>

-2.6178265420201967

> <binding_std_error>

0.17426271319564163

$$$$
ANN-UNI-26382800-3
  -OEChem-05122002103D

 20 21  0     0  0  0  0  0  0999 V2000
   14.8236   -1.3998   26.8991 C   0  0  0  0  0  0  0  0  0  0  0  0
    6.8932   -6.5097   21.7655 C   0  0  0  0  0  0  0  0  0  0  0  0
   12.9361   -0.5418   25.6017 C   0  0  0  0  0  0  0  0  0  0  0  0
   13.2101   -2.9264   25.8762 C   0  0  0  0  0  0  0  0  0  0  0  0
    7.7787   -5.5959   22.3261 C   0  0  0  0  0  0  0  0  0  0  0  0
   11.7891   -0.7613   24.8389 C   0  0  0  0  0  0  0  0  0  0  0  0
   12.0631   -3.1460   25.1134 C   0  0  0  0  0  0  0  0  0  0  0  0
    5.8289   -6.0138   21.0299 C   0  0  0  0  0  0  0  0  0  0  0  0
    6.4809   -3.8396   21.3842 C   0  0  0  0  0  0  0  0  0  0  0  0
   13.6466   -1.6243   26.1203 C   0  0  0  0  0  0  0  0  0  0  0  0
   11.3526   -2.0634   24.5948 C   0  0  0  0  0  0  0  0  0  0  0  0
    7.5756   -4.2335   22.1367 C   0  0  0  0  0  0  0  0  0  0  0  0
    9.6039   -3.5139   23.4736 C   0  0  0  0  0  0  0  0  0  0  0  0
   15.7793   -1.2173   27.5315 N   0  0  0  0  0  0  0  0  0  0  0  0
    5.5991   -4.6976   20.8241 N   0  0  0  0  0  0  0  0  0  0  0  0
   10.2055   -2.2827   23.8315 N   0  0  0  0  0  0  0  0  0  0  0  0
    8.4593   -3.2798   22.6948 N   0  0  0  0  0  0  0  0  0  0  0  0
   10.0263   -4.6186   23.7998 O   0  0  0  0  0  0  0  0  0  0  0  0
    9.7354   -1.4404   23.4833 H   0  0  0  0  0  0  0  0  0  0  0  0
    8.2321   -2.3071   22.5042 H   0  0  0  0  0  0  0  0  0  0  0  0
  1 10  1  0  0  0  0
  1 14  3  0  0  0  0
  2  5  2  0  0  0  0
  2  8  1  0  0  0  0
  3  6  2  0  0  0  0
  3 10  1  0  0  0  0
  4  7  1  0  0  0  0
  4 10  2  0  0  0  0
  5 12  1  0  0  0  0
  6 11  1  0  0  0  0
  7 11  2  0  0  0  0
  8 15  2  0  0  0  0
  9 12  2  0  0  0  0
  9 15  1  0  0  0  0
 11 16  1  0  0  0  0
 12 17  1  0  0  0  0
 13 16  1  0  0  0  0
 13 17  1  0  0  0  0
 13 18  2  0  0  0  0
 16 19  1  0  0  0  0
 17 20  1  0  0  0  0
M  END

> <original SMILES>

N#Cc1ccc(NC(=O)Nc2cccnc2)cc1

> <ref_mols>

x0104_0,x0305_0,x0434_0,x0678_0,x1093_0,x1249_0

> <ref_pdb>

receptors/Mpro-x1249-protein.pdb

> <Chemgauss4>

-2.72987

> <binding_free_energy>

-2.5612857343434463

> <binding_std_error>

0.08821128558958888

$$$$
TRY-UNI-714a760b-16
  -OEChem-05122002103D

 19 20  0     1  0  0  0  0  0999 V2000
    5.6580    0.9093   18.9186 C   0  0  0  0  0  0  0  0  0  0  0  0
    6.2802    0.7486   17.6910 C   0  0  0  0  0  0  0  0  0  0  0  0
    8.2235    0.0137   18.6717 C   0  0  0  0  0  0  0  0  0  0  0  0
    6.3844    0.5971   20.0623 C   0  0  0  0  0  0  0  0  0  0  0  0
    7.6924    0.1401   19.9452 C   0  0  0  0  0  0  0  0  0  0  0  0
    9.8549   -0.1016   21.2144 C   0  0  0  0  0  0  0  0  0  0  0  0
   14.4162   -1.5828   23.6772 C   0  0  0  0  0  0  0  0  0  0  0  0
   13.7617   -0.3944   24.3745 C   0  0  0  0  0  0  0  0  0  0  0  0
   14.0106   -1.6647   22.2088 C   0  0  0  0  0  0  0  0  0  0  0  0
   12.2433   -0.4128   24.2133 C   0  0  0  0  0  0  0  0  0  0  0  0
   12.4927   -1.6851   22.0438 C   0  0  0  0  0  0  0  0  0  0  0  0
   11.8313   -0.4861   22.7368 C   0  0  0  0  0  0  0  0  0  0  0  0
    5.7384    0.7615   21.3988 C   0  0  0  0  0  0  0  0  0  0  0  0
    9.6428    0.2946   23.6811 C   0  0  0  0  0  0  0  0  0  0  0  0
   10.3112   -0.5574   22.6038 C   0  0  1  0  0  0  0  0  0  0  0  0
    7.5488    0.3073   17.5376 N   0  0  0  0  0  0  0  0  0  0  0  0
    8.4724   -0.1910   21.0789 N   0  0  0  0  0  0  0  0  0  0  0  0
   10.6565    0.2903   20.3711 O   0  0  0  0  0  0  0  0  0  0  0  0
    7.9628   -0.5346   21.8900 H   0  0  0  0  0  0  0  0  0  0  0  0
  1  2  2  0  0  0  0
  1  4  1  0  0  0  0
  2 16  1  0  0  0  0
  3  5  1  0  0  0  0
  3 16  2  0  0  0  0
  4  5  2  0  0  0  0
  4 13  1  0  0  0  0
  5 17  1  0  0  0  0
  6 15  1  0  0  0  0
  6 17  1  0  0  0  0
  6 18  2  0  0  0  0
  7  8  1  0  0  0  0
  7  9  1  0  0  0  0
  8 10  1  0  0  0  0
  9 11  1  0  0  0  0
 10 12  1  0  0  0  0
 11 12  1  0  0  0  0
 12 15  1  0  0  0  0
 14 15  1  0  0  0  0
 17 19  1  0  0  0  0
M  END

> <original SMILES>

Cc1ccncc1NC(=O)C(C)C1CCCCC1

> <ref_mols>

x0107_0,x0434_0,x0678_0,x0748_0,x0995_0,x1382_0

> <ref_pdb>

receptors/Mpro-x0434-protein.pdb

> <Chemgauss4>

-7.061202

> <binding_free_energy>

-2.5217757388118685

> <binding_std_error>

4.909210870380382

$$$$
NIR-THE-0d6461ce-8
  -OEChem-05122002103D

 19 20  0     0  0  0  0  0  0999 V2000
   11.4776   -0.9981   24.7917 C   0  0  0  0  0  0  0  0  0  0  0  0
   13.8782   -0.7857   24.6227 C   0  0  0  0  0  0  0  0  0  0  0  0
   12.8895   -2.9238   25.1591 C   0  0  0  0  0  0  0  0  0  0  0  0
   12.6073   -0.2146   24.5566 C   0  0  0  0  0  0  0  0  0  0  0  0
   11.6186   -2.3527   25.0930 C   0  0  0  0  0  0  0  0  0  0  0  0
   14.0193   -2.1403   24.9240 C   0  0  0  0  0  0  0  0  0  0  0  0
    6.3653   -4.8546   21.9555 C   0  0  0  0  0  0  0  0  0  0  0  0
    9.0728   -2.8037   23.2361 C   0  0  0  0  0  0  0  0  0  0  0  0
    9.0080   -5.0570   24.3623 C   0  0  0  0  0  0  0  0  0  0  0  0
    8.4796   -3.4414   21.9808 C   0  0  0  0  0  0  0  0  0  0  0  0
    8.4186   -5.6487   23.0842 C   0  0  0  0  0  0  0  0  0  0  0  0
    9.8744   -3.8259   24.0564 C   0  0  0  0  0  0  0  0  0  0  0  0
   12.4556    1.2335   24.2329 C   0  0  0  0  0  0  0  0  0  0  0  0
   10.3995   -3.1970   25.3447 C   0  0  0  0  0  0  0  0  0  0  0  0
    5.5345   -5.6915   22.8953 C   0  0  0  0  0  0  0  0  0  0  0  0
    7.6912   -4.6308   22.3243 N   0  0  0  0  0  0  0  0  0  0  0  0
    5.8501   -4.4160   20.9238 O   0  0  0  0  0  0  0  0  0  0  0  0
   15.5875   -2.8447   25.0068 Cl  0  0  0  0  0  0  0  0  0  0  0  0
    5.5476   -4.8663   24.4499 Cl  0  0  0  0  0  0  0  0  0  0  0  0
  1  4  2  0  0  0  0
  1  5  1  0  0  0  0
  2  4  1  0  0  0  0
  2  6  2  0  0  0  0
  3  5  2  0  0  0  0
  3  6  1  0  0  0  0
  4 13  1  0  0  0  0
  5 14  1  0  0  0  0
  6 18  1  0  0  0  0
  7 15  1  0  0  0  0
  7 16  1  0  0  0  0
  7 17  2  0  0  0  0
  8 10  1  0  0  0  0
  8 12  1  0  0  0  0
  9 11  1  0  0  0  0
  9 12  1  0  0  0  0
 10 16  1  0  0  0  0
 11 16  1  0  0  0  0
 12 14  1  0  0  0  0
 15 19  1  0  0  0  0
M  END

> <original SMILES>

Cc1cc(Cl)cc(CC2CCN(C(=O)CCl)CC2)c1

> <ref_mols>

x0104_0,x0161_0,x0195_0,x0305_0,x0692_0,x0770_0,x0830_0,x1334_0

> <ref_pdb>

receptors/Mpro-x0195-protein.pdb

> <Chemgauss4>

-7.734537

> <binding_free_energy>

-2.51376792040404

> <binding_std_error>

0.21251272669248203

$$$$
LIZ-THE-6efed59f-3
  -OEChem-05122002103D

 14 14  0     0  0  0  0  0  0999 V2000
   12.9300    2.6939   22.8819 C   0  0  0  0  0  0  0  0  0  0  0  0
   11.3782    1.5586   24.3449 C   0  0  0  0  0  0  0  0  0  0  0  0
   13.4859    1.4670   22.5195 C   0  0  0  0  0  0  0  0  0  0  0  0
   11.9341    0.3317   23.9825 C   0  0  0  0  0  0  0  0  0  0  0  0
   11.8762    2.7397   23.7947 C   0  0  0  0  0  0  0  0  0  0  0  0
   12.9879    0.2859   23.0697 C   0  0  0  0  0  0  0  0  0  0  0  0
   11.8901    5.1049   23.5471 C   0  0  0  0  0  0  0  0  0  0  0  0
   14.9115   -1.4108   23.7947 N   0  0  0  0  0  0  0  0  0  0  0  0
   12.6865   -2.2882   22.8329 O   0  0  0  0  0  0  0  0  0  0  0  0
   14.3079   -1.1071   21.3087 O   0  0  0  0  0  0  0  0  0  0  0  0
   11.3333    3.9369   24.1481 O   0  0  0  0  0  0  0  0  0  0  0  0
   13.6843   -1.2500   22.6168 S   0  0  0  0  0  0  0  0  0  0  0  0
   14.7810   -2.1122   24.5339 H   0  0  0  0  0  0  0  0  0  0  0  0
   15.8873   -1.3034   23.4919 H   0  0  0  0  0  0  0  0  0  0  0  0
  1  3  2  0  0  0  0
  1  5  1  0  0  0  0
  2  4  1  0  0  0  0
  2  5  2  0  0  0  0
  3  6  1  0  0  0  0
  4  6  2  0  0  0  0
  5 11  1  0  0  0  0
  6 12  1  0  0  0  0
  7 11  1  0  0  0  0
  8 12  1  0  0  0  0
  9 12  2  0  0  0  0
 10 12  2  0  0  0  0
  8 13  1  0  0  0  0
  8 14  1  0  0  0  0
M  END

> <original SMILES>

COc1ccc(S(N)(=O)=O)cc1

> <ref_mols>

x0161_0

> <ref_pdb>

receptors/Mpro-x0161-protein.pdb

> <Chemgauss4>

-6.073517

> <binding_free_energy>

-2.487691655769231

> <binding_std_error>

0.01244944423076877

$$$$
ANT-DIA-b7f58f21-4
  -OEChem-05122002103D

 13 13  0     0  0  0  0  0  0999 V2000
   13.9257   -2.0488   23.7773 C   0  0  0  0  0  0  0  0  0  0  0  0
   13.5900   -1.2189   24.8470 C   0  0  0  0  0  0  0  0  0  0  0  0
   13.8557   -1.5652   22.4708 C   0  0  0  0  0  0  0  0  0  0  0  0
   13.1843    0.0945   24.6102 C   0  0  0  0  0  0  0  0  0  0  0  0
   13.4500   -0.2519   22.2340 C   0  0  0  0  0  0  0  0  0  0  0  0
   13.1142    0.5780   23.3037 C   0  0  0  0  0  0  0  0  0  0  0  0
   10.4484    4.3957   23.5914 C   0  0  0  0  0  0  0  0  0  0  0  0
   10.0794    5.7524   23.0898 C   0  0  0  0  0  0  0  0  0  0  0  0
   12.6802    1.9821   23.0497 C   0  0  0  0  0  0  0  0  0  0  0  0
   11.1658    2.1306   22.8586 C   0  0  0  0  0  0  0  0  0  0  0  0
   10.7788    3.4907   22.5955 N   0  0  0  0  0  0  0  0  0  0  0  0
   10.4391    4.1740   24.7966 O   0  0  0  0  0  0  0  0  0  0  0  0
   10.7459    3.8049   21.6269 H   0  0  0  0  0  0  0  0  0  0  0  0
  1  2  1  0  0  0  0
  1  3  2  0  0  0  0
  2  4  2  0  0  0  0
  3  5  1  0  0  0  0
  4  6  1  0  0  0  0
  5  6  2  0  0  0  0
  6  9  1  0  0  0  0
  7  8  1  0  0  0  0
  7 11  1  0  0  0  0
  7 12  2  0  0  0  0
  9 10  1  0  0  0  0
 10 11  1  0  0  0  0
 11 13  1  0  0  0  0
M  END

> <original SMILES>

CC(=O)NCCc1ccccc1

> <ref_mols>

x0072_0,x0305_0,x0387_0

> <ref_pdb>

receptors/Mpro-x0072-protein.pdb

> <Chemgauss4>

-7.031579

> <binding_free_energy>

-2.486362344559886

> <binding_std_error>

4.915717402572909

$$$$
DOU-UNK-b5326f8f-9
  -OEChem-05122002103D

 30 33  0     1  0  0  0  0  0999 V2000
    6.1474   -5.8675   21.1868 C   0  0  0  0  0  0  0  0  0  0  0  0
   12.6304   -0.2076   25.9114 C   0  0  0  0  0  0  0  0  0  0  0  0
    6.6704   -6.1066   22.4575 C   0  0  0  0  0  0  0  0  0  0  0  0
    6.2096   -4.5872   20.6365 C   0  0  0  0  0  0  0  0  0  0  0  0
   12.4953   -1.6213   26.0264 C   0  0  0  0  0  0  0  0  0  0  0  0
    7.3177   -3.7851   22.6279 C   0  0  0  0  0  0  0  0  0  0  0  0
   11.8837    0.3006   24.8713 C   0  0  0  0  0  0  0  0  0  0  0  0
    7.2556   -5.0654   23.1781 C   0  0  0  0  0  0  0  0  0  0  0  0
    6.7947   -3.5460   21.3571 C   0  0  0  0  0  0  0  0  0  0  0  0
   11.6503   -2.1398   25.0699 C   0  0  0  0  0  0  0  0  0  0  0  0
    5.9459   -1.6681   19.8844 C   0  0  0  0  0  0  0  0  0  0  0  0
    5.8608   -5.0972   26.0487 C   0  0  0  0  0  0  0  0  0  0  0  0
    6.4865   -0.3101   19.4979 C   0  0  0  0  0  0  0  0  0  0  0  0
    7.4474    0.0178   20.6231 C   0  0  0  0  0  0  0  0  0  0  0  0
    7.9693   -1.3395   21.0459 C   0  0  0  0  0  0  0  0  0  0  0  0
    7.6470   -3.3125   26.0952 C   0  0  0  0  0  0  0  0  0  0  0  0
    9.1620   -3.2702   26.1785 C   0  0  0  0  0  0  0  0  0  0  0  0
    9.3529   -5.1768   24.6145 C   0  0  0  0  0  0  0  0  0  0  0  0
    7.8275   -5.3275   24.5679 C   0  0  1  0  0  0  0  0  0  0  0  0
    5.3914   -4.6956   27.4253 C   0  0  0  0  0  0  0  0  0  0  0  0
   11.2457   -3.5781   24.8541 C   0  0  2  0  0  0  0  0  0  0  0  0
    6.8587   -2.2372   20.7938 N   0  0  0  0  0  0  0  0  0  0  0  0
    7.1077   -4.6003   25.6362 N   0  0  0  0  0  0  0  0  0  0  0  0
    9.7521   -3.7546   24.8873 N   0  3  2  0  0  0  0  0  0  0  0  0
    4.9250   -2.1322   19.3980 O   0  0  0  0  0  0  0  0  0  0  0  0
    5.1451   -5.8287   25.3590 O   0  0  0  0  0  0  0  0  0  0  0  0
   11.9630   -4.3946   25.7782 O   0  0  0  0  0  0  0  0  0  0  0  0
   11.0243   -0.9244   24.0388 S   0  0  0  0  0  0  0  0  0  0  0  0
    9.3702   -3.1741   24.1373 H   0  0  0  0  0  0  0  0  0  0  0  0
   12.9106   -4.2689   25.5998 H   0  0  0  0  0  0  0  0  0  0  0  0
  1  3  2  0  0  0  0
  1  4  1  0  0  0  0
  2  5  1  0  0  0  0
  2  7  2  0  0  0  0
  3  8  1  0  0  0  0
  4  9  2  0  0  0  0
  5 10  2  0  0  0  0
  6  8  2  0  0  0  0
  6  9  1  0  0  0  0
  7 28  1  0  0  0  0
  8 19  1  0  0  0  0
  9 22  1  0  0  0  0
 10 21  1  0  0  0  0
 10 28  1  0  0  0  0
 11 13  1  0  0  0  0
 11 22  1  0  0  0  0
 11 25  2  0  0  0  0
 12 20  1  0  0  0  0
 12 23  1  0  0  0  0
 12 26  2  0  0  0  0
 13 14  1  0  0  0  0
 14 15  1  0  0  0  0
 15 22  1  0  0  0  0
 16 17  1  0  0  0  0
 16 23  1  0  0  0  0
 17 24  1  0  0  0  0
 18 19  1  0  0  0  0
 18 24  1  0  0  0  0
 19 23  1  0  0  0  0
 21 24  1  0  0  0  0
 21 27  1  0  0  0  0
 24 29  1  0  0  0  0
 27 30  1  0  0  0  0
M  CHG  1  24   1
M  END

> <original SMILES>

CC(=O)N1CCN(C(O)c2cccs2)CC1c1cccc(N2CCCC2=O)c1

> <ref_mols>

x0104_0,x0107_0,x0387_0,x0397_0,x0708_0,x0770_0,x1093_0,x1392_0

> <ref_pdb>

receptors/Mpro-x0387-protein.pdb

> <Chemgauss4>

-7.357361

> <binding_free_energy>

-2.459672765490197

> <binding_std_error>

0.0606689752094944

$$$$
WAR-XCH-b72a1bbc-15
  -OEChem-05122002103D

 24 26  0     0  0  0  0  0  0999 V2000
   11.6264    1.2515   23.4209 C   0  0  0  0  0  0  0  0  0  0  0  0
   13.7490    0.5646   22.4936 C   0  0  0  0  0  0  0  0  0  0  0  0
   11.9481    2.5852   23.1693 C   0  0  0  0  0  0  0  0  0  0  0  0
   14.0707    1.8984   22.2420 C   0  0  0  0  0  0  0  0  0  0  0  0
    8.0119   -4.3424   22.3359 C   0  0  0  0  0  0  0  0  0  0  0  0
    7.8630   -2.0527   21.6152 C   0  0  0  0  0  0  0  0  0  0  0  0
    6.7451   -4.5343   21.8085 C   0  0  0  0  0  0  0  0  0  0  0  0
    6.6029   -2.3471   21.1199 C   0  0  0  0  0  0  0  0  0  0  0  0
    8.5744   -3.0750   22.2333 C   0  0  0  0  0  0  0  0  0  0  0  0
   12.5269    0.2411   23.0831 C   0  0  0  0  0  0  0  0  0  0  0  0
   13.1702    2.9087   22.5799 C   0  0  0  0  0  0  0  0  0  0  0  0
    9.9299   -1.7624   23.9286 C   0  0  0  0  0  0  0  0  0  0  0  0
   10.9592   -2.3993   21.6932 C   0  0  0  0  0  0  0  0  0  0  0  0
   11.3422   -1.4866   24.4485 C   0  0  0  0  0  0  0  0  0  0  0  0
   12.3435   -2.1029   22.2817 C   0  0  0  0  0  0  0  0  0  0  0  0
    9.9585   -2.8084   22.7942 C   0  0  0  0  0  0  0  0  0  0  0  0
    6.0235   -3.5659   21.2009 N   0  0  0  0  0  0  0  0  0  0  0  0
   12.2065   -1.0894   23.3337 N   0  0  0  0  0  0  0  0  0  0  0  0
   12.1760    5.3669   22.8506 N   0  0  0  0  0  0  0  0  0  0  0  0
   14.7060    4.9430   23.1054 O   0  0  0  0  0  0  0  0  0  0  0  0
   13.6509    4.7715   20.8240 O   0  0  0  0  0  0  0  0  0  0  0  0
   13.5740    4.5778   22.2653 S   0  0  0  0  0  0  0  0  0  0  0  0
   12.2549    5.9027   23.7236 H   0  0  0  0  0  0  0  0  0  0  0  0
   11.5346    5.7832   22.1646 H   0  0  0  0  0  0  0  0  0  0  0  0
  1  3  2  0  0  0  0
  1 10  1  0  0  0  0
  2  4  1  0  0  0  0
  2 10  2  0  0  0  0
  3 11  1  0  0  0  0
  4 11  2  0  0  0  0
  5  7  2  0  0  0  0
  5  9  1  0  0  0  0
  6  8  1  0  0  0  0
  6  9  2  0  0  0  0
  7 17  1  0  0  0  0
  8 17  2  0  0  0  0
  9 16  1  0  0  0  0
 10 18  1  0  0  0  0
 11 22  1  0  0  0  0
 12 14  1  0  0  0  0
 12 16  1  0  0  0  0
 13 15  1  0  0  0  0
 13 16  1  0  0  0  0
 14 18  1  0  0  0  0
 15 18  1  0  0  0  0
 19 22  1  0  0  0  0
 20 22  2  0  0  0  0
 21 22  2  0  0  0  0
 19 23  1  0  0  0  0
 19 24  1  0  0  0  0
M  END

> <original SMILES>

NS(=O)(=O)c1ccc(N2CCC(c3ccncc3)CC2)cc1

> <ref_mols>

x0072_0,x0104_0,x0107_0,x0161_0,x0165_0

> <ref_pdb>

receptors/Mpro-x0161-protein.pdb

> <Chemgauss4>

-6.279764

> <binding_free_energy>

-2.393161781538474

> <binding_std_error>

0.4480545857847452

$$$$
DAR-DIA-842b4336-13
  -OEChem-05122002103D

 17 18  0     0  0  0  0  0  0999 V2000
    5.7065    1.1906   18.9682 C   0  0  0  0  0  0  0  0  0  0  0  0
    6.3896    0.9267   20.1502 C   0  0  0  0  0  0  0  0  0  0  0  0
   12.1924   -1.5808   22.1343 C   0  0  0  0  0  0  0  0  0  0  0  0
   13.4705   -1.9739   22.6263 C   0  0  0  0  0  0  0  0  0  0  0  0
    6.3537    0.9258   17.7721 C   0  0  0  0  0  0  0  0  0  0  0  0
    8.2396    0.1830   18.8537 C   0  0  0  0  0  0  0  0  0  0  0  0
    7.6808    0.4132   20.1005 C   0  0  0  0  0  0  0  0  0  0  0  0
   11.5063   -0.8021   23.0401 C   0  0  0  0  0  0  0  0  0  0  0  0
   13.7126   -1.4804   23.8896 C   0  0  0  0  0  0  0  0  0  0  0  0
    9.7806    0.1817   21.4725 C   0  0  0  0  0  0  0  0  0  0  0  0
   10.1363   -0.1911   22.9031 C   0  0  0  0  0  0  0  0  0  0  0  0
    7.6071    0.4270   17.6840 N   0  0  0  0  0  0  0  0  0  0  0  0
    8.3899    0.1391   21.2675 N   0  0  0  0  0  0  0  0  0  0  0  0
   10.6331    0.4729   20.6396 O   0  0  0  0  0  0  0  0  0  0  0  0
   12.4023   -0.5477   24.4771 S   0  0  0  0  0  0  0  0  0  0  0  0
   15.1114   -1.7037   24.8543 Cl  0  0  0  0  0  0  0  0  0  0  0  0
    7.8246   -0.1285   22.0830 H   0  0  0  0  0  0  0  0  0  0  0  0
  1  2  2  0  0  0  0
  1  5  1  0  0  0  0
  2  7  1  0  0  0  0
  3  4  1  0  0  0  0
  3  8  2  0  0  0  0
  4  9  2  0  0  0  0
  5 12  2  0  0  0  0
  6  7  2  0  0  0  0
  6 12  1  0  0  0  0
  7 13  1  0  0  0  0
  8 11  1  0  0  0  0
  8 15  1  0  0  0  0
  9 15  1  0  0  0  0
  9 16  1  0  0  0  0
 10 11  1  0  0  0  0
 10 13  1  0  0  0  0
 10 14  2  0  0  0  0
 13 17  1  0  0  0  0
M  END

> <original SMILES>

O=C(Cc1ccc(Cl)s1)Nc1cccnc1

> <ref_mols>

x0434_0,x0678_0,x1093_0

> <ref_pdb>

receptors/protein-0387.pdb

> <Chemgauss4>

-4.72160482406616

> <binding_free_energy>

-2.363140359230762

> <binding_std_error>

0.8765870058045652

$$$$
GIA-UNK-995df016-11
  -OEChem-05122002103D

 18 19  0     0  0  0  0  0  0999 V2000
   14.1255   -1.7825   22.4317 C   0  0  0  0  0  0  0  0  0  0  0  0
   12.8900   -1.0954   22.5004 C   0  0  0  0  0  0  0  0  0  0  0  0
   14.5342   -1.9644   23.7324 C   0  0  0  0  0  0  0  0  0  0  0  0
   12.6317   -0.9066   23.8382 C   0  0  0  0  0  0  0  0  0  0  0  0
   11.5183   -0.2651   24.5274 C   0  0  0  0  0  0  0  0  0  0  0  0
    8.0048    0.8370   20.5154 C   0  0  0  0  0  0  0  0  0  0  0  0
    8.8209    1.3493   22.7792 C   0  0  0  0  0  0  0  0  0  0  0  0
    9.2859   -0.8884   21.7125 C   0  0  0  0  0  0  0  0  0  0  0  0
    9.3045    0.7856   24.1142 C   0  0  0  0  0  0  0  0  0  0  0  0
    9.7498   -1.4068   23.0715 C   0  0  0  0  0  0  0  0  0  0  0  0
    8.2717    0.2407   21.8838 C   0  0  0  0  0  0  0  0  0  0  0  0
    6.5222    0.6184   18.2185 C   0  0  0  0  0  0  0  0  0  0  0  0
   10.2605   -0.3032   23.8981 N   0  0  0  0  0  0  0  0  0  0  0  0
   11.6978    0.2839   25.6160 O   0  0  0  0  0  0  0  0  0  0  0  0
    8.8797    1.3487   19.8272 O   0  0  0  0  0  0  0  0  0  0  0  0
   13.6292   -1.4335   24.5959 O   0  0  0  0  0  0  0  0  0  0  0  0
    7.2826   -0.4657   17.9092 F   0  0  0  0  0  0  0  0  0  0  0  0
    6.3199    0.7223   20.0084 S   0  0  0  0  0  0  0  0  0  0  0  0
  1  2  1  0  0  0  0
  1  3  2  0  0  0  0
  2  4  2  0  0  0  0
  3 16  1  0  0  0  0
  4  5  1  0  0  0  0
  4 16  1  0  0  0  0
  5 13  1  0  0  0  0
  5 14  2  0  0  0  0
  6 11  1  0  0  0  0
  6 15  2  0  0  0  0
  6 18  1  0  0  0  0
  7  9  1  0  0  0  0
  7 11  1  0  0  0  0
  8 10  1  0  0  0  0
  8 11  1  0  0  0  0
  9 13  1  0  0  0  0
 10 13  1  0  0  0  0
 12 17  1  0  0  0  0
 12 18  1  0  0  0  0
M  END

> <original SMILES>

O=C(SCF)C1CCN(C(=O)c2ccco2)CC1

> <ref_mols>

x1334_0

> <ref_pdb>

receptors/Mpro-x1334_0.pdb

> <Chemgauss4>

-6.405756

> <binding_free_energy>

-2.35989990384617

> <binding_std_error>

0.0

$$$$
PET-SGC-708ec5d8-1
  -OEChem-05122002103D

 20 21  0     0  0  0  0  0  0999 V2000
   13.7296   -1.0181   21.1668 C   0  0  0  0  0  0  0  0  0  0  0  0
   13.1631    0.4180   23.0575 C   0  0  0  0  0  0  0  0  0  0  0  0
   12.3564    0.7542   24.1484 C   0  0  0  0  0  0  0  0  0  0  0  0
   11.7897   -1.5235   22.5661 C   0  0  0  0  0  0  0  0  0  0  0  0
    9.4244   -1.0275   25.3084 C   0  0  0  0  0  0  0  0  0  0  0  0
   12.8860   -0.7027   22.2772 C   0  0  0  0  0  0  0  0  0  0  0  0
   10.9622   -1.2046   23.6611 C   0  0  0  0  0  0  0  0  0  0  0  0
    9.7990   -1.7951   24.2298 C   0  0  0  0  0  0  0  0  0  0  0  0
   11.2640   -0.0755   24.4254 C   0  0  0  0  0  0  0  0  0  0  0  0
    7.2544   -2.0484   20.6601 C   0  0  0  0  0  0  0  0  0  0  0  0
    7.6701   -1.1369   19.5534 C   0  0  0  0  0  0  0  0  0  0  0  0
    8.8238    1.3431   26.8539 C   0  0  0  0  0  0  0  0  0  0  0  0
    9.1104   -3.0130   23.7567 C   0  0  0  0  0  0  0  0  0  0  0  0
   10.2513    1.0319   26.4384 C   0  0  0  0  0  0  0  0  0  0  0  0
    7.8075   -2.7374   22.9843 C   0  0  0  0  0  0  0  0  0  0  0  0
   14.4144   -1.2742   20.2654 N   0  0  0  0  0  0  0  0  0  0  0  0
   10.3139    0.0075   25.4182 N   0  0  0  0  0  0  0  0  0  0  0  0
    8.0347   -1.9517   21.8011 N   0  0  0  0  0  0  0  0  0  0  0  0
    6.2929   -2.7915   20.5018 O   0  0  0  0  0  0  0  0  0  0  0  0
    8.8092   -1.2898   21.8020 H   0  0  0  0  0  0  0  0  0  0  0  0
  1  6  1  0  0  0  0
  1 16  3  0  0  0  0
  2  3  2  0  0  0  0
  2  6  1  0  0  0  0
  3  9  1  0  0  0  0
  4  6  2  0  0  0  0
  4  7  1  0  0  0  0
  5  8  2  0  0  0  0
  5 17  1  0  0  0  0
  7  8  1  0  0  0  0
  7  9  2  0  0  0  0
  8 13  1  0  0  0  0
  9 17  1  0  0  0  0
 10 11  1  0  0  0  0
 10 18  1  0  0  0  0
 10 19  2  0  0  0  0
 12 14  1  0  0  0  0
 13 15  1  0  0  0  0
 14 17  1  0  0  0  0
 15 18  1  0  0  0  0
 18 20  1  0  0  0  0
M  END

> <original SMILES>

CCn1cc(CCNC(C)=O)c2cc(C#N)ccc21

> <ref_mols>

x0104_0,x0305_0

> <ref_pdb>

receptors/Mpro-x0104_0.pdb

> <Chemgauss4>

-9.379772

> <binding_free_energy>

-2.355563646985239

> <binding_std_error>

0.12737567736378697

$$$$
DAR-DIA-842b4336-16
  -OEChem-05122002103D

 17 18  0     0  0  0  0  0  0999 V2000
    5.6607    1.0211   18.9004 C   0  0  0  0  0  0  0  0  0  0  0  0
    6.2679    0.8679   20.1418 C   0  0  0  0  0  0  0  0  0  0  0  0
    6.4404    0.8374   17.7699 C   0  0  0  0  0  0  0  0  0  0  0  0
    8.3094    0.3778   19.0245 C   0  0  0  0  0  0  0  0  0  0  0  0
   13.2266   -0.4742   24.2557 C   0  0  0  0  0  0  0  0  0  0  0  0
    7.6173    0.5402   20.2138 C   0  0  0  0  0  0  0  0  0  0  0  0
   13.1712   -1.0083   22.9922 C   0  0  0  0  0  0  0  0  0  0  0  0
   11.3028   -0.0957   23.4947 C   0  0  0  0  0  0  0  0  0  0  0  0
    9.6009    0.6199   21.7642 C   0  0  0  0  0  0  0  0  0  0  0  0
   14.1126   -1.7345   22.1342 C   0  0  0  0  0  0  0  0  0  0  0  0
    9.8785    0.3155   23.2279 C   0  0  0  0  0  0  0  0  0  0  0  0
    7.7538    0.5185   17.8000 N   0  0  0  0  0  0  0  0  0  0  0  0
   12.0265    0.1095   24.5719 N   0  0  0  0  0  0  0  0  0  0  0  0
    8.2528    0.3804   21.4427 N   0  0  0  0  0  0  0  0  0  0  0  0
   10.4741    1.0192   21.0006 O   0  0  0  0  0  0  0  0  0  0  0  0
   11.9280   -0.7684   22.4899 O   0  0  0  0  0  0  0  0  0  0  0  0
    7.6611    0.0446   22.2130 H   0  0  0  0  0  0  0  0  0  0  0  0
  1  2  2  0  0  0  0
  1  3  1  0  0  0  0
  2  6  1  0  0  0  0
  3 12  2  0  0  0  0
  4  6  2  0  0  0  0
  4 12  1  0  0  0  0
  5  7  2  0  0  0  0
  5 13  1  0  0  0  0
  6 14  1  0  0  0  0
  7 10  1  0  0  0  0
  7 16  1  0  0  0  0
  8 11  1  0  0  0  0
  8 13  2  0  0  0  0
  8 16  1  0  0  0  0
  9 11  1  0  0  0  0
  9 14  1  0  0  0  0
  9 15  2  0  0  0  0
 14 17  1  0  0  0  0
M  END

> <original SMILES>

Cc1cnc(CC(=O)Nc2cccnc2)o1

> <ref_mols>

x0434_0,x0678_0,x1093_0

> <ref_pdb>

receptors/Mpro-x0434-protein.pdb

> <Chemgauss4>

-5.550553

> <binding_free_energy>

-2.3411828076288543

> <binding_std_error>

1.0591885050190954

$$$$
JOH-UNI-9dc98897-6
  -OEChem-05122002103D

 16 17  0     1  0  0  0  0  0999 V2000
    6.5655   -3.6583   21.4177 C   0  0  0  0  0  0  0  0  0  0  0  0
    9.5120   -3.7637   23.6784 C   0  0  0  0  0  0  0  0  0  0  0  0
    9.1369   -1.5967   22.7729 C   0  0  0  0  0  0  0  0  0  0  0  0
    7.7167   -3.3051   22.1874 C   0  0  0  0  0  0  0  0  0  0  0  0
    9.8915   -2.4295   23.5832 C   0  0  0  0  0  0  0  0  0  0  0  0
    8.4049   -4.2179   22.9702 C   0  0  0  0  0  0  0  0  0  0  0  0
   12.6026   -3.4593   25.3746 C   0  0  0  0  0  0  0  0  0  0  0  0
   11.4003   -2.5351   25.5608 C   0  0  0  0  0  0  0  0  0  0  0  0
   11.7305   -0.7817   23.7622 C   0  0  0  0  0  0  0  0  0  0  0  0
   13.9220   -2.7186   25.1780 C   0  0  0  0  0  0  0  0  0  0  0  0
   13.1504   -0.6446   24.3023 C   0  0  0  0  0  0  0  0  0  0  0  0
    5.6307   -3.9451   20.7927 N   0  0  0  0  0  0  0  0  0  0  0  0
    8.0554   -2.0015   22.0700 N   0  0  0  0  0  0  0  0  0  0  0  0
   11.0016   -1.9435   24.2824 N   0  0  3  0  0  0  0  0  0  0  0  0
   13.9065   -1.8288   24.0660 O   0  0  0  0  0  0  0  0  0  0  0  0
    7.9450   -5.8732   23.0971 Cl  0  0  0  0  0  0  0  0  0  0  0  0
  1  4  1  0  0  0  0
  1 12  3  0  0  0  0
  2  5  2  0  0  0  0
  2  6  1  0  0  0  0
  3  5  1  0  0  0  0
  3 13  2  0  0  0  0
  4  6  2  0  0  0  0
  4 13  1  0  0  0  0
  5 14  1  0  0  0  0
  6 16  1  0  0  0  0
  7  8  1  0  0  0  0
  7 10  1  0  0  0  0
  8 14  1  0  0  0  0
  9 11  1  0  0  0  0
  9 14  1  0  0  0  0
 10 15  1  0  0  0  0
 11 15  1  0  0  0  0
M  END

> <original SMILES>

N#Cc1ncc(N2CCCOCC2)cc1Cl

> <ref_mols>

x1077_0

> <ref_pdb>

receptors/Mpro-x1077-protein.pdb

> <Chemgauss4>

-6.736885

> <binding_free_energy>

-2.283641495440591

> <binding_std_error>

2.573409540735159

$$$$
DAR-DIA-fc970077-6
  -OEChem-05122002103D

 19 21  0     0  0  0  0  0  0999 V2000
   14.4245   -0.7964   23.0785 C   0  0  0  0  0  0  0  0  0  0  0  0
   13.6815    0.3799   23.1774 C   0  0  0  0  0  0  0  0  0  0  0  0
   13.7924   -1.9949   22.7471 C   0  0  0  0  0  0  0  0  0  0  0  0
    5.6023    1.0468   18.8809 C   0  0  0  0  0  0  0  0  0  0  0  0
   12.3063    0.3577   22.9451 C   0  0  0  0  0  0  0  0  0  0  0  0
   12.4172   -2.0171   22.5148 C   0  0  0  0  0  0  0  0  0  0  0  0
    6.2433    0.6884   20.0615 C   0  0  0  0  0  0  0  0  0  0  0  0
    6.2982    0.8932   17.6926 C   0  0  0  0  0  0  0  0  0  0  0  0
    8.1513    0.0788   18.7793 C   0  0  0  0  0  0  0  0  0  0  0  0
   11.6741   -0.8407   22.6138 C   0  0  0  0  0  0  0  0  0  0  0  0
    7.5424    0.1944   20.0185 C   0  0  0  0  0  0  0  0  0  0  0  0
    9.6589   -0.0871   21.3394 C   0  0  0  0  0  0  0  0  0  0  0  0
    8.1783   -1.1012   23.5781 C   0  0  0  0  0  0  0  0  0  0  0  0
    9.4401   -1.8041   23.1453 C   0  0  0  0  0  0  0  0  0  0  0  0
    7.4043   -0.6850   22.3466 C   0  0  0  0  0  0  0  0  0  0  0  0
    7.5607    0.4167   17.6111 N   0  0  0  0  0  0  0  0  0  0  0  0
   10.2521   -0.8634   22.3735 N   0  0  0  0  0  0  0  0  0  0  0  0
    8.2403   -0.1891   21.2371 N   0  0  0  0  0  0  0  0  0  0  0  0
   10.3290    0.6082   20.5691 O   0  0  0  0  0  0  0  0  0  0  0  0
  1  2  1  0  0  0  0
  1  3  2  0  0  0  0
  2  5  2  0  0  0  0
  3  6  1  0  0  0  0
  4  7  2  0  0  0  0
  4  8  1  0  0  0  0
  5 10  1  0  0  0  0
  6 10  2  0  0  0  0
  7 11  1  0  0  0  0
  8 16  2  0  0  0  0
  9 11  2  0  0  0  0
  9 16  1  0  0  0  0
 10 17  1  0  0  0  0
 11 18  1  0  0  0  0
 12 17  1  0  0  0  0
 12 18  1  0  0  0  0
 12 19  2  0  0  0  0
 13 14  1  0  0  0  0
 13 15  1  0  0  0  0
 14 17  1  0  0  0  0
 15 18  1  0  0  0  0
M  END

> <original SMILES>

O=C1N(c2ccccc2)CCCN1c1cccnc1

> <ref_mols>

x0434_0

> <ref_pdb>

receptors/protein-0387.pdb

> <Chemgauss4>

-4.93463373184204

> <binding_free_energy>

-2.2689451998058416

> <binding_std_error>

0.1071102556880641

$$$$
ALV-UNI-7ff1a6f9-30
  -OEChem-05122002103D

 27 31  0     0  0  0  0  0  0999 V2000
   10.9672   -0.2259   22.2367 C   0  0  0  0  0  0  0  0  0  0  0  0
    8.8067   -0.5105   25.3396 C   0  0  0  0  0  0  0  0  0  0  0  0
    7.1759    0.3848   23.7981 C   0  0  0  0  0  0  0  0  0  0  0  0
   11.7159   -1.3052   21.7182 C   0  0  0  0  0  0  0  0  0  0  0  0
    7.9971   -1.6270   25.5478 C   0  0  0  0  0  0  0  0  0  0  0  0
    6.3662   -0.7318   24.0063 C   0  0  0  0  0  0  0  0  0  0  0  0
   12.6339    0.4287   23.9901 C   0  0  0  0  0  0  0  0  0  0  0  0
   14.5716   -1.0689   23.8813 C   0  0  0  0  0  0  0  0  0  0  0  0
   13.3459   -0.6389   23.4581 C   0  0  0  0  0  0  0  0  0  0  0  0
    8.3961    0.4955   24.4648 C   0  0  0  0  0  0  0  0  0  0  0  0
   11.4066    0.5993   23.3196 C   0  0  0  0  0  0  0  0  0  0  0  0
   10.5468    1.6641   23.7472 C   0  0  0  0  0  0  0  0  0  0  0  0
   12.9479   -1.4993   22.3697 C   0  0  0  0  0  0  0  0  0  0  0  0
    6.7768   -1.7377   24.8811 C   0  0  0  0  0  0  0  0  0  0  0  0
    9.2328    1.6494   24.2498 C   0  0  0  0  0  0  0  0  0  0  0  0
   10.8920    2.9934   23.7368 C   0  0  0  0  0  0  0  0  0  0  0  0
   12.0296    3.7398   23.3687 C   0  0  0  0  0  0  0  0  0  0  0  0
   12.0078    5.0718   23.4991 C   0  0  0  0  0  0  0  0  0  0  0  0
   10.7576    5.6884   24.0356 C   0  0  0  0  0  0  0  0  0  0  0  0
   10.7576    7.1886   24.1732 C   0  0  0  0  0  0  0  0  0  0  0  0
   13.9121   -2.4121   22.1561 N   0  0  0  0  0  0  0  0  0  0  0  0
    8.7718    2.8691   24.5383 N   0  0  0  0  0  0  0  0  0  0  0  0
    9.6910    5.0305   24.3846 N   0  0  0  0  0  0  0  0  0  0  0  0
   14.8598   -2.1277   23.0704 N   0  0  0  0  0  0  0  0  0  0  0  0
    9.8003    3.6841   24.2191 N   0  0  0  0  0  0  0  0  0  0  0  0
    5.9993   -2.8100   25.0811 F   0  0  0  0  0  0  0  0  0  0  0  0
   15.6910   -2.7049   23.0863 H   0  0  0  0  0  0  0  0  0  0  0  0
  1  4  2  0  0  0  0
  1 11  1  0  0  0  0
  2  5  2  0  0  0  0
  2 10  1  0  0  0  0
  3  6  1  0  0  0  0
  3 10  2  0  0  0  0
  4 13  1  0  0  0  0
  5 14  1  0  0  0  0
  6 14  2  0  0  0  0
  7  9  1  0  0  0  0
  7 11  2  0  0  0  0
  8  9  2  0  0  0  0
  8 24  1  0  0  0  0
  9 13  1  0  0  0  0
 10 15  1  0  0  0  0
 11 12  1  0  0  0  0
 12 15  1  0  0  0  0
 12 16  2  0  0  0  0
 13 21  2  0  0  0  0
 14 26  1  0  0  0  0
 15 22  2  0  0  0  0
 16 17  1  0  0  0  0
 16 25  1  0  0  0  0
 17 18  2  0  0  0  0
 18 19  1  0  0  0  0
 19 20  1  0  0  0  0
 19 23  2  0  0  0  0
 21 24  1  0  0  0  0
 22 25  1  0  0  0  0
 23 25  1  0  0  0  0
 24 27  1  0  0  0  0
M  END

> <original SMILES>

Cc1ccc2c(-c3ccc4[nH]ncc4c3)c(-c3ccc(F)cc3)nn2n1

> <ref_mols>

x0395_0,x0426_0,x0434_0,x0540_0,x0678_0,x0830_0,x1093_0

> <ref_pdb>

receptors/Mpro-x0830-protein.pdb

> <Chemgauss4>

-7.07811

> <binding_free_energy>

-2.257293116093603

> <binding_std_error>

0.08272813212477566

$$$$
TRY-UNI-1fd04853-9
  -OEChem-05122002103D

 23 25  0     0  0  0  0  0  0999 V2000
    5.2301    1.2969   18.2343 C   0  0  0  0  0  0  0  0  0  0  0  0
    5.6709    1.1238   19.5451 C   0  0  0  0  0  0  0  0  0  0  0  0
   13.8950    0.9454   23.3332 C   0  0  0  0  0  0  0  0  0  0  0  0
   12.0473   -0.1445   24.4205 C   0  0  0  0  0  0  0  0  0  0  0  0
    6.0530    0.8878   17.1935 C   0  0  0  0  0  0  0  0  0  0  0  0
   13.1427    2.1089   23.3397 C   0  0  0  0  0  0  0  0  0  0  0  0
    8.9002   -0.3601   20.3879 C   0  0  0  0  0  0  0  0  0  0  0  0
    6.9332    0.5405   19.7407 C   0  0  0  0  0  0  0  0  0  0  0  0
    7.7320    0.1960   20.8631 C   0  0  0  0  0  0  0  0  0  0  0  0
   13.3296   -0.1983   23.8858 C   0  0  0  0  0  0  0  0  0  0  0  0
   11.3777    1.0678   24.3785 C   0  0  0  0  0  0  0  0  0  0  0  0
    7.6535    0.1770   18.6066 C   0  0  0  0  0  0  0  0  0  0  0  0
    8.3773    1.2579   23.0616 C   0  0  0  0  0  0  0  0  0  0  0  0
    7.3845    0.3938   22.2845 C   0  0  0  0  0  0  0  0  0  0  0  0
    9.9914    1.1625   24.9472 C   0  0  0  0  0  0  0  0  0  0  0  0
   11.8941    2.1999   23.8500 N   0  0  0  0  0  0  0  0  0  0  0  0
    7.2754    0.3216   17.3224 N   0  0  0  0  0  0  0  0  0  0  0  0
    8.8419   -0.3663   19.0183 N   0  0  0  0  0  0  0  0  0  0  0  0
    9.0087    0.5570   24.0793 N   0  0  0  0  0  0  0  0  0  0  0  0
    8.5768    2.4393   22.7910 O   0  0  0  0  0  0  0  0  0  0  0  0
   14.2134   -1.6739   23.9064 Cl  0  0  0  0  0  0  0  0  0  0  0  0
    9.5651   -0.7164   18.4054 H   0  0  0  0  0  0  0  0  0  0  0  0
    8.7703   -0.4204   24.2193 H   0  0  0  0  0  0  0  0  0  0  0  0
  1  2  2  0  0  0  0
  1  5  1  0  0  0  0
  2  8  1  0  0  0  0
  3  6  2  0  0  0  0
  3 10  1  0  0  0  0
  4 10  2  0  0  0  0
  4 11  1  0  0  0  0
  5 17  2  0  0  0  0
  6 16  1  0  0  0  0
  7  9  2  0  0  0  0
  7 18  1  0  0  0  0
  8  9  1  0  0  0  0
  8 12  2  0  0  0  0
  9 14  1  0  0  0  0
 10 21  1  0  0  0  0
 11 15  1  0  0  0  0
 11 16  2  0  0  0  0
 12 17  1  0  0  0  0
 12 18  1  0  0  0  0
 13 14  1  0  0  0  0
 13 19  1  0  0  0  0
 13 20  2  0  0  0  0
 15 19  1  0  0  0  0
 18 22  1  0  0  0  0
 19 23  1  0  0  0  0
M  END

> <original SMILES>

O=C(Cc1c[nH]c2ncccc12)NCc1cc(Cl)ccn1

> <ref_mols>

x0104_0,x0161_0,x0195_0,x0305_0,x0387_0,x0678_0,x1382_0

> <ref_pdb>

receptors/Mpro-x0678-protein.pdb

> <Chemgauss4>

-9.539196

> <binding_free_energy>

-2.1776641208857797

> <binding_std_error>

3.0661925708647018

$$$$
DAR-DIA-fc970077-12
  -OEChem-05122002103D

 19 21  0     0  0  0  0  0  0999 V2000
   14.1370   -1.1815   23.6687 C   0  0  0  0  0  0  0  0  0  0  0  0
   13.2044   -0.6811   24.5772 C   0  0  0  0  0  0  0  0  0  0  0  0
   13.7091   -1.7199   22.4552 C   0  0  0  0  0  0  0  0  0  0  0  0
    5.6580    1.1529   19.0588 C   0  0  0  0  0  0  0  0  0  0  0  0
   11.8438   -0.7192   24.2722 C   0  0  0  0  0  0  0  0  0  0  0  0
   12.3485   -1.7581   22.1502 C   0  0  0  0  0  0  0  0  0  0  0  0
    6.2214    0.6420   20.2228 C   0  0  0  0  0  0  0  0  0  0  0  0
    6.3567    0.9883   17.8737 C   0  0  0  0  0  0  0  0  0  0  0  0
    8.0674   -0.1214   18.9321 C   0  0  0  0  0  0  0  0  0  0  0  0
   11.4158   -1.2577   23.0587 C   0  0  0  0  0  0  0  0  0  0  0  0
    7.4490   -0.0087   20.1669 C   0  0  0  0  0  0  0  0  0  0  0  0
    9.1415   -1.9785   23.5347 C   0  0  0  0  0  0  0  0  0  0  0  0
    9.9771   -1.2983   22.7357 C   0  0  0  0  0  0  0  0  0  0  0  0
    9.4569   -0.6343   21.4885 C   0  0  0  0  0  0  0  0  0  0  0  0
    7.6747   -2.0519   23.2980 C   0  0  0  0  0  0  0  0  0  0  0  0
    7.1925   -0.8496   22.5032 C   0  0  0  0  0  0  0  0  0  0  0  0
    7.5511    0.3621   17.7800 N   0  0  0  0  0  0  0  0  0  0  0  0
    8.0594   -0.5494   21.3576 N   0  0  0  0  0  0  0  0  0  0  0  0
   10.2784   -0.1934   20.6829 O   0  0  0  0  0  0  0  0  0  0  0  0
  1  2  1  0  0  0  0
  1  3  2  0  0  0  0
  2  5  2  0  0  0  0
  3  6  1  0  0  0  0
  4  7  2  0  0  0  0
  4  8  1  0  0  0  0
  5 10  1  0  0  0  0
  6 10  2  0  0  0  0
  7 11  1  0  0  0  0
  8 17  2  0  0  0  0
  9 11  2  0  0  0  0
  9 17  1  0  0  0  0
 10 13  1  0  0  0  0
 11 18  1  0  0  0  0
 12 13  2  0  0  0  0
 12 15  1  0  0  0  0
 13 14  1  0  0  0  0
 14 18  1  0  0  0  0
 14 19  2  0  0  0  0
 15 16  1  0  0  0  0
 16 18  1  0  0  0  0
M  END

> <original SMILES>

O=C1C(c2ccccc2)C=CCN1c1cccnc1

> <ref_mols>

x0434_0

> <ref_pdb>

receptors/protein-0387.pdb

> <Chemgauss4>

-5.35490894317627

> <binding_free_energy>

-2.156775355257743

> <binding_std_error>

1.977346250480765

$$$$
WAR-XCH-b72a1bbc-39
  -OEChem-05122002103D

 22 23  0     0  0  0  0  0  0999 V2000
   12.9343    2.1353   22.8541 C   0  0  0  0  0  0  0  0  0  0  0  0
   11.4266    1.3839   24.5860 C   0  0  0  0  0  0  0  0  0  0  0  0
   12.2793    3.3663   22.8180 C   0  0  0  0  0  0  0  0  0  0  0  0
   10.7717    2.6149   24.5500 C   0  0  0  0  0  0  0  0  0  0  0  0
   12.5079    1.1440   23.7381 C   0  0  0  0  0  0  0  0  0  0  0  0
   11.1981    3.6061   23.6660 C   0  0  0  0  0  0  0  0  0  0  0  0
   12.2156   -2.0838   22.7301 C   0  0  0  0  0  0  0  0  0  0  0  0
   12.4046   -1.8786   25.2466 C   0  0  0  0  0  0  0  0  0  0  0  0
   13.2434   -0.9588   22.6024 C   0  0  0  0  0  0  0  0  0  0  0  0
   13.4265   -0.7534   25.0521 C   0  0  0  0  0  0  0  0  0  0  0  0
   12.3998   -2.8490   24.0525 C   0  0  0  0  0  0  0  0  0  0  0  0
    7.2033   -4.2867   24.4667 C   0  0  0  0  0  0  0  0  0  0  0  0
   11.3157   -3.9109   24.2204 C   0  0  0  0  0  0  0  0  0  0  0  0
    8.6795   -4.6336   24.4298 C   0  0  0  0  0  0  0  0  0  0  0  0
   13.1607   -0.0837   23.7744 N   0  0  0  0  0  0  0  0  0  0  0  0
    9.1765    4.8413   22.4443 N   0  0  0  0  0  0  0  0  0  0  0  0
    9.7302    5.3599   24.9081 O   0  0  0  0  0  0  0  0  0  0  0  0
   11.2986    6.1466   23.1000 O   0  0  0  0  0  0  0  0  0  0  0  0
    9.6778   -3.1406   24.2201 S   0  0  0  0  0  0  0  0  0  0  0  0
   10.3772    5.1464   23.6211 S   0  0  0  0  0  0  0  0  0  0  0  0
    8.2029    4.7547   22.7605 H   0  0  0  0  0  0  0  0  0  0  0  0
    9.2764    5.2908   21.5260 H   0  0  0  0  0  0  0  0  0  0  0  0
  1  3  2  0  0  0  0
  1  5  1  0  0  0  0
  2  4  1  0  0  0  0
  2  5  2  0  0  0  0
  3  6  1  0  0  0  0
  4  6  2  0  0  0  0
  5 15  1  0  0  0  0
  6 20  1  0  0  0  0
  7  9  1  0  0  0  0
  7 11  1  0  0  0  0
  8 10  1  0  0  0  0
  8 11  1  0  0  0  0
  9 15  1  0  0  0  0
 10 15  1  0  0  0  0
 11 13  1  0  0  0  0
 12 14  1  0  0  0  0
 13 19  1  0  0  0  0
 14 19  1  0  0  0  0
 16 20  1  0  0  0  0
 17 20  2  0  0  0  0
 18 20  2  0  0  0  0
 16 21  1  0  0  0  0
 16 22  1  0  0  0  0
M  END

> <original SMILES>

CCSCC1CCN(c2ccc(S(N)(=O)=O)cc2)CC1

> <ref_mols>

x0072_0,x0104_0,x0107_0,x0161_0,x0165_0

> <ref_pdb>

receptors/Mpro-x0161_0.pdb

> <Chemgauss4>

-8.662804

> <binding_free_energy>

-2.0749598688811197

> <binding_std_error>

1.6831472727272727

$$$$
LIZ-THE-7023c732-2
  -OEChem-05122002103D

 19 20  0     0  0  0  0  0  0999 V2000
    7.5268   -5.1783   24.1145 C   0  0  0  0  0  0  0  0  0  0  0  0
   11.5409   -0.3718   24.3013 C   0  0  0  0  0  0  0  0  0  0  0  0
   11.6846   -1.0207   23.0750 C   0  0  0  0  0  0  0  0  0  0  0  0
   10.2866    0.0852   24.7058 C   0  0  0  0  0  0  0  0  0  0  0  0
   10.5740   -1.2125   22.2531 C   0  0  0  0  0  0  0  0  0  0  0  0
    9.1760   -0.1066   23.8840 C   0  0  0  0  0  0  0  0  0  0  0  0
    7.8915   -3.0362   22.9779 C   0  0  0  0  0  0  0  0  0  0  0  0
    6.0527   -4.3955   22.3238 C   0  0  0  0  0  0  0  0  0  0  0  0
    7.1564   -4.2053   23.1397 C   0  0  0  0  0  0  0  0  0  0  0  0
    9.3197   -0.7555   22.6576 C   0  0  0  0  0  0  0  0  0  0  0  0
    7.5059   -2.1062   22.0189 C   0  0  0  0  0  0  0  0  0  0  0  0
    6.3868   -2.3905   21.2531 C   0  0  0  0  0  0  0  0  0  0  0  0
    6.3960    0.0812   18.4567 C   0  0  0  0  0  0  0  0  0  0  0  0
    6.8829   -0.4538   19.7603 C   0  0  0  0  0  0  0  0  0  0  0  0
    7.8281   -5.9699   24.9078 N   0  0  0  0  0  0  0  0  0  0  0  0
    5.6475   -3.5151   21.3813 N   0  0  0  0  0  0  0  0  0  0  0  0
    5.9933   -1.4426   20.2753 N   0  0  0  0  0  0  0  0  0  0  0  0
    8.2361   -0.9409   21.8553 O   0  0  0  0  0  0  0  0  0  0  0  0
    5.0479   -1.4956   19.9560 H   0  0  0  0  0  0  0  0  0  0  0  0
  1  9  1  0  0  0  0
  1 15  3  0  0  0  0
  2  3  1  0  0  0  0
  2  4  2  0  0  0  0
  3  5  2  0  0  0  0
  4  6  1  0  0  0  0
  5 10  1  0  0  0  0
  6 10  2  0  0  0  0
  7  9  2  0  0  0  0
  7 11  1  0  0  0  0
  8  9  1  0  0  0  0
  8 16  2  0  0  0  0
 10 18  1  0  0  0  0
 11 12  2  0  0  0  0
 11 18  1  0  0  0  0
 12 16  1  0  0  0  0
 12 17  1  0  0  0  0
 13 14  1  0  0  0  0
 14 17  1  0  0  0  0
 17 19  1  0  0  0  0
M  END

> <original SMILES>

CCNc1ncc(C#N)cc1Oc1ccccc1

> <ref_mols>

x0305_0

> <ref_pdb>

receptors/Mpro-x0305_0.pdb

> <Chemgauss4>

-5.272026

> <binding_free_energy>

-1.987031131313131

> <binding_std_error>

0.0

$$$$
LIZ-THE-7023c732-1
  -OEChem-05122002103D

 18 19  0     0  0  0  0  0  0999 V2000
    7.3720   -0.0755   19.2470 C   0  0  0  0  0  0  0  0  0  0  0  0
   11.6304   -0.0393   23.8421 C   0  0  0  0  0  0  0  0  0  0  0  0
   10.3828    0.2537   24.3928 C   0  0  0  0  0  0  0  0  0  0  0  0
   11.8048   -1.2001   23.0884 C   0  0  0  0  0  0  0  0  0  0  0  0
    9.3097   -0.6139   24.1899 C   0  0  0  0  0  0  0  0  0  0  0  0
   10.7317   -2.0677   22.8855 C   0  0  0  0  0  0  0  0  0  0  0  0
    7.9167   -1.3574   21.2652 C   0  0  0  0  0  0  0  0  0  0  0  0
    6.0450   -2.0086   19.9503 C   0  0  0  0  0  0  0  0  0  0  0  0
    7.1105   -1.1462   20.1522 C   0  0  0  0  0  0  0  0  0  0  0  0
    9.4841   -1.7747   23.4363 C   0  0  0  0  0  0  0  0  0  0  0  0
    7.6367   -2.4096   22.1300 C   0  0  0  0  0  0  0  0  0  0  0  0
    6.5475   -3.2152   21.8396 C   0  0  0  0  0  0  0  0  0  0  0  0
    5.1655   -5.1781   22.5199 C   0  0  0  0  0  0  0  0  0  0  0  0
    7.5848    0.7956   18.5104 N   0  0  0  0  0  0  0  0  0  0  0  0
    5.7416   -3.0413   20.7682 N   0  0  0  0  0  0  0  0  0  0  0  0
    6.2617   -4.2880   22.7209 N   0  0  0  0  0  0  0  0  0  0  0  0
    8.4377   -2.6224   23.2394 O   0  0  0  0  0  0  0  0  0  0  0  0
    6.8712   -4.3969   23.5054 H   0  0  0  0  0  0  0  0  0  0  0  0
  1  9  1  0  0  0  0
  1 14  3  0  0  0  0
  2  3  1  0  0  0  0
  2  4  2  0  0  0  0
  3  5  2  0  0  0  0
  4  6  1  0  0  0  0
  5 10  1  0  0  0  0
  6 10  2  0  0  0  0
  7  9  2  0  0  0  0
  7 11  1  0  0  0  0
  8  9  1  0  0  0  0
  8 15  2  0  0  0  0
 10 17  1  0  0  0  0
 11 12  2  0  0  0  0
 11 17  1  0  0  0  0
 12 15  1  0  0  0  0
 12 16  1  0  0  0  0
 13 16  1  0  0  0  0
 16 18  1  0  0  0  0
M  END

> <original SMILES>

CNc1ncc(C#N)cc1Oc1ccccc1

> <ref_mols>

x0305_0

> <ref_pdb>

receptors/Mpro-x0305_0.pdb

> <Chemgauss4>

-6.016492

> <binding_free_energy>

-1.9859052999999918

> <binding_std_error>

0.0

$$$$
NIR-THE-0d6461ce-4
  -OEChem-05122002103D

 27 29  0     0  0  0  0  0  0999 V2000
   10.2698   -2.4393   24.0774 C   0  0  0  0  0  0  0  0  0  0  0  0
    8.0597   -3.0735   23.2314 C   0  0  0  0  0  0  0  0  0  0  0  0
   11.4974   -1.8032   23.8910 C   0  0  0  0  0  0  0  0  0  0  0  0
    7.1084   -3.0626   22.2109 C   0  0  0  0  0  0  0  0  0  0  0  0
   10.8215   -1.1477   21.6682 C   0  0  0  0  0  0  0  0  0  0  0  0
    8.6113   -1.7818   20.8221 C   0  0  0  0  0  0  0  0  0  0  0  0
    9.3006   -2.4384   23.0611 C   0  0  0  0  0  0  0  0  0  0  0  0
    9.5805   -1.7828   21.8384 C   0  0  0  0  0  0  0  0  0  0  0  0
   11.7727   -1.1587   22.6887 C   0  0  0  0  0  0  0  0  0  0  0  0
    7.3837   -2.4179   21.0086 C   0  0  0  0  0  0  0  0  0  0  0  0
   10.5330    3.9838   24.5046 C   0  0  0  0  0  0  0  0  0  0  0  0
   12.7229    1.0897   24.4326 C   0  0  0  0  0  0  0  0  0  0  0  0
   12.0204    1.7748   22.1117 C   0  0  0  0  0  0  0  0  0  0  0  0
   12.5989    2.5472   24.8739 C   0  0  0  0  0  0  0  0  0  0  0  0
   11.9128    3.2176   22.5995 C   0  0  0  0  0  0  0  0  0  0  0  0
   13.0493    0.9854   22.9351 C   0  0  0  0  0  0  0  0  0  0  0  0
   13.0973   -0.4742   22.4898 C   0  0  0  0  0  0  0  0  0  0  0  0
    9.9103    3.5035   25.7912 C   0  0  0  0  0  0  0  0  0  0  0  0
   11.6311    3.2641   24.0351 N   0  0  0  0  0  0  0  0  0  0  0  0
    5.3267   -0.9807   20.1098 N   0  0  0  0  0  0  0  0  0  0  0  0
   10.0549    4.9677   23.9342 O   0  0  0  0  0  0  0  0  0  0  0  0
    6.8799   -2.2145   18.4634 O   0  0  0  0  0  0  0  0  0  0  0  0
    5.3094   -3.5492   19.9124 O   0  0  0  0  0  0  0  0  0  0  0  0
    6.1919   -2.4049   19.7326 S   0  0  0  0  0  0  0  0  0  0  0  0
    9.3435    1.8637   25.4952 Cl  0  0  0  0  0  0  0  0  0  0  0  0
    5.4472   -0.1665   19.4949 H   0  0  0  0  0  0  0  0  0  0  0  0
    4.3760   -1.0796   20.4860 H   0  0  0  0  0  0  0  0  0  0  0  0
  1  3  2  0  0  0  0
  1  7  1  0  0  0  0
  2  4  2  0  0  0  0
  2  7  1  0  0  0  0
  3  9  1  0  0  0  0
  4 10  1  0  0  0  0
  5  8  1  0  0  0  0
  5  9  2  0  0  0  0
  6  8  1  0  0  0  0
  6 10  2  0  0  0  0
  7  8  2  0  0  0  0
  9 17  1  0  0  0  0
 10 24  1  0  0  0  0
 11 18  1  0  0  0  0
 11 19  1  0  0  0  0
 11 21  2  0  0  0  0
 12 14  1  0  0  0  0
 12 16  1  0  0  0  0
 13 15  1  0  0  0  0
 13 16  1  0  0  0  0
 14 19  1  0  0  0  0
 15 19  1  0  0  0  0
 16 17  1  0  0  0  0
 18 25  1  0  0  0  0
 20 24  1  0  0  0  0
 22 24  2  0  0  0  0
 23 24  2  0  0  0  0
 20 26  1  0  0  0  0
 20 27  1  0  0  0  0
M  END

> <original SMILES>

NS(=O)(=O)c1ccc2ccc(CC3CCN(C(=O)CCl)CC3)cc2c1

> <ref_mols>

x0104_0,x0161_0,x0195_0,x0305_0,x0692_0,x0770_0,x0830_0,x1334_0

> <ref_pdb>

receptors/Mpro-x0305-protein.pdb

> <Chemgauss4>

-3.422574

> <binding_free_energy>

-1.8593614800000182

> <binding_std_error>

0.280384214988197

$$$$
MAK-UNK-acefcb18-13
  -OEChem-05122002103D

 11 11  0     0  0  0  0  0  0999 V2000
   12.8016   -1.5721   22.2367 C   0  0  0  0  0  0  0  0  0  0  0  0
   13.6335   -0.6532   22.8377 C   0  0  0  0  0  0  0  0  0  0  0  0
   11.2667   -0.0055   23.0064 C   0  0  0  0  0  0  0  0  0  0  0  0
   11.4305   -1.1969   22.3342 C   0  0  0  0  0  0  0  0  0  0  0  0
    6.4455   -1.0739   20.3734 C   0  0  0  0  0  0  0  0  0  0  0  0
    8.9852   -1.5060   21.9461 C   0  0  0  0  0  0  0  0  0  0  0  0
    8.6656   -0.4846   20.8699 C   0  0  0  0  0  0  0  0  0  0  0  0
   10.3985   -1.9309   21.8237 N   0  0  0  0  0  0  0  0  0  0  0  0
    7.2986   -0.1062   20.9691 O   0  0  0  0  0  0  0  0  0  0  0  0
   12.7619    0.6554   23.5161 S   0  0  0  0  0  0  0  0  0  0  0  0
   10.5599   -2.7906   21.3452 H   0  0  0  0  0  0  0  0  0  0  0  0
  1  2  2  0  0  0  0
  1  4  1  0  0  0  0
  2 10  1  0  0  0  0
  3  4  2  0  0  0  0
  3 10  1  0  0  0  0
  4  8  1  0  0  0  0
  5  9  1  0  0  0  0
  6  7  1  0  0  0  0
  6  8  1  0  0  0  0
  7  9  1  0  0  0  0
  8 11  1  0  0  0  0
M  END

> <original SMILES>

COCCNc1ccsc1

> <ref_mols>

x0387_0

> <ref_pdb>

receptors/Mpro-x0387_0.pdb

> <Chemgauss4>

-4.090714

> <binding_free_energy>

-1.8433941000000003

> <binding_std_error>

0.0

$$$$
MAK-UNK-6435e6c2-9
  -OEChem-05122002103D

 17 18  0     1  0  0  0  0  0999 V2000
   13.2899   -1.9410   22.4277 C   0  0  0  0  0  0  0  0  0  0  0  0
   12.0145   -1.7453   22.9575 C   0  0  0  0  0  0  0  0  0  0  0  0
   14.2465   -0.9301   22.5209 C   0  0  0  0  0  0  0  0  0  0  0  0
   11.6957   -0.5387   23.5804 C   0  0  0  0  0  0  0  0  0  0  0  0
   13.9277    0.2766   23.1438 C   0  0  0  0  0  0  0  0  0  0  0  0
   12.6523    0.4723   23.6735 C   0  0  0  0  0  0  0  0  0  0  0  0
   13.7583    3.3389   21.9978 C   0  0  0  0  0  0  0  0  0  0  0  0
   13.7551    4.7605   22.5429 C   0  0  0  0  0  0  0  0  0  0  0  0
   12.3682    2.7214   22.0126 C   0  0  0  0  0  0  0  0  0  0  0  0
   13.1214    4.8220   23.9315 C   0  0  2  0  0  0  0  0  0  0  0  0
   11.7169    4.2027   23.9806 C   0  0  1  0  0  0  0  0  0  0  0  0
   10.6326    5.0178   23.2707 C   0  0  0  0  0  0  0  0  0  0  0  0
   12.3099    1.7705   24.3432 C   0  0  0  0  0  0  0  0  0  0  0  0
   11.7489    2.7969   23.3908 N   0  3  2  0  0  0  0  0  0  0  0  0
   13.0902    6.1732   24.3832 O   0  0  0  0  0  0  0  0  0  0  0  0
   10.7292    2.5231   23.2691 H   0  0  0  0  0  0  0  0  0  0  0  0
   14.0108    6.4749   24.4095 H   0  0  0  0  0  0  0  0  0  0  0  0
  1  2  1  0  0  0  0
  1  3  2  0  0  0  0
  2  4  2  0  0  0  0
  3  5  1  0  0  0  0
  4  6  1  0  0  0  0
  5  6  2  0  0  0  0
  6 13  1  0  0  0  0
  7  8  1  0  0  0  0
  7  9  1  0  0  0  0
  8 10  1  0  0  0  0
  9 14  1  0  0  0  0
 10 11  1  0  0  0  0
 10 15  1  0  0  0  0
 11 12  1  0  0  0  0
 11 14  1  0  0  0  0
 13 14  1  0  0  0  0
 14 16  1  0  0  0  0
 15 17  1  0  0  0  0
M  CHG  1  14   1
M  END

> <original SMILES>

CC1C(O)CCCN1Cc1ccccc1

> <ref_mols>

x0689_0

> <ref_pdb>

receptors/Mpro-x0689_0.pdb

> <Chemgauss4>

-2.075905

> <binding_free_energy>

-1.8214694671717027

> <binding_std_error>

0.15076025000001536

$$$$
DAR-DIA-fc970077-1
  -OEChem-05122002103D

 18 20  0     0  0  0  0  0  0999 V2000
   14.2103   -1.0735   24.0765 C   0  0  0  0  0  0  0  0  0  0  0  0
   13.5908   -1.9864   23.2230 C   0  0  0  0  0  0  0  0  0  0  0  0
   13.5334    0.0792   24.4749 C   0  0  0  0  0  0  0  0  0  0  0  0
    5.6478    0.6097   19.1221 C   0  0  0  0  0  0  0  0  0  0  0  0
   12.2943   -1.7465   22.7678 C   0  0  0  0  0  0  0  0  0  0  0  0
   12.2369    0.3190   24.0197 C   0  0  0  0  0  0  0  0  0  0  0  0
    6.3936    0.4210   20.2804 C   0  0  0  0  0  0  0  0  0  0  0  0
    6.3146    0.5721   17.9081 C   0  0  0  0  0  0  0  0  0  0  0  0
    8.3360    0.1839   18.9286 C   0  0  0  0  0  0  0  0  0  0  0  0
   11.6173   -0.5938   23.1662 C   0  0  0  0  0  0  0  0  0  0  0  0
    7.7640    0.2035   20.1905 C   0  0  0  0  0  0  0  0  0  0  0  0
    9.9432   -0.2177   21.3450 C   0  0  0  0  0  0  0  0  0  0  0  0
    9.1795   -0.2234   23.5879 C   0  0  0  0  0  0  0  0  0  0  0  0
    7.9977    0.0291   22.6748 C   0  0  0  0  0  0  0  0  0  0  0  0
    7.6442    0.3633   17.7810 N   0  0  0  0  0  0  0  0  0  0  0  0
   10.3204   -0.3542   22.7108 N   0  0  0  0  0  0  0  0  0  0  0  0
    8.5349    0.0121   21.3299 N   0  0  0  0  0  0  0  0  0  0  0  0
   10.6826   -0.2840   20.3697 O   0  0  0  0  0  0  0  0  0  0  0  0
  1  2  1  0  0  0  0
  1  3  2  0  0  0  0
  2  5  2  0  0  0  0
  3  6  1  0  0  0  0
  4  7  2  0  0  0  0
  4  8  1  0  0  0  0
  5 10  1  0  0  0  0
  6 10  2  0  0  0  0
  7 11  1  0  0  0  0
  8 15  2  0  0  0  0
  9 11  2  0  0  0  0
  9 15  1  0  0  0  0
 10 16  1  0  0  0  0
 11 17  1  0  0  0  0
 12 16  1  0  0  0  0
 12 17  1  0  0  0  0
 12 18  2  0  0  0  0
 13 14  1  0  0  0  0
 13 16  1  0  0  0  0
 14 17  1  0  0  0  0
M  END

> <original SMILES>

O=C1N(c2ccccc2)CCN1c1cccnc1

> <ref_mols>

x0434_0

> <ref_pdb>

receptors/protein-0387.pdb

> <Chemgauss4>

-4.62701082229614

> <binding_free_energy>

-1.8163526207920668

> <binding_std_error>

0.1326064322881627

$$$$
BEN-VAN-d8fd1356-19
  -OEChem-05122002103D

 23 25  0     0  0  0  0  0  0999 V2000
    4.7336    0.7612   19.6598 C   0  0  0  0  0  0  0  0  0  0  0  0
   10.6172   -1.6746   22.7665 C   0  0  0  0  0  0  0  0  0  0  0  0
    7.1027    0.8750   19.2611 C   0  0  0  0  0  0  0  0  0  0  0  0
    8.6359   -0.7761   21.6875 C   0  0  0  0  0  0  0  0  0  0  0  0
    4.9877    1.1653   20.9606 C   0  0  0  0  0  0  0  0  0  0  0  0
   12.4954    1.4609   22.7984 C   0  0  0  0  0  0  0  0  0  0  0  0
   11.2161   -0.4005   22.7087 C   0  0  0  0  0  0  0  0  0  0  0  0
    5.8168    0.6157   18.8002 C   0  0  0  0  0  0  0  0  0  0  0  0
   12.4731    0.1237   23.1213 C   0  0  0  0  0  0  0  0  0  0  0  0
   10.5000    0.6536   22.1376 C   0  0  0  0  0  0  0  0  0  0  0  0
    9.2096    0.4967   21.6192 C   0  0  0  0  0  0  0  0  0  0  0  0
    9.3270   -1.8464   22.2519 C   0  0  0  0  0  0  0  0  0  0  0  0
    7.2507    1.2741   20.5797 C   0  0  0  0  0  0  0  0  0  0  0  0
    5.6004    0.1835   17.3899 C   0  0  0  0  0  0  0  0  0  0  0  0
   13.5642   -0.6232   23.7786 C   0  0  0  0  0  0  0  0  0  0  0  0
    6.2228    1.4264   21.4444 N   0  0  0  0  0  0  0  0  0  0  0  0
   11.3009    1.7713   22.2057 N   0  0  0  0  0  0  0  0  0  0  0  0
    8.5193    1.5361   21.0624 O   0  0  0  0  0  0  0  0  0  0  0  0
    8.7504   -3.0551   22.3035 F   0  0  0  0  0  0  0  0  0  0  0  0
   14.6701    0.1354   24.0679 F   0  0  0  0  0  0  0  0  0  0  0  0
   13.2140   -1.1893   24.9782 F   0  0  0  0  0  0  0  0  0  0  0  0
   14.0381   -1.6636   23.0225 F   0  0  0  0  0  0  0  0  0  0  0  0
   11.0434    2.6879   21.8669 H   0  0  0  0  0  0  0  0  0  0  0  0
  1  5  2  0  0  0  0
  1  8  1  0  0  0  0
  2  7  2  0  0  0  0
  2 12  1  0  0  0  0
  3  8  2  0  0  0  0
  3 13  1  0  0  0  0
  4 11  1  0  0  0  0
  4 12  2  0  0  0  0
  5 16  1  0  0  0  0
  6  9  2  0  0  0  0
  6 17  1  0  0  0  0
  7  9  1  0  0  0  0
  7 10  1  0  0  0  0
  8 14  1  0  0  0  0
  9 15  1  0  0  0  0
 10 11  2  0  0  0  0
 10 17  1  0  0  0  0
 11 18  1  0  0  0  0
 12 19  1  0  0  0  0
 13 16  2  0  0  0  0
 13 18  1  0  0  0  0
 15 20  1  0  0  0  0
 15 21  1  0  0  0  0
 15 22  1  0  0  0  0
 17 23  1  0  0  0  0
M  END

> <original SMILES>

Cc1ccnc(Oc2cc(F)cc3c(C(F)(F)F)c[nH]c23)c1

> <ref_mols>

x0104_0,x0107_0,x0946_0,x0995_0

> <ref_pdb>

receptors/Mpro-x0946-protein.pdb

> <Chemgauss4>

-7.495101

> <binding_free_energy>

-1.755971964835183

> <binding_std_error>

5.298157980872623

$$$$
DAN-PUR-19f24f0c-2
  -OEChem-05122002103D

 17 17  0     0  0  0  0  0  0999 V2000
    7.5866   -4.6613   24.9646 C   0  0  0  0  0  0  0  0  0  0  0  0
    9.8270   -5.3950   24.6501 C   0  0  0  0  0  0  0  0  0  0  0  0
    8.3699   -5.4867   22.8762 C   0  0  0  0  0  0  0  0  0  0  0  0
    8.8560   -4.8745   25.4904 C   0  0  0  0  0  0  0  0  0  0  0  0
    7.3306   -4.9707   23.6335 C   0  0  0  0  0  0  0  0  0  0  0  0
    5.9016   -3.8823   21.9583 C   0  0  0  0  0  0  0  0  0  0  0  0
    4.9190   -5.4431   23.6208 C   0  0  0  0  0  0  0  0  0  0  0  0
    6.8704   -2.7217   21.9507 C   0  0  0  0  0  0  0  0  0  0  0  0
    3.7869   -5.7285   22.6554 C   0  0  0  0  0  0  0  0  0  0  0  0
    9.6159   -5.7077   23.3519 N   0  0  0  0  0  0  0  0  0  0  0  0
    9.1446   -4.5721   26.8312 N   0  0  0  0  0  0  0  0  0  0  0  0
    6.0184   -4.7600   23.0564 N   0  0  0  0  0  0  0  0  0  0  0  0
    5.0577   -3.9804   21.0648 O   0  0  0  0  0  0  0  0  0  0  0  0
    4.8398   -5.7656   24.8084 O   0  0  0  0  0  0  0  0  0  0  0  0
    3.0069   -7.2471   23.1412 Cl  0  0  0  0  0  0  0  0  0  0  0  0
    8.4378   -4.1528   27.4060 H   0  0  0  0  0  0  0  0  0  0  0  0
   10.0797   -4.6906   27.1737 H   0  0  0  0  0  0  0  0  0  0  0  0
  1  4  1  0  0  0  0
  1  5  2  0  0  0  0
  2  4  2  0  0  0  0
  2 10  1  0  0  0  0
  3  5  1  0  0  0  0
  3 10  2  0  0  0  0
  4 11  1  0  0  0  0
  5 12  1  0  0  0  0
  6  8  1  0  0  0  0
  6 12  1  0  0  0  0
  6 13  2  0  0  0  0
  7  9  1  0  0  0  0
  7 12  1  0  0  0  0
  7 14  2  0  0  0  0
  9 15  1  0  0  0  0
 11 16  1  0  0  0  0
 11 17  1  0  0  0  0
M  END

> <original SMILES>

CC(=O)N(C(=O)CCl)c1cncc(N)c1

> <ref_mols>

x0107_0,x0995_0,x1093_0

> <ref_pdb>

receptors/Mpro-x1093-protein.pdb

> <Chemgauss4>

-5.418193

> <binding_free_energy>

-1.749316812315442

> <binding_std_error>

2.172686514593372

$$$$
AMD-UAU-3d234461-2
  -OEChem-05122002103D

 19 20  0     0  0  0  0  0  0999 V2000
   11.3355    1.7341   23.9100 C   0  0  0  0  0  0  0  0  0  0  0  0
   11.8293   -0.6546   23.6808 C   0  0  0  0  0  0  0  0  0  0  0  0
   11.6843    3.0664   23.6864 C   0  0  0  0  0  0  0  0  0  0  0  0
   12.6649   -1.6774   23.2312 C   0  0  0  0  0  0  0  0  0  0  0  0
   13.6998    2.3519   22.5663 C   0  0  0  0  0  0  0  0  0  0  0  0
   14.1936   -0.0369   22.3370 C   0  0  0  0  0  0  0  0  0  0  0  0
   12.1646    0.6919   23.4645 C   0  0  0  0  0  0  0  0  0  0  0  0
   13.3645    1.0054   22.7826 C   0  0  0  0  0  0  0  0  0  0  0  0
   12.8642    3.3746   23.0159 C   0  0  0  0  0  0  0  0  0  0  0  0
   13.8448   -1.3691   22.5606 C   0  0  0  0  0  0  0  0  0  0  0  0
   13.2249    4.7643   22.7827 C   0  0  0  0  0  0  0  0  0  0  0  0
   15.0121    6.3263   22.4123 N   0  0  0  0  0  0  0  0  0  0  0  0
   14.5908    5.0327   22.6607 N   0  0  0  0  0  0  0  0  0  0  0  0
   12.3806    5.6678   22.6719 O   0  0  0  0  0  0  0  0  0  0  0  0
   14.6595   -2.3677   22.1227 O   0  0  0  0  0  0  0  0  0  0  0  0
   15.8465    6.2577   21.8311 H   0  0  0  0  0  0  0  0  0  0  0  0
   14.2987    6.7612   21.8288 H   0  0  0  0  0  0  0  0  0  0  0  0
   15.2687    4.2840   22.7537 H   0  0  0  0  0  0  0  0  0  0  0  0
   15.4374   -1.9960   21.6771 H   0  0  0  0  0  0  0  0  0  0  0  0
  1  3  2  0  0  0  0
  1  7  1  0  0  0  0
  2  4  2  0  0  0  0
  2  7  1  0  0  0  0
  3  9  1  0  0  0  0
  4 10  1  0  0  0  0
  5  8  1  0  0  0  0
  5  9  2  0  0  0  0
  6  8  1  0  0  0  0
  6 10  2  0  0  0  0
  7  8  2  0  0  0  0
  9 11  1  0  0  0  0
 10 15  1  0  0  0  0
 11 13  1  0  0  0  0
 11 14  2  0  0  0  0
 12 13  1  0  0  0  0
 12 16  1  0  0  0  0
 12 17  1  0  0  0  0
 13 18  1  0  0  0  0
 15 19  1  0  0  0  0
M  END

> <original SMILES>

NNC(=O)c1ccc2ccc(O)cc2c1

> <ref_mols>

x0072_0,x0387_0

> <ref_pdb>

receptors/protein-0387.pdb

> <Chemgauss4>

-6.04354906082153

> <binding_free_energy>

-1.733323695959598

> <binding_std_error>

7.792848369426315

$$$$
JOH-UNI-abdb2f0c-4
  -OEChem-05122002103D

 20 22  0     1  0  0  0  0  0999 V2000
    6.3811   -3.4835   20.9986 C   0  0  0  0  0  0  0  0  0  0  0  0
    9.2430   -3.4009   23.3659 C   0  0  0  0  0  0  0  0  0  0  0  0
    7.6995   -7.4097   22.8542 C   0  0  0  0  0  0  0  0  0  0  0  0
    8.8340   -1.2840   22.3619 C   0  0  0  0  0  0  0  0  0  0  0  0
    6.4912   -6.9082   23.2701 C   0  0  0  0  0  0  0  0  0  0  0  0
    7.4913   -3.0596   21.7939 C   0  0  0  0  0  0  0  0  0  0  0  0
    8.1782   -3.9184   22.6368 C   0  0  0  0  0  0  0  0  0  0  0  0
    9.5836   -2.0595   23.2315 C   0  0  0  0  0  0  0  0  0  0  0  0
    7.8282   -5.3118   22.7799 C   0  0  0  0  0  0  0  0  0  0  0  0
   12.2523   -2.9290   25.1658 C   0  0  0  0  0  0  0  0  0  0  0  0
   11.0152   -2.0384   25.2683 C   0  0  0  0  0  0  0  0  0  0  0  0
   11.3615   -0.3463   23.4147 C   0  0  0  0  0  0  0  0  0  0  0  0
   13.5546   -2.1534   24.9905 C   0  0  0  0  0  0  0  0  0  0  0  0
   12.7537   -0.1417   24.0031 C   0  0  0  0  0  0  0  0  0  0  0  0
    5.4802   -3.8274   20.3530 N   0  0  0  0  0  0  0  0  0  0  0  0
    7.7928   -1.7511   21.6370 N   0  0  0  0  0  0  0  0  0  0  0  0
    8.5520   -6.3820   22.5411 N   0  0  0  0  0  0  0  0  0  0  0  0
   10.6492   -1.5104   23.9528 N   0  0  3  0  0  0  0  0  0  0  0  0
    6.5640   -5.5486   23.2257 O   0  0  0  0  0  0  0  0  0  0  0  0
   13.5555   -1.3086   23.8439 O   0  0  0  0  0  0  0  0  0  0  0  0
  1  6  1  0  0  0  0
  1 15  3  0  0  0  0
  2  7  1  0  0  0  0
  2  8  2  0  0  0  0
  3  5  2  0  0  0  0
  3 17  1  0  0  0  0
  4  8  1  0  0  0  0
  4 16  2  0  0  0  0
  5 19  1  0  0  0  0
  6  7  2  0  0  0  0
  6 16  1  0  0  0  0
  7  9  1  0  0  0  0
  8 18  1  0  0  0  0
  9 17  2  0  0  0  0
  9 19  1  0  0  0  0
 10 11  1  0  0  0  0
 10 13  1  0  0  0  0
 11 18  1  0  0  0  0
 12 14  1  0  0  0  0
 12 18  1  0  0  0  0
 13 20  1  0  0  0  0
 14 20  1  0  0  0  0
M  END

> <original SMILES>

N#Cc1ncc(N2CCCOCC2)cc1-c1ncco1

> <ref_mols>

x0434_0,x1077_0

> <ref_pdb>

receptors/Mpro-x1077-protein.pdb

> <Chemgauss4>

-6.36928

> <binding_free_energy>

-1.6762320425485626

> <binding_std_error>

0.11991725875296877

$$$$
JOH-MSK-ec639444-1
  -OEChem-05122002103D

 21 22  0     1  0  0  0  0  0999 V2000
   10.7809    2.2362   24.6528 C   0  0  0  0  0  0  0  0  0  0  0  0
   12.5929    0.9297   22.9144 C   0  0  0  0  0  0  0  0  0  0  0  0
   12.9301    4.5335   22.7917 C   0  0  0  0  0  0  0  0  0  0  0  0
   11.6737    2.9941   23.8692 C   0  0  0  0  0  0  0  0  0  0  0  0
   11.9203    4.3870   23.7145 C   0  0  0  0  0  0  0  0  0  0  0  0
   12.5573    2.3247   23.0198 C   0  0  0  0  0  0  0  0  0  0  0  0
   10.8052    0.8401   24.5578 C   0  0  0  0  0  0  0  0  0  0  0  0
   11.6981    0.1989   23.7013 C   0  0  0  0  0  0  0  0  0  0  0  0
    8.1686    5.5476   22.9826 C   0  0  0  0  0  0  0  0  0  0  0  0
    7.3445    4.8038   21.9848 C   0  0  0  0  0  0  0  0  0  0  0  0
   12.1761    6.3047   25.3193 C   0  0  0  0  0  0  0  0  0  0  0  0
    8.6584   -0.1636   24.7569 C   0  0  0  0  0  0  0  0  0  0  0  0
   10.4569    6.4153   23.4224 C   0  0  0  0  0  0  0  0  0  0  0  0
   11.2220    5.4861   24.4118 C   0  0  1  0  0  0  0  0  0  0  0  0
   13.3076    3.2841   22.3782 N   0  0  0  0  0  0  0  0  0  0  0  0
    9.4767    5.7148   22.5975 N   0  0  0  0  0  0  0  0  0  0  0  0
    7.6508    5.9395   24.0219 O   0  0  0  0  0  0  0  0  0  0  0  0
    9.9319    0.1261   25.3267 O   0  0  0  0  0  0  0  0  0  0  0  0
   11.7247   -1.5253   23.5876 Cl  0  0  0  0  0  0  0  0  0  0  0  0
   14.0308    3.0925   21.6987 H   0  0  0  0  0  0  0  0  0  0  0  0
    9.7718    5.3385   21.7092 H   0  0  0  0  0  0  0  0  0  0  0  0
  1  4  2  0  0  0  0
  1  7  1  0  0  0  0
  2  6  2  0  0  0  0
  2  8  1  0  0  0  0
  3  5  2  0  0  0  0
  3 15  1  0  0  0  0
  4  5  1  0  0  0  0
  4  6  1  0  0  0  0
  5 14  1  0  0  0  0
  6 15  1  0  0  0  0
  7  8  2  0  0  0  0
  7 18  1  0  0  0  0
  8 19  1  0  0  0  0
  9 10  1  0  0  0  0
  9 16  1  0  0  0  0
  9 17  2  0  0  0  0
 11 14  1  0  0  0  0
 12 18  1  0  0  0  0
 13 14  1  0  0  0  0
 13 16  1  0  0  0  0
 15 20  1  0  0  0  0
 16 21  1  0  0  0  0
M  END

> <original SMILES>

COc1cc2c([C@@H](C)CNC(C)=O)c[nH]c2cc1Cl

> <ref_mols>

x0104_0

> <ref_pdb>

receptors/Mpro-x0104_0.pdb

> <Chemgauss4>

-7.706601

> <binding_free_energy>

-1.6229514999999992

> <binding_std_error>

0.08110480000000209

$$$$
NIR-THE-99f25457-2
  -OEChem-05122002103D

 24 26  0     1  0  0  0  0  0999 V2000
   11.5085   -0.6920   25.8692 C   0  0  0  0  0  0  0  0  0  0  0  0
   12.8197   -0.3891   26.1635 C   0  0  0  0  0  0  0  0  0  0  0  0
   12.6349   -2.3169   24.6473 C   0  0  0  0  0  0  0  0  0  0  0  0
   11.4013   -1.8088   24.9910 C   0  0  0  0  0  0  0  0  0  0  0  0
    9.0913   -1.2341   22.4819 C   0  0  0  0  0  0  0  0  0  0  0  0
    5.4859   -3.6404   22.7109 C   0  0  0  0  0  0  0  0  0  0  0  0
    7.7699   -6.4656   22.9247 C   0  0  0  0  0  0  0  0  0  0  0  0
    8.8492   -5.8987   23.8461 C   0  0  0  0  0  0  0  0  0  0  0  0
    9.8489   -3.8284   24.9131 C   0  0  0  0  0  0  0  0  0  0  0  0
    9.2997   -3.7175   22.5851 C   0  0  0  0  0  0  0  0  0  0  0  0
    6.3859   -5.9430   23.2961 C   0  0  0  0  0  0  0  0  0  0  0  0
    7.3854   -3.9027   24.2771 C   0  0  0  0  0  0  0  0  0  0  0  0
   10.0855   -2.3690   24.4944 C   0  0  2  0  0  0  0  0  0  0  0  0
    9.9432   -2.3727   22.9589 C   0  0  2  0  0  0  0  0  0  0  0  0
    8.8155   -4.3585   23.9048 C   0  0  1  0  0  0  0  0  0  0  0  0
    5.1497   -2.3357   23.3879 C   0  0  0  0  0  0  0  0  0  0  0  0
    6.3806   -4.4787   23.3772 N   0  0  0  0  0  0  0  0  0  0  0  0
    8.8631   -1.2423   21.1261 N   0  0  0  0  0  0  0  0  0  0  0  0
    8.6356   -0.3924   23.2522 O   0  0  0  0  0  0  0  0  0  0  0  0
    4.9647   -3.9065   21.6248 O   0  0  0  0  0  0  0  0  0  0  0  0
   13.9148   -1.4488   25.3824 S   0  0  0  0  0  0  0  0  0  0  0  0
    4.3990   -2.7452   24.9264 Cl  0  0  0  0  0  0  0  0  0  0  0  0
    9.2697   -1.9860   20.5684 H   0  0  0  0  0  0  0  0  0  0  0  0
    8.3042   -0.5344   20.6609 H   0  0  0  0  0  0  0  0  0  0  0  0
  1  2  2  0  0  0  0
  1  4  1  0  0  0  0
  2 21  1  0  0  0  0
  3  4  2  0  0  0  0
  3 21  1  0  0  0  0
  4 13  1  0  0  0  0
  5 14  1  0  0  0  0
  5 18  1  0  0  0  0
  5 19  2  0  0  0  0
  6 16  1  0  0  0  0
  6 17  1  0  0  0  0
  6 20  2  0  0  0  0
  7  8  1  0  0  0  0
  7 11  1  0  0  0  0
  8 15  1  0  0  0  0
  9 13  1  0  0  0  0
  9 15  1  0  0  0  0
 10 14  1  0  0  0  0
 10 15  1  0  0  0  0
 11 17  1  0  0  0  0
 12 15  1  0  0  0  0
 12 17  1  0  0  0  0
 13 14  1  0  0  0  0
 16 22  1  0  0  0  0
 18 23  1  0  0  0  0
 18 24  1  0  0  0  0
M  END

> <original SMILES>

NC(=O)C1CC2(CCCN(C(=O)CCl)C2)CC1c1ccsc1

> <ref_mols>

x0748_0,x0759_0,x0820_0,x0874_0,x1478_0

> <ref_pdb>

receptors/Mpro-x0820-protein.pdb

> <Chemgauss4>

-2.761955

> <binding_free_energy>

-1.6006438156828935

> <binding_std_error>

0.09899556758982533

$$$$
GIA-UNK-995df016-16
  -OEChem-05122002103D

 20 21  0     0  0  0  0  0  0999 V2000
   11.6419   -1.0806   23.0889 C   0  0  0  0  0  0  0  0  0  0  0  0
   13.7966   -1.6405   24.0274 C   0  0  0  0  0  0  0  0  0  0  0  0
   11.1243   -2.2883   23.5568 C   0  0  0  0  0  0  0  0  0  0  0  0
   13.2790   -2.8483   24.4953 C   0  0  0  0  0  0  0  0  0  0  0  0
   12.9781   -0.7567   23.3241 C   0  0  0  0  0  0  0  0  0  0  0  0
   11.9428   -3.1722   24.2600 C   0  0  0  0  0  0  0  0  0  0  0  0
   13.5190    0.5061   22.8350 C   0  0  0  0  0  0  0  0  0  0  0  0
   11.1478    4.6717   24.5982 C   0  0  0  0  0  0  0  0  0  0  0  0
   10.8654    2.1955   24.5597 C   0  0  0  0  0  0  0  0  0  0  0  0
   11.4621    3.4777   22.4433 C   0  0  0  0  0  0  0  0  0  0  0  0
   12.3180    1.7244   24.6362 C   0  0  0  0  0  0  0  0  0  0  0  0
   12.8970    2.9761   22.5980 C   0  0  0  0  0  0  0  0  0  0  0  0
   10.6903    3.4874   23.7626 C   0  0  0  0  0  0  0  0  0  0  0  0
    9.4257    6.3256   23.2489 C   0  0  0  0  0  0  0  0  0  0  0  0
   12.9215    1.6900   23.3045 N   0  0  0  0  0  0  0  0  0  0  0  0
   14.4635    0.5095   22.0435 O   0  0  0  0  0  0  0  0  0  0  0  0
   12.2973    4.8007   25.0017 O   0  0  0  0  0  0  0  0  0  0  0  0
   11.4457   -4.3319   24.7095 F   0  0  0  0  0  0  0  0  0  0  0  0
    8.6286    5.3721   22.6970 F   0  0  0  0  0  0  0  0  0  0  0  0
    9.8705    5.8414   24.9292 S   0  0  0  0  0  0  0  0  0  0  0  0
  1  3  2  0  0  0  0
  1  5  1  0  0  0  0
  2  4  1  0  0  0  0
  2  5  2  0  0  0  0
  3  6  1  0  0  0  0
  4  6  2  0  0  0  0
  5  7  1  0  0  0  0
  6 18  1  0  0  0  0
  7 15  1  0  0  0  0
  7 16  2  0  0  0  0
  8 13  1  0  0  0  0
  8 17  2  0  0  0  0
  8 20  1  0  0  0  0
  9 11  1  0  0  0  0
  9 13  1  0  0  0  0
 10 12  1  0  0  0  0
 10 13  1  0  0  0  0
 11 15  1  0  0  0  0
 12 15  1  0  0  0  0
 14 19  1  0  0  0  0
 14 20  1  0  0  0  0
M  END

> <original SMILES>

O=C(SCF)C1CCN(C(=O)c2ccc(F)cc2)CC1

> <ref_mols>

x1334_0

> <ref_pdb>

receptors/protein-0387.pdb

> <Chemgauss4>

-5.55122423171997

> <binding_free_energy>

-1.5674716914285654

> <binding_std_error>

0.16682657745590473

$$$$
MAT-GIT-deadff56-2
  -OEChem-05122002103D

 20 21  0     0  0  0  0  0  0999 V2000
    6.5626   -4.6559   21.4375 C   0  0  0  0  0  0  0  0  0  0  0  0
    7.8230   -5.8708   23.1135 C   0  0  0  0  0  0  0  0  0  0  0  0
    8.8836   -6.0005   24.0147 C   0  0  0  0  0  0  0  0  0  0  0  0
   11.4891   -3.5698   24.6624 C   0  0  0  0  0  0  0  0  0  0  0  0
    7.6731   -4.7209   22.3409 C   0  0  0  0  0  0  0  0  0  0  0  0
    9.6601   -3.7706   23.3494 C   0  0  0  0  0  0  0  0  0  0  0  0
   10.7421   -2.9187   23.7079 C   0  0  0  0  0  0  0  0  0  0  0  0
    9.7853   -4.9347   24.1107 C   0  0  0  0  0  0  0  0  0  0  0  0
    8.5830   -3.6627   22.4474 C   0  0  0  0  0  0  0  0  0  0  0  0
   12.7541   -0.5360   25.5352 C   0  0  0  0  0  0  0  0  0  0  0  0
   13.5082   -0.7821   26.7997 C   0  0  0  0  0  0  0  0  0  0  0  0
   11.0595   -1.5721   23.1874 C   0  0  0  0  0  0  0  0  0  0  0  0
   12.5641   -1.2495   23.1609 C   0  0  0  0  0  0  0  0  0  0  0  0
    5.6634   -4.6033   20.7058 N   0  0  0  0  0  0  0  0  0  0  0  0
   10.9044   -4.7850   24.8985 N   0  0  0  0  0  0  0  0  0  0  0  0
   13.1579   -1.3233   24.4688 N   0  0  0  0  0  0  0  0  0  0  0  0
   11.8642    0.3063   25.5166 O   0  0  0  0  0  0  0  0  0  0  0  0
    8.4612   -2.2209   21.5304 Cl  0  0  0  0  0  0  0  0  0  0  0  0
   11.2442   -5.4733   25.5560 H   0  0  0  0  0  0  0  0  0  0  0  0
   13.9145   -1.9889   24.6190 H   0  0  0  0  0  0  0  0  0  0  0  0
  1  5  1  0  0  0  0
  1 14  3  0  0  0  0
  2  3  2  0  0  0  0
  2  5  1  0  0  0  0
  3  8  1  0  0  0  0
  4  7  2  0  0  0  0
  4 15  1  0  0  0  0
  5  9  2  0  0  0  0
  6  7  1  0  0  0  0
  6  8  2  0  0  0  0
  6  9  1  0  0  0  0
  7 12  1  0  0  0  0
  8 15  1  0  0  0  0
  9 18  1  0  0  0  0
 10 11  1  0  0  0  0
 10 16  1  0  0  0  0
 10 17  2  0  0  0  0
 12 13  1  0  0  0  0
 13 16  1  0  0  0  0
 15 19  1  0  0  0  0
 16 20  1  0  0  0  0
M  END

> <original SMILES>

CC(=O)NCCc1c[nH]c2ccc(C#N)c(Cl)c12

> <ref_mols>

x0104_0,x0434_0,x0678_0

> <ref_pdb>

receptors/Mpro-x0104-protein.pdb

> <Chemgauss4>

-8.630352

> <binding_free_energy>

-1.5481784208080835

> <binding_std_error>

0.3046649735740074

$$$$
NIM-UNI-36e12f95-3
  -OEChem-05122002103D

 21 23  0     0  0  0  0  0  0999 V2000
    4.6931    0.4475   19.3236 C   0  0  0  0  0  0  0  0  0  0  0  0
   10.1492   -0.7113   22.8177 C   0  0  0  0  0  0  0  0  0  0  0  0
    5.1501   -0.3224   20.3874 C   0  0  0  0  0  0  0  0  0  0  0  0
   10.2651   -1.7669   23.7396 C   0  0  0  0  0  0  0  0  0  0  0  0
    5.4759    0.5058   18.1818 C   0  0  0  0  0  0  0  0  0  0  0  0
    7.0671   -0.8779   19.0940 C   0  0  0  0  0  0  0  0  0  0  0  0
    9.0450   -0.6146   21.9596 C   0  0  0  0  0  0  0  0  0  0  0  0
    6.3589   -1.0008   20.2786 C   0  0  0  0  0  0  0  0  0  0  0  0
    8.0777   -1.6012   22.0265 C   0  0  0  0  0  0  0  0  0  0  0  0
    8.1954   -2.6195   22.9759 C   0  0  0  0  0  0  0  0  0  0  0  0
    9.2705   -2.7385   23.8333 C   0  0  0  0  0  0  0  0  0  0  0  0
    6.1887   -2.9348   21.9153 C   0  0  0  0  0  0  0  0  0  0  0  0
    8.9732    0.4992   21.0272 C   0  0  0  0  0  0  0  0  0  0  0  0
    8.2928    1.7527   21.4955 C   0  0  0  0  0  0  0  0  0  0  0  0
    6.6554   -0.1394   18.0391 N   0  0  0  0  0  0  0  0  0  0  0  0
    7.0642   -3.4278   22.9183 N   0  0  0  0  0  0  0  0  0  0  0  0
    6.8505   -1.7925   21.3451 N   0  0  0  0  0  0  0  0  0  0  0  0
    5.1163   -3.4378   21.6084 O   0  0  0  0  0  0  0  0  0  0  0  0
    9.4244    0.4904   19.8800 O   0  0  0  0  0  0  0  0  0  0  0  0
    9.4086   -4.1314   25.0949 Br  0  0  0  0  0  0  0  0  0  0  0  0
    6.8926   -4.2391   23.4998 H   0  0  0  0  0  0  0  0  0  0  0  0
  1  3  2  0  0  0  0
  1  5  1  0  0  0  0
  2  4  2  0  0  0  0
  2  7  1  0  0  0  0
  3  8  1  0  0  0  0
  4 11  1  0  0  0  0
  5 15  2  0  0  0  0
  6  8  2  0  0  0  0
  6 15  1  0  0  0  0
  7  9  2  0  0  0  0
  7 13  1  0  0  0  0
  8 17  1  0  0  0  0
  9 10  1  0  0  0  0
  9 17  1  0  0  0  0
 10 11  2  0  0  0  0
 10 16  1  0  0  0  0
 11 20  1  0  0  0  0
 12 16  1  0  0  0  0
 12 17  1  0  0  0  0
 12 18  2  0  0  0  0
 13 14  1  0  0  0  0
 13 19  2  0  0  0  0
 16 21  1  0  0  0  0
M  END

> <original SMILES>

CC(=O)c1ccc(Br)c2[nH]c(=O)n(-c3cccnc3)c12

> <ref_mols>

x0434_0,x0678_0,x0692_0,x0749_0,x0770_0,x0830_0,x1386_0,x1418_0

> <ref_pdb>

receptors/protein-0387.pdb

> <Chemgauss4>

-5.72001075744629

> <binding_free_energy>

-1.5421340634343466

> <binding_std_error>

0.03830167548655984

$$$$
ALV-UNI-7ff1a6f9-42
  -OEChem-05122002103D

 22 25  0     0  0  0  0  0  0999 V2000
   10.2080   -0.5415   25.4931 C   0  0  0  0  0  0  0  0  0  0  0  0
    8.3407    0.5071   24.3747 C   0  0  0  0  0  0  0  0  0  0  0  0
    9.3521   -1.5139   26.0104 C   0  0  0  0  0  0  0  0  0  0  0  0
    7.4848   -0.4653   24.8920 C   0  0  0  0  0  0  0  0  0  0  0  0
   11.4268   -0.8194   21.9714 C   0  0  0  0  0  0  0  0  0  0  0  0
   13.5139   -0.3835   23.0844 C   0  0  0  0  0  0  0  0  0  0  0  0
   11.9925   -1.9864   21.4837 C   0  0  0  0  0  0  0  0  0  0  0  0
   13.9861   -1.5702   22.5470 C   0  0  0  0  0  0  0  0  0  0  0  0
    9.7023    0.4690   24.6753 C   0  0  0  0  0  0  0  0  0  0  0  0
   12.2086   -0.0082   22.7863 C   0  0  0  0  0  0  0  0  0  0  0  0
    7.9906   -1.4758   25.7098 C   0  0  0  0  0  0  0  0  0  0  0  0
   10.5815    1.4680   24.1441 C   0  0  0  0  0  0  0  0  0  0  0  0
   11.6674    1.2186   23.3207 C   0  0  0  0  0  0  0  0  0  0  0  0
   11.4164    3.3543   23.7450 C   0  0  0  0  0  0  0  0  0  0  0  0
   13.2404    2.9781   22.3664 C   0  0  0  0  0  0  0  0  0  0  0  0
   13.2948    4.3191   22.4769 C   0  0  0  0  0  0  0  0  0  0  0  0
   14.2904    5.2276   21.8486 C   0  0  0  0  0  0  0  0  0  0  0  0
   13.2565   -2.3841   21.7514 N   0  0  0  0  0  0  0  0  0  0  0  0
   10.4297    2.8169   24.4070 N   0  0  0  0  0  0  0  0  0  0  0  0
   12.1881    2.4529   23.0784 N   0  0  0  0  0  0  0  0  0  0  0  0
    7.1687   -2.4096   26.2067 F   0  0  0  0  0  0  0  0  0  0  0  0
   11.9927    4.9742   23.5041 S   0  0  0  0  0  0  0  0  0  0  0  0
  1  3  2  0  0  0  0
  1  9  1  0  0  0  0
  2  4  1  0  0  0  0
  2  9  2  0  0  0  0
  3 11  1  0  0  0  0
  4 11  2  0  0  0  0
  5  7  2  0  0  0  0
  5 10  1  0  0  0  0
  6  8  1  0  0  0  0
  6 10  2  0  0  0  0
  7 18  1  0  0  0  0
  8 18  2  0  0  0  0
  9 12  1  0  0  0  0
 10 13  1  0  0  0  0
 11 21  1  0  0  0  0
 12 13  2  0  0  0  0
 12 19  1  0  0  0  0
 13 20  1  0  0  0  0
 14 19  2  0  0  0  0
 14 20  1  0  0  0  0
 14 22  1  0  0  0  0
 15 16  2  0  0  0  0
 15 20  1  0  0  0  0
 16 17  1  0  0  0  0
 16 22  1  0  0  0  0
M  END

> <original SMILES>

Cc1cn2c(-c3ccncc3)c(-c3ccc(F)cc3)nc2s1

> <ref_mols>

x0395_0,x0426_0,x0434_0,x0540_0,x0678_0,x0830_0,x1093_0

> <ref_pdb>

receptors/Mpro-x0426-protein.pdb

> <Chemgauss4>

-6.613181

> <binding_free_energy>

-1.5318015382672847

> <binding_std_error>

3.569256650052812

$$$$
VIT-UNK-b910b07f-1
  -OEChem-05122002103D

 24 25  0     1  0  0  0  0  0999 V2000
   12.9126   -3.1436   25.4108 C   0  0  0  0  0  0  0  0  0  0  0  0
   10.9886   -1.7073   25.1426 C   0  0  0  0  0  0  0  0  0  0  0  0
   13.1551   -0.7486   25.6159 C   0  0  0  0  0  0  0  0  0  0  0  0
   11.5491   -2.9844   25.1637 C   0  0  0  0  0  0  0  0  0  0  0  0
   13.7156   -2.0257   25.6370 C   0  0  0  0  0  0  0  0  0  0  0  0
   11.7916   -0.5894   25.3687 C   0  0  0  0  0  0  0  0  0  0  0  0
    8.3305   -5.8445   22.6196 C   0  0  0  0  0  0  0  0  0  0  0  0
    8.3515   -3.3580   22.3057 C   0  0  0  0  0  0  0  0  0  0  0  0
    7.4671   -4.6047   22.3598 C   0  0  1  0  0  0  0  0  0  0  0  0
    9.2366   -5.6290   23.8255 C   0  0  1  0  0  0  0  0  0  0  0  0
   10.0028   -4.3121   23.7242 C   0  0  2  0  0  0  0  0  0  0  0  0
    5.7540   -5.9931   21.1570 C   0  0  0  0  0  0  0  0  0  0  0  0
    7.5651   -4.8379   19.8557 C   0  0  0  0  0  0  0  0  0  0  0  0
    6.6524   -4.7593   21.0800 C   0  0  0  0  0  0  0  0  0  0  0  0
   10.7514   -4.0947   24.9408 N   0  0  0  0  0  0  0  0  0  0  0  0
    9.1019   -3.2231   23.5123 O   0  0  0  0  0  0  0  0  0  0  0  0
   15.0460   -2.1809   25.8788 O   0  0  0  0  0  0  0  0  0  0  0  0
   11.2447    0.6567   25.3491 O   0  0  0  0  0  0  0  0  0  0  0  0
    5.8025   -3.6192   20.9382 O   0  0  0  0  0  0  0  0  0  0  0  0
    8.4500   -5.5931   24.9399 F   0  0  0  0  0  0  0  0  0  0  0  0
   10.6870   -4.7942   25.6711 H   0  0  0  0  0  0  0  0  0  0  0  0
   15.2835   -3.1217   25.8616 H   0  0  0  0  0  0  0  0  0  0  0  0
   10.2930    0.6036   25.1663 H   0  0  0  0  0  0  0  0  0  0  0  0
    5.3032   -3.7520   20.1189 H   0  0  0  0  0  0  0  0  0  0  0  0
  1  4  1  0  0  0  0
  1  5  2  0  0  0  0
  2  4  2  0  0  0  0
  2  6  1  0  0  0  0
  3  5  1  0  0  0  0
  3  6  2  0  0  0  0
  4 15  1  0  0  0  0
  5 17  1  0  0  0  0
  6 18  1  0  0  0  0
  7  9  1  0  0  0  0
  7 10  1  0  0  0  0
  8  9  1  0  0  0  0
  8 16  1  0  0  0  0
  9 14  1  0  0  0  0
 10 11  1  0  0  0  0
 10 20  1  0  0  0  0
 11 15  1  0  0  0  0
 11 16  1  0  0  0  0
 12 14  1  0  0  0  0
 13 14  1  0  0  0  0
 14 19  1  0  0  0  0
 15 21  1  0  0  0  0
 17 22  1  0  0  0  0
 18 23  1  0  0  0  0
 19 24  1  0  0  0  0
M  END

> <original SMILES>

CC(C)(O)C1COC(Nc2cc(O)cc(O)c2)C(F)C1

> <ref_mols>

x1386_0,x1425_0

> <ref_pdb>

receptors/Mpro-x1386-protein.pdb

> <Chemgauss4>

-4.824992

> <binding_free_energy>

-1.512759292066221

> <binding_std_error>

4.165750870887782

$$$$
SAL-INS-1c7a5a55-7
  -OEChem-05122002103D

 26 28  0     1  0  0  0  0  0999 V2000
   12.3042    0.9471   23.8517 C   0  0  0  0  0  0  0  0  0  0  0  0
   10.9837    0.7370   24.2487 C   0  0  0  0  0  0  0  0  0  0  0  0
   12.9262    0.0423   22.9914 C   0  0  0  0  0  0  0  0  0  0  0  0
   10.2851   -0.3779   23.7854 C   0  0  0  0  0  0  0  0  0  0  0  0
   12.2277   -1.0726   22.5281 C   0  0  0  0  0  0  0  0  0  0  0  0
    7.3991   -4.1005   25.2867 C   0  0  0  0  0  0  0  0  0  0  0  0
    6.9257   -3.6508   24.0541 C   0  0  0  0  0  0  0  0  0  0  0  0
    9.6485   -3.4987   24.6422 C   0  0  0  0  0  0  0  0  0  0  0  0
   10.9071   -1.2827   22.9251 C   0  0  0  0  0  0  0  0  0  0  0  0
    8.7605   -4.0244   25.5808 C   0  0  0  0  0  0  0  0  0  0  0  0
    9.1750   -3.0491   23.4096 C   0  0  0  0  0  0  0  0  0  0  0  0
    7.8136   -3.1252   23.1155 C   0  0  0  0  0  0  0  0  0  0  0  0
    5.9909   -0.7536   21.2062 C   0  0  0  0  0  0  0  0  0  0  0  0
    5.8168   -0.0107   20.1085 C   0  0  0  0  0  0  0  0  0  0  0  0
    6.6326   -3.6353   21.0328 C   0  0  0  0  0  0  0  0  0  0  0  0
    8.1814   -1.0808   20.1866 C   0  0  0  0  0  0  0  0  0  0  0  0
    7.3724   -1.2782   21.4667 C   0  0  2  0  0  0  0  0  0  0  0  0
    9.2670   -4.5074   26.8979 C   0  0  0  0  0  0  0  0  0  0  0  0
   10.1494   -2.4934   22.4220 C   0  0  0  0  0  0  0  0  0  0  0  0
    7.2416   -5.0247   21.0985 C   0  0  0  0  0  0  0  0  0  0  0  0
    7.3024   -2.6642   21.8426 N   0  0  0  0  0  0  0  0  0  0  0  0
    5.6654   -3.4173   20.2987 O   0  0  0  0  0  0  0  0  0  0  0  0
    7.1412   -0.3167   17.8833 O   0  0  0  0  0  0  0  0  0  0  0  0
    7.8849    1.4573   19.5300 O   0  0  0  0  0  0  0  0  0  0  0  0
    7.3016    0.1625   19.2409 S   0  0  0  0  0  0  0  0  0  0  0  0
    6.0340   -6.1933   21.6742 Cl  0  0  0  0  0  0  0  0  0  0  0  0
  1  2  1  0  0  0  0
  1  3  2  0  0  0  0
  2  4  2  0  0  0  0
  3  5  1  0  0  0  0
  4  9  1  0  0  0  0
  5  9  2  0  0  0  0
  6  7  2  0  0  0  0
  6 10  1  0  0  0  0
  7 12  1  0  0  0  0
  8 10  2  0  0  0  0
  8 11  1  0  0  0  0
  9 19  1  0  0  0  0
 10 18  1  0  0  0  0
 11 12  2  0  0  0  0
 11 19  1  0  0  0  0
 12 21  1  0  0  0  0
 13 14  2  0  0  0  0
 13 17  1  0  0  0  0
 14 25  1  0  0  0  0
 15 20  1  0  0  0  0
 15 21  1  0  0  0  0
 15 22  2  0  0  0  0
 16 17  1  0  0  0  0
 16 25  1  0  0  0  0
 17 21  1  0  0  0  0
 20 26  1  0  0  0  0
 23 25  2  0  0  0  0
 24 25  2  0  0  0  0
M  END

> <original SMILES>

Cc1ccc(N(C(=O)CCl)C2C=CS(=O)(=O)C2)c(Cc2ccccc2)c1

> <ref_mols>

x0734_0,x1374_0,x1385_0,x1392_0,x1458_0

> <ref_pdb>

receptors/Mpro-x1458-protein.pdb

> <Chemgauss4>

-2.280844

> <binding_free_energy>

-1.4114308866666505

> <binding_std_error>

2.93299954114359

$$$$
WAR-XCH-b72a1bbc-1
  -OEChem-05122002103D

 18 19  0     0  0  0  0  0  0999 V2000
    9.5974   -2.8608   22.8104 C   0  0  0  0  0  0  0  0  0  0  0  0
    9.7345   -4.4669   24.6101 C   0  0  0  0  0  0  0  0  0  0  0  0
    8.5100   -3.5521   22.2762 C   0  0  0  0  0  0  0  0  0  0  0  0
    8.6471   -5.1582   24.0760 C   0  0  0  0  0  0  0  0  0  0  0  0
   10.2097   -3.3182   23.9773 C   0  0  0  0  0  0  0  0  0  0  0  0
    8.0349   -4.7008   22.9090 C   0  0  0  0  0  0  0  0  0  0  0  0
   11.4229   -1.1808   24.3288 C   0  0  0  0  0  0  0  0  0  0  0  0
   12.3308   -3.3357   25.2673 C   0  0  0  0  0  0  0  0  0  0  0  0
   12.0783   -0.5164   25.5337 C   0  0  0  0  0  0  0  0  0  0  0  0
   13.7049   -2.7079   25.0653 C   0  0  0  0  0  0  0  0  0  0  0  0
   11.2865   -2.6340   24.5067 N   0  0  0  0  0  0  0  0  0  0  0  0
    6.3249   -4.6144   20.8661 N   0  0  0  0  0  0  0  0  0  0  0  0
    7.1348   -6.8765   21.8003 O   0  0  0  0  0  0  0  0  0  0  0  0
    5.5599   -5.4685   23.1731 O   0  0  0  0  0  0  0  0  0  0  0  0
   13.8072   -1.0292   25.7522 S   0  0  0  0  0  0  0  0  0  0  0  0
    6.6743   -5.5672   22.2408 S   0  0  0  0  0  0  0  0  0  0  0  0
    6.5475   -5.0028   19.9414 H   0  0  0  0  0  0  0  0  0  0  0  0
    5.4731   -4.0405   20.8813 H   0  0  0  0  0  0  0  0  0  0  0  0
  1  3  2  0  0  0  0
  1  5  1  0  0  0  0
  2  4  1  0  0  0  0
  2  5  2  0  0  0  0
  3  6  1  0  0  0  0
  4  6  2  0  0  0  0
  5 11  1  0  0  0  0
  6 16  1  0  0  0  0
  7  9  1  0  0  0  0
  7 11  1  0  0  0  0
  8 10  1  0  0  0  0
  8 11  1  0  0  0  0
  9 15  1  0  0  0  0
 10 15  1  0  0  0  0
 12 16  1  0  0  0  0
 13 16  2  0  0  0  0
 14 16  2  0  0  0  0
 12 17  1  0  0  0  0
 12 18  1  0  0  0  0
M  END

> <original SMILES>

NS(=O)(=O)c1ccc(N2CCSCC2)cc1

> <ref_mols>

x0072_0,x0104_0,x0107_0,x0161_0,x0165_0

> <ref_pdb>

receptors/Mpro-x0165-protein.pdb

> <Chemgauss4>

0.647877

> <binding_free_energy>

-1.3276265903738214

> <binding_std_error>

2.192293502827642

$$$$
PAT-GYR-359dbb24-1
  -OEChem-05122002103D

 19 20  0     0  0  0  0  0  0999 V2000
    9.2860   -3.3846   24.3770 C   0  0  0  0  0  0  0  0  0  0  0  0
    9.9582   -2.4438   24.0533 C   0  0  0  0  0  0  0  0  0  0  0  0
   10.5860   -0.0932   24.3003 C   0  0  0  0  0  0  0  0  0  0  0  0
   11.7119   -1.4634   22.6596 C   0  0  0  0  0  0  0  0  0  0  0  0
   11.3678    0.9992   23.9245 C   0  0  0  0  0  0  0  0  0  0  0  0
   12.4936   -0.3710   22.2838 C   0  0  0  0  0  0  0  0  0  0  0  0
   10.7581   -1.3245   23.6678 C   0  0  0  0  0  0  0  0  0  0  0  0
   12.3216    0.8603   22.9163 C   0  0  0  0  0  0  0  0  0  0  0  0
   12.5184    4.0095   23.8720 C   0  0  0  0  0  0  0  0  0  0  0  0
   10.5670    5.3060   23.0741 C   0  0  0  0  0  0  0  0  0  0  0  0
   12.1731    6.4577   24.5484 C   0  0  0  0  0  0  0  0  0  0  0  0
    9.4479    5.9928   23.8409 C   0  0  0  0  0  0  0  0  0  0  0  0
   10.9772    7.1114   25.2326 C   0  0  0  0  0  0  0  0  0  0  0  0
   13.1619    2.0365   22.5107 C   0  0  0  0  0  0  0  0  0  0  0  0
   11.7780    5.2035   23.8915 N   0  0  0  0  0  0  0  0  0  0  0  0
   12.4603    3.2885   22.6851 N   0  0  0  0  0  0  0  0  0  0  0  0
   13.1754    3.6140   24.8407 O   0  0  0  0  0  0  0  0  0  0  0  0
    9.8916    7.2646   24.3176 O   0  0  0  0  0  0  0  0  0  0  0  0
   11.9092    3.6517   21.9183 H   0  0  0  0  0  0  0  0  0  0  0  0
  1  2  3  0  0  0  0
  2  7  1  0  0  0  0
  3  5  2  0  0  0  0
  3  7  1  0  0  0  0
  4  6  1  0  0  0  0
  4  7  2  0  0  0  0
  5  8  1  0  0  0  0
  6  8  2  0  0  0  0
  8 14  1  0  0  0  0
  9 15  1  0  0  0  0
  9 16  1  0  0  0  0
  9 17  2  0  0  0  0
 10 12  1  0  0  0  0
 10 15  1  0  0  0  0
 11 13  1  0  0  0  0
 11 15  1  0  0  0  0
 12 18  1  0  0  0  0
 13 18  1  0  0  0  0
 14 16  1  0  0  0  0
 16 19  1  0  0  0  0
M  END

> <original SMILES>

C#Cc1ccc(CNC(=O)N2CCOCC2)cc1

> <ref_mols>

x1249_0

> <ref_pdb>

receptors/protein-0387.pdb

> <Chemgauss4>

-4.81664085388184

> <binding_free_energy>

-1.218432898878575

> <binding_std_error>

1.165652478747029

$$$$
ALE-HEI-f28a35b5-4
  -OEChem-05122002103D

 18 19  0     0  0  0  0  0  0999 V2000
   13.8831   -0.9374   23.0785 C   0  0  0  0  0  0  0  0  0  0  0  0
   13.0624   -0.8921   21.9571 C   0  0  0  0  0  0  0  0  0  0  0  0
   13.3526   -0.5176   24.2878 C   0  0  0  0  0  0  0  0  0  0  0  0
   11.3196   -0.0378   23.3314 C   0  0  0  0  0  0  0  0  0  0  0  0
   11.7548   -0.4348   22.0774 C   0  0  0  0  0  0  0  0  0  0  0  0
    5.5546    0.9985   18.9491 C   0  0  0  0  0  0  0  0  0  0  0  0
    7.7955    0.2769   19.1050 C   0  0  0  0  0  0  0  0  0  0  0  0
    9.5612    0.0559   20.9086 C   0  0  0  0  0  0  0  0  0  0  0  0
    4.1888    1.5040   19.1921 C   0  0  0  0  0  0  0  0  0  0  0  0
   12.0875   -0.0674   24.4437 N   0  0  0  0  0  0  0  0  0  0  0  0
    6.0225    0.6051   17.7837 N   0  0  0  0  0  0  0  0  0  0  0  0
    7.3367    0.1809   17.8753 N   0  0  0  0  0  0  0  0  0  0  0  0
   10.9095   -0.3778   20.9719 N   0  0  0  0  0  0  0  0  0  0  0  0
    9.0826   -0.0510   19.5929 N   0  0  0  0  0  0  0  0  0  0  0  0
    8.9142    0.4636   21.8680 O   0  0  0  0  0  0  0  0  0  0  0  0
    6.6708    0.8877   20.2466 S   0  0  0  0  0  0  0  0  0  0  0  0
   11.3175   -0.6920   20.0838 H   0  0  0  0  0  0  0  0  0  0  0  0
    9.7363   -0.4078   18.9005 H   0  0  0  0  0  0  0  0  0  0  0  0
  1  2  2  0  0  0  0
  1  3  1  0  0  0  0
  2  5  1  0  0  0  0
  3 10  2  0  0  0  0
  4  5  2  0  0  0  0
  4 10  1  0  0  0  0
  5 13  1  0  0  0  0
  6  9  1  0  0  0  0
  6 11  2  0  0  0  0
  6 16  1  0  0  0  0
  7 12  2  0  0  0  0
  7 14  1  0  0  0  0
  7 16  1  0  0  0  0
  8 13  1  0  0  0  0
  8 14  1  0  0  0  0
  8 15  2  0  0  0  0
 11 12  1  0  0  0  0
 13 17  1  0  0  0  0
 14 18  1  0  0  0  0
M  END

> <original SMILES>

Cc1nnc(NC(=O)Nc2cccnc2)s1

> <ref_mols>

x0107_0,x0395_0,x0434_0,x0678_0,x0967_0,x0991_0,x1093_0

> <ref_pdb>

receptors/Mpro-x1093-protein.pdb

> <Chemgauss4>

-6.06445

> <binding_free_energy>

-1.1898458412121222

> <binding_std_error>

0.7868025579662253

$$$$
ALV-UNI-7ff1a6f9-7
  -OEChem-05122002103D

 23 26  0     0  0  0  0  0  0999 V2000
   12.0754   -2.1993   22.6765 C   0  0  0  0  0  0  0  0  0  0  0  0
   12.2064    0.1914   22.9997 C   0  0  0  0  0  0  0  0  0  0  0  0
   13.2599   -2.3614   23.3950 C   0  0  0  0  0  0  0  0  0  0  0  0
   13.3909    0.0293   23.7183 C   0  0  0  0  0  0  0  0  0  0  0  0
    8.8877   -1.6809   24.4920 C   0  0  0  0  0  0  0  0  0  0  0  0
    8.2072   -3.4061   22.9606 C   0  0  0  0  0  0  0  0  0  0  0  0
    8.5069   -2.5224   25.5248 C   0  0  0  0  0  0  0  0  0  0  0  0
    7.8570   -4.1704   24.0620 C   0  0  0  0  0  0  0  0  0  0  0  0
   11.5487   -0.9229   22.4788 C   0  0  0  0  0  0  0  0  0  0  0  0
    8.7318   -2.1387   23.1884 C   0  0  0  0  0  0  0  0  0  0  0  0
   13.9176   -1.2471   23.9160 C   0  0  0  0  0  0  0  0  0  0  0  0
   10.3326   -0.7564   21.7408 C   0  0  0  0  0  0  0  0  0  0  0  0
    9.1139   -1.2995   22.0732 C   0  0  0  0  0  0  0  0  0  0  0  0
    8.9921   -0.1005   20.2103 C   0  0  0  0  0  0  0  0  0  0  0  0
    8.2990    0.4535   19.0939 C   0  0  0  0  0  0  0  0  0  0  0  0
    6.2467   -0.6145   19.8844 C   0  0  0  0  0  0  0  0  0  0  0  0
    6.8947   -1.1384   20.9373 C   0  0  0  0  0  0  0  0  0  0  0  0
    6.9798    0.2133   18.9271 C   0  0  0  0  0  0  0  0  0  0  0  0
    6.1966    0.7645   17.7755 C   0  0  0  0  0  0  0  0  0  0  0  0
    7.9937   -3.7598   25.3428 N   0  0  0  0  0  0  0  0  0  0  0  0
   10.2514   -0.0163   20.5886 N   0  0  0  0  0  0  0  0  0  0  0  0
    8.2521   -0.8804   21.0925 N   0  0  0  0  0  0  0  0  0  0  0  0
   15.0551   -1.4029   24.6060 F   0  0  0  0  0  0  0  0  0  0  0  0
  1  3  2  0  0  0  0
  1  9  1  0  0  0  0
  2  4  1  0  0  0  0
  2  9  2  0  0  0  0
  3 11  1  0  0  0  0
  4 11  2  0  0  0  0
  5  7  2  0  0  0  0
  5 10  1  0  0  0  0
  6  8  1  0  0  0  0
  6 10  2  0  0  0  0
  7 20  1  0  0  0  0
  8 20  2  0  0  0  0
  9 12  1  0  0  0  0
 10 13  1  0  0  0  0
 11 23  1  0  0  0  0
 12 13  2  0  0  0  0
 12 21  1  0  0  0  0
 13 22  1  0  0  0  0
 14 15  1  0  0  0  0
 14 21  2  0  0  0  0
 14 22  1  0  0  0  0
 15 18  2  0  0  0  0
 16 17  2  0  0  0  0
 16 18  1  0  0  0  0
 17 22  1  0  0  0  0
 18 19  1  0  0  0  0
M  END

> <original SMILES>

Cc1ccn2c(-c3ccncc3)c(-c3ccc(F)cc3)nc2c1

> <ref_mols>

x0395_0,x0426_0,x0434_0,x0540_0,x0678_0,x0830_0,x1093_0

> <ref_pdb>

receptors/Mpro-x1093-protein.pdb

> <Chemgauss4>

-8.503814

> <binding_free_energy>

-1.1792951200685415

> <binding_std_error>

0.11106649411841978

$$$$
MAK-UNK-af83ef51-8
  -OEChem-05122002103D

 20 22  0     1  0  0  0  0  0999 V2000
   13.3215   -2.6187   25.4781 C   0  0  0  0  0  0  0  0  0  0  0  0
   13.4606   -1.3075   25.0230 C   0  0  0  0  0  0  0  0  0  0  0  0
   12.0594   -3.2109   25.5238 C   0  0  0  0  0  0  0  0  0  0  0  0
   11.0754   -1.1806   24.6596 C   0  0  0  0  0  0  0  0  0  0  0  0
   12.3376   -0.5885   24.6137 C   0  0  0  0  0  0  0  0  0  0  0  0
   10.9363   -2.4918   25.1146 C   0  0  0  0  0  0  0  0  0  0  0  0
    6.1291   -3.0113   21.5867 C   0  0  0  0  0  0  0  0  0  0  0  0
    9.2033   -4.8236   21.0167 C   0  0  0  0  0  0  0  0  0  0  0  0
    8.3337   -5.8330   21.7932 C   0  0  0  0  0  0  0  0  0  0  0  0
    9.3232   -2.8770   22.6538 C   0  0  0  0  0  0  0  0  0  0  0  0
    7.8704   -4.5620   23.9512 C   0  0  0  0  0  0  0  0  0  0  0  0
    9.2417   -3.8475   23.8588 C   0  0  0  0  0  0  0  0  0  0  0  0
    8.6423   -3.4461   21.3929 C   0  0  2  0  0  0  0  0  0  0  0  0
    7.3287   -4.9730   22.5680 C   0  0  1  0  0  0  0  0  0  0  0  0
   12.4874    0.8129   24.1259 C   0  0  0  0  0  0  0  0  0  0  0  0
    9.5754   -3.1302   25.1647 C   0  0  0  0  0  0  0  0  0  0  0  0
    6.3256   -1.5176   21.5911 C   0  0  0  0  0  0  0  0  0  0  0  0
    7.2710   -3.7653   21.7638 N   0  0  0  0  0  0  0  0  0  0  0  0
    5.0056   -3.4896   21.4226 O   0  0  0  0  0  0  0  0  0  0  0  0
    6.6682   -1.0484   19.9293 Cl  0  0  0  0  0  0  0  0  0  0  0  0
  1  2  2  0  0  0  0
  1  3  1  0  0  0  0
  2  5  1  0  0  0  0
  3  6  2  0  0  0  0
  4  5  2  0  0  0  0
  4  6  1  0  0  0  0
  5 15  1  0  0  0  0
  6 16  1  0  0  0  0
  7 17  1  0  0  0  0
  7 18  1  0  0  0  0
  7 19  2  0  0  0  0
  8  9  1  0  0  0  0
  8 13  1  0  0  0  0
  9 14  1  0  0  0  0
 10 12  1  0  0  0  0
 10 13  1  0  0  0  0
 11 12  1  0  0  0  0
 11 14  1  0  0  0  0
 12 16  1  0  0  0  0
 13 18  1  0  0  0  0
 14 18  1  0  0  0  0
 17 20  1  0  0  0  0
M  END

> <original SMILES>

Cc1cccc(CC2CC3CCC(C2)N3C(=O)CCl)c1

> <ref_mols>

x0072_0,x0104_0,x0161_0,x0195_0,x0305_0,x0387_0,x0692_0

> <ref_pdb>

receptors/Mpro-x0072_0.pdb

> <Chemgauss4>

-8.368351

> <binding_free_energy>

-1.0344565688180793

> <binding_std_error>

2.7353784319043553

$$$$
TRY-UNI-1fd04853-8
  -OEChem-05122002103D

 24 26  0     0  0  0  0  0  0999 V2000
   13.5006    1.2970   24.4746 C   0  0  0  0  0  0  0  0  0  0  0  0
    7.1871   -2.2072   21.2092 C   0  0  0  0  0  0  0  0  0  0  0  0
   13.7370   -1.1056   24.8648 C   0  0  0  0  0  0  0  0  0  0  0  0
   11.6656   -0.0015   25.4367 C   0  0  0  0  0  0  0  0  0  0  0  0
    8.0678   -3.0208   21.9197 C   0  0  0  0  0  0  0  0  0  0  0  0
   13.2127   -2.3194   25.3091 C   0  0  0  0  0  0  0  0  0  0  0  0
   11.1413   -1.2153   25.8810 C   0  0  0  0  0  0  0  0  0  0  0  0
    5.9927   -2.7514   20.7565 C   0  0  0  0  0  0  0  0  0  0  0  0
    7.3907   -6.5335   22.6563 C   0  0  0  0  0  0  0  0  0  0  0  0
   12.9634    0.0534   24.9286 C   0  0  0  0  0  0  0  0  0  0  0  0
    7.6942   -4.3565   22.1394 C   0  0  0  0  0  0  0  0  0  0  0  0
   11.9149   -2.3743   25.8172 C   0  0  0  0  0  0  0  0  0  0  0  0
    8.2705   -5.4808   22.7877 C   0  0  0  0  0  0  0  0  0  0  0  0
    6.4672   -4.7705   21.6292 C   0  0  0  0  0  0  0  0  0  0  0  0
    9.7140   -4.5246   24.6261 C   0  0  0  0  0  0  0  0  0  0  0  0
    9.5745   -5.5252   23.4792 C   0  0  0  0  0  0  0  0  0  0  0  0
   11.3500   -3.6811   26.2940 C   0  0  0  0  0  0  0  0  0  0  0  0
   13.9371    2.3070   24.1058 N   0  0  0  0  0  0  0  0  0  0  0  0
    5.5818   -4.0280   20.9382 N   0  0  0  0  0  0  0  0  0  0  0  0
    6.3009   -6.0916   21.9518 N   0  0  0  0  0  0  0  0  0  0  0  0
   10.9792   -4.5424   25.1957 N   0  0  0  0  0  0  0  0  0  0  0  0
    8.7918   -3.7950   24.9813 O   0  0  0  0  0  0  0  0  0  0  0  0
    5.4980   -6.6540   21.7063 H   0  0  0  0  0  0  0  0  0  0  0  0
   11.6719   -5.1866   24.8256 H   0  0  0  0  0  0  0  0  0  0  0  0
  1 10  1  0  0  0  0
  1 18  3  0  0  0  0
  2  5  2  0  0  0  0
  2  8  1  0  0  0  0
  3  6  2  0  0  0  0
  3 10  1  0  0  0  0
  4  7  1  0  0  0  0
  4 10  2  0  0  0  0
  5 11  1  0  0  0  0
  6 12  1  0  0  0  0
  7 12  2  0  0  0  0
  8 19  2  0  0  0  0
  9 13  2  0  0  0  0
  9 20  1  0  0  0  0
 11 13  1  0  0  0  0
 11 14  2  0  0  0  0
 12 17  1  0  0  0  0
 13 16  1  0  0  0  0
 14 19  1  0  0  0  0
 14 20  1  0  0  0  0
 15 16  1  0  0  0  0
 15 21  1  0  0  0  0
 15 22  2  0  0  0  0
 17 21  1  0  0  0  0
 20 23  1  0  0  0  0
 21 24  1  0  0  0  0
M  END

> <original SMILES>

N#Cc1ccc(CNC(=O)Cc2c[nH]c3ncccc23)cc1

> <ref_mols>

x0104_0,x0161_0,x0195_0,x0305_0,x0387_0,x0678_0,x1382_0

> <ref_pdb>

receptors/Mpro-x0161-protein.pdb

> <Chemgauss4>

-8.564989

> <binding_free_energy>

-1.0223068798439812

> <binding_std_error>

0.9240636468727648

$$$$
STE-UNK-dfade101-1
  -OEChem-05122002103D

 15 16  0     0  0  0  0  0  0999 V2000
    7.6855   -4.6988   22.2203 C   0  0  0  0  0  0  0  0  0  0  0  0
   12.6166   -0.1531   22.8937 C   0  0  0  0  0  0  0  0  0  0  0  0
   11.7534   -1.2304   22.7275 C   0  0  0  0  0  0  0  0  0  0  0  0
   12.4170    0.6754   23.9861 C   0  0  0  0  0  0  0  0  0  0  0  0
   10.6163   -0.5571   24.7048 C   0  0  0  0  0  0  0  0  0  0  0  0
    7.0584   -2.6060   21.0237 C   0  0  0  0  0  0  0  0  0  0  0  0
    7.8158   -3.3158   21.9231 C   0  0  0  0  0  0  0  0  0  0  0  0
   10.7313   -1.4433   23.6459 C   0  0  0  0  0  0  0  0  0  0  0  0
    8.7132   -2.3688   22.4521 C   0  0  0  0  0  0  0  0  0  0  0  0
    9.7923   -2.5869   23.4959 C   0  0  0  0  0  0  0  0  0  0  0  0
    7.5788   -5.8286   22.4631 N   0  0  0  0  0  0  0  0  0  0  0  0
   11.4355    0.5005   24.8993 N   0  0  0  0  0  0  0  0  0  0  0  0
    8.5430   -1.1504   21.9319 N   0  0  0  0  0  0  0  0  0  0  0  0
    7.5300   -1.3270   21.0666 N   0  0  0  0  0  0  0  0  0  0  0  0
    7.2084   -0.5278   20.5349 H   0  0  0  0  0  0  0  0  0  0  0  0
  1  7  1  0  0  0  0
  1 11  3  0  0  0  0
  2  3  2  0  0  0  0
  2  4  1  0  0  0  0
  3  8  1  0  0  0  0
  4 12  2  0  0  0  0
  5  8  2  0  0  0  0
  5 12  1  0  0  0  0
  6  7  2  0  0  0  0
  6 14  1  0  0  0  0
  7  9  1  0  0  0  0
  8 10  1  0  0  0  0
  9 10  1  0  0  0  0
  9 13  2  0  0  0  0
 13 14  1  0  0  0  0
 14 15  1  0  0  0  0
M  END

> <original SMILES>

N#Cc1c[nH]nc1Cc1cccnc1

> <ref_mols>

x0107_0

> <ref_pdb>

receptors/Mpro-x0107_0.pdb

> <Chemgauss4>

-8.723722

> <binding_free_energy>

-1.0133609999999997

> <binding_std_error>

0.99045

$$$$
DAR-DIA-23aa0b97-20
  -OEChem-05122002103D

 21 23  0     0  0  0  0  0  0999 V2000
   14.5035   -1.6332   23.3349 C   0  0  0  0  0  0  0  0  0  0  0  0
    3.8281    1.7710   20.0987 C   0  0  0  0  0  0  0  0  0  0  0  0
    4.4980    1.8697   21.3160 C   0  0  0  0  0  0  0  0  0  0  0  0
   13.9424   -0.7470   24.2544 C   0  0  0  0  0  0  0  0  0  0  0  0
   13.8698   -1.8655   22.1141 C   0  0  0  0  0  0  0  0  0  0  0  0
    4.5140    1.3625   18.9552 C   0  0  0  0  0  0  0  0  0  0  0  0
    5.8570    1.5604   21.3952 C   0  0  0  0  0  0  0  0  0  0  0  0
   12.7476   -0.0933   23.9532 C   0  0  0  0  0  0  0  0  0  0  0  0
   12.6750   -1.2117   21.8130 C   0  0  0  0  0  0  0  0  0  0  0  0
    6.6167    0.6349   17.9106 C   0  0  0  0  0  0  0  0  0  0  0  0
    8.5522    0.4302   19.1300 C   0  0  0  0  0  0  0  0  0  0  0  0
    5.8816    1.0486   19.0233 C   0  0  0  0  0  0  0  0  0  0  0  0
    6.5634    1.1473   20.2537 C   0  0  0  0  0  0  0  0  0  0  0  0
    7.9259    0.8302   20.3006 C   0  0  0  0  0  0  0  0  0  0  0  0
   12.1139   -0.3256   22.7325 C   0  0  0  0  0  0  0  0  0  0  0  0
    9.8614   -0.1219   21.6237 C   0  0  0  0  0  0  0  0  0  0  0  0
    8.7333    0.9035   21.5541 C   0  0  0  0  0  0  0  0  0  0  0  0
    7.9325    0.3243   17.9353 N   0  0  0  0  0  0  0  0  0  0  0  0
   10.9017    0.3379   22.4271 N   0  0  0  0  0  0  0  0  0  0  0  0
    9.8011   -1.1918   21.0264 O   0  0  0  0  0  0  0  0  0  0  0  0
   10.7756    1.2583   22.8432 H   0  0  0  0  0  0  0  0  0  0  0  0
  1  4  1  0  0  0  0
  1  5  2  0  0  0  0
  2  3  1  0  0  0  0
  2  6  2  0  0  0  0
  3  7  2  0  0  0  0
  4  8  2  0  0  0  0
  5  9  1  0  0  0  0
  6 12  1  0  0  0  0
  7 13  1  0  0  0  0
  8 15  1  0  0  0  0
  9 15  2  0  0  0  0
 10 12  2  0  0  0  0
 10 18  1  0  0  0  0
 11 14  1  0  0  0  0
 11 18  2  0  0  0  0
 12 13  1  0  0  0  0
 13 14  2  0  0  0  0
 14 17  1  0  0  0  0
 15 19  1  0  0  0  0
 16 17  1  0  0  0  0
 16 19  1  0  0  0  0
 16 20  2  0  0  0  0
 19 21  1  0  0  0  0
M  END

> <original SMILES>

O=C(Cc1cncc2ccccc12)Nc1ccccc1

> <ref_mols>

x0104_0,x0305_0,x0434_0,x0678_0,x0995_0,x1093_0,x1249_0

> <ref_pdb>

receptors/Mpro-x1249-protein.pdb

> <Chemgauss4>

-5.55803

> <binding_free_energy>

-1.0072018559183604

> <binding_std_error>

0.18377740912876075

$$$$
DAN-LON-a5fc619e-9
  -OEChem-05122002103D

 24 26  0     1  0  0  0  0  0999 V2000
   13.0555    0.1526   23.0369 C   0  0  0  0  0  0  0  0  0  0  0  0
    6.8805   -3.7521   24.9306 C   0  0  0  0  0  0  0  0  0  0  0  0
   12.2482   -0.8039   22.4214 C   0  0  0  0  0  0  0  0  0  0  0  0
   12.5607    0.8993   24.1062 C   0  0  0  0  0  0  0  0  0  0  0  0
    7.3127   -2.7619   24.0017 C   0  0  0  0  0  0  0  0  0  0  0  0
   10.4511   -0.2671   23.9445 C   0  0  0  0  0  0  0  0  0  0  0  0
    6.5661   -4.9412   24.3104 C   0  0  0  0  0  0  0  0  0  0  0  0
   10.9460   -1.0138   22.8752 C   0  0  0  0  0  0  0  0  0  0  0  0
   11.2585    0.6894   24.5600 C   0  0  0  0  0  0  0  0  0  0  0  0
    7.3123   -3.2321   22.7068 C   0  0  0  0  0  0  0  0  0  0  0  0
    6.2113   -1.2244   18.3636 C   0  0  0  0  0  0  0  0  0  0  0  0
    7.8794   -0.0796   19.7812 C   0  0  0  0  0  0  0  0  0  0  0  0
    6.4717   -1.8051   20.8243 C   0  0  0  0  0  0  0  0  0  0  0  0
    9.1368   -0.7275   20.3324 C   0  0  0  0  0  0  0  0  0  0  0  0
    7.7027   -2.4995   21.4358 C   0  0  1  0  0  0  0  0  0  0  0  0
   10.0777   -2.0420   22.2119 C   0  0  0  0  0  0  0  0  0  0  0  0
    6.1375    0.0006   17.4874 C   0  0  0  0  0  0  0  0  0  0  0  0
    6.8202   -1.0676   19.6082 N   0  0  0  0  0  0  0  0  0  0  0  0
    8.8167   -1.4589   21.6205 N   0  3  1  0  0  0  0  0  0  0  0  0
    5.7388   -2.2876   17.9531 O   0  0  0  0  0  0  0  0  0  0  0  0
    6.7922   -4.8610   22.6149 S   0  0  0  0  0  0  0  0  0  0  0  0
   10.6483    1.6117   25.8786 Cl  0  0  0  0  0  0  0  0  0  0  0  0
    5.1818    1.1903   18.3644 Cl  0  0  0  0  0  0  0  0  0  0  0  0
    8.4738   -0.7570   22.2885 H   0  0  0  0  0  0  0  0  0  0  0  0
  1  3  2  0  0  0  0
  1  4  1  0  0  0  0
  2  5  1  0  0  0  0
  2  7  2  0  0  0  0
  3  8  1  0  0  0  0
  4  9  2  0  0  0  0
  5 10  2  0  0  0  0
  6  8  2  0  0  0  0
  6  9  1  0  0  0  0
  7 21  1  0  0  0  0
  8 16  1  0  0  0  0
  9 22  1  0  0  0  0
 10 15  1  0  0  0  0
 10 21  1  0  0  0  0
 11 17  1  0  0  0  0
 11 18  1  0  0  0  0
 11 20  2  0  0  0  0
 12 14  1  0  0  0  0
 12 18  1  0  0  0  0
 13 15  1  0  0  0  0
 13 18  1  0  0  0  0
 14 19  1  0  0  0  0
 15 19  1  0  0  0  0
 16 19  1  0  0  0  0
 17 23  1  0  0  0  0
 19 24  1  0  0  0  0
M  CHG  1  19   1
M  END

> <original SMILES>

O=C(CCl)N1CCN(Cc2cccc(Cl)c2)C(c2cccs2)C1

> <ref_mols>

x0770_0

> <ref_pdb>

receptors/protein-0387.pdb

> <Chemgauss4>

-5.09587717056274

> <binding_free_energy>

-0.9564811599999814

> <binding_std_error>

0.5944488083535142

$$$$
DAR-DIA-eace69ff-35
  -OEChem-05122002103D

 17 18  0     0  0  0  0  0  0999 V2000
   12.0454    0.0920   24.6651 C   0  0  0  0  0  0  0  0  0  0  0  0
   12.5327   -0.4126   23.4560 C   0  0  0  0  0  0  0  0  0  0  0  0
   10.6536   -1.9394   23.2692 C   0  0  0  0  0  0  0  0  0  0  0  0
    9.0206   -0.9245   26.3778 C   0  0  0  0  0  0  0  0  0  0  0  0
   10.1429   -1.4464   24.4864 C   0  0  0  0  0  0  0  0  0  0  0  0
    8.9914   -1.7392   25.2696 C   0  0  0  0  0  0  0  0  0  0  0  0
   10.8492   -0.4441   25.1549 C   0  0  0  0  0  0  0  0  0  0  0  0
   11.8492   -1.4126   22.7672 C   0  0  0  0  0  0  0  0  0  0  0  0
    6.2790   -1.0394   24.2186 C   0  0  0  0  0  0  0  0  0  0  0  0
    7.6904   -2.2142   22.5368 C   0  0  0  0  0  0  0  0  0  0  0  0
   13.5691   -1.3091   21.1280 C   0  0  0  0  0  0  0  0  0  0  0  0
    7.9463   -2.7350   24.9583 C   0  0  0  0  0  0  0  0  0  0  0  0
   10.1446   -0.1467   26.2996 N   0  0  0  0  0  0  0  0  0  0  0  0
    7.0083   -2.3100   23.8747 N   0  3  0  0  0  0  0  0  0  0  0  0
   12.3488   -1.8841   21.5899 O   0  0  0  0  0  0  0  0  0  0  0  0
   10.4188    0.5453   26.9832 H   0  0  0  0  0  0  0  0  0  0  0  0
    6.2909   -3.0453   23.7863 H   0  0  0  0  0  0  0  0  0  0  0  0
  1  2  2  0  0  0  0
  1  7  1  0  0  0  0
  2  8  1  0  0  0  0
  3  5  1  0  0  0  0
  3  8  2  0  0  0  0
  4  6  2  0  0  0  0
  4 13  1  0  0  0  0
  5  6  1  0  0  0  0
  5  7  2  0  0  0  0
  6 12  1  0  0  0  0
  7 13  1  0  0  0  0
  8 15  1  0  0  0  0
  9 14  1  0  0  0  0
 10 14  1  0  0  0  0
 11 15  1  0  0  0  0
 12 14  1  0  0  0  0
 13 16  1  0  0  0  0
 14 17  1  0  0  0  0
M  CHG  1  14   1
M  END

> <original SMILES>

COc1ccc2[nH]cc(CN(C)C)c2c1

> <ref_mols>

x0104_0

> <ref_pdb>

receptors/Mpro-x0104-protein.pdb

> <Chemgauss4>

-5.658311

> <binding_free_energy>

-0.9061481306397319

> <binding_std_error>

5.143861870985323

$$$$
MAK-UNK-acefcb18-12
  -OEChem-05122002103D

 12 13  0     0  0  0  0  0  0999 V2000
   11.3592   -1.2512   25.3167 C   0  0  0  0  0  0  0  0  0  0  0  0
   12.5083   -0.7596   25.8959 C   0  0  0  0  0  0  0  0  0  0  0  0
   12.7365   -3.1223   25.2517 C   0  0  0  0  0  0  0  0  0  0  0  0
   11.4912   -2.6200   24.9436 C   0  0  0  0  0  0  0  0  0  0  0  0
    9.3391   -5.5235   23.9843 C   0  0  0  0  0  0  0  0  0  0  0  0
    8.9046   -3.5950   22.4512 C   0  0  0  0  0  0  0  0  0  0  0  0
    9.9667   -4.5703   25.0012 C   0  0  0  0  0  0  0  0  0  0  0  0
    9.5280   -2.6473   23.4746 C   0  0  0  0  0  0  0  0  0  0  0  0
    8.2813   -4.8200   23.1284 C   0  0  0  0  0  0  0  0  0  0  0  0
    7.6964   -5.7758   22.0915 C   0  0  0  0  0  0  0  0  0  0  0  0
   10.4769   -3.3680   24.3341 N   0  0  0  0  0  0  0  0  0  0  0  0
   13.7397   -1.9460   25.9879 S   0  0  0  0  0  0  0  0  0  0  0  0
  1  2  2  0  0  0  0
  1  4  1  0  0  0  0
  2 12  1  0  0  0  0
  3  4  2  0  0  0  0
  3 12  1  0  0  0  0
  4 11  1  0  0  0  0
  5  7  1  0  0  0  0
  5  9  1  0  0  0  0
  6  8  1  0  0  0  0
  6  9  1  0  0  0  0
  7 11  1  0  0  0  0
  8 11  1  0  0  0  0
  9 10  1  0  0  0  0
M  END

> <original SMILES>

CC1CCN(c2ccsc2)CC1

> <ref_mols>

x0387_0

> <ref_pdb>

receptors/Mpro-x0387_0.pdb

> <Chemgauss4>

-5.432204

> <binding_free_energy>

-0.9054381500000055

> <binding_std_error>

0.013307349999996276

$$$$
JOH-MSK-a63bdd1d-7
  -OEChem-05122002103D

 18 19  0     0  0  0  0  0  0999 V2000
   11.7017    0.4710   24.6104 C   0  0  0  0  0  0  0  0  0  0  0  0
   12.3092   -0.0500   23.4644 C   0  0  0  0  0  0  0  0  0  0  0  0
   10.7528   -1.9134   23.4161 C   0  0  0  0  0  0  0  0  0  0  0  0
    8.8700   -0.9213   26.3878 C   0  0  0  0  0  0  0  0  0  0  0  0
   10.1242   -1.4073   24.5712 C   0  0  0  0  0  0  0  0  0  0  0  0
    9.0250   -1.8324   25.3687 C   0  0  0  0  0  0  0  0  0  0  0  0
   10.6122   -0.2292   25.1405 C   0  0  0  0  0  0  0  0  0  0  0  0
   11.8437   -1.2237   22.8748 C   0  0  0  0  0  0  0  0  0  0  0  0
   13.5613   -0.9613   21.2510 C   0  0  0  0  0  0  0  0  0  0  0  0
    8.1926   -3.0326   25.1506 C   0  0  0  0  0  0  0  0  0  0  0  0
    8.4841   -4.1976   26.1073 C   0  0  0  0  0  0  0  0  0  0  0  0
    9.8317    0.0421   26.2417 N   0  0  0  0  0  0  0  0  0  0  0  0
    9.8798   -4.6678   25.9271 N   0  3  0  0  0  0  0  0  0  0  0  0
   12.4562   -1.7068   21.7571 O   0  0  0  0  0  0  0  0  0  0  0  0
    9.9525    0.8374   26.8535 H   0  0  0  0  0  0  0  0  0  0  0  0
   10.5116   -4.2029   26.5877 H   0  0  0  0  0  0  0  0  0  0  0  0
   10.2133   -4.4694   24.9776 H   0  0  0  0  0  0  0  0  0  0  0  0
    9.9489   -5.6793   26.0818 H   0  0  0  0  0  0  0  0  0  0  0  0
  1  2  2  0  0  0  0
  1  7  1  0  0  0  0
  2  8  1  0  0  0  0
  3  5  1  0  0  0  0
  3  8  2  0  0  0  0
  4  6  2  0  0  0  0
  4 12  1  0  0  0  0
  5  6  1  0  0  0  0
  5  7  2  0  0  0  0
  6 10  1  0  0  0  0
  7 12  1  0  0  0  0
  8 14  1  0  0  0  0
  9 14  1  0  0  0  0
 10 11  1  0  0  0  0
 11 13  1  0  0  0  0
 12 15  1  0  0  0  0
 13 16  1  0  0  0  0
 13 17  1  0  0  0  0
 13 18  1  0  0  0  0
M  CHG  1  13   1
M  END

> <original SMILES>

COc1ccc2[nH]cc(CCN)c2c1

> <ref_mols>

x0104_0

> <ref_pdb>

receptors/protein-0387.pdb

> <Chemgauss4>

-5.53720855712891

> <binding_free_energy>

-0.874225175555555

> <binding_std_error>

0.043853719602079184

$$$$
SEL-UNI-8426c22c-2
  -OEChem-05122002103D

 20 21  0     0  0  0  0  0  0999 V2000
   13.4595   -2.1690   22.8196 C   0  0  0  0  0  0  0  0  0  0  0  0
   12.4071   -1.6930   22.0455 C   0  0  0  0  0  0  0  0  0  0  0  0
   13.9975   -1.3214   23.7745 C   0  0  0  0  0  0  0  0  0  0  0  0
   11.9315   -0.4020   22.2472 C   0  0  0  0  0  0  0  0  0  0  0  0
   12.5378    0.3665   23.2279 C   0  0  0  0  0  0  0  0  0  0  0  0
    8.7849   -0.0356   19.2273 C   0  0  0  0  0  0  0  0  0  0  0  0
    8.5558   -0.0946   20.6903 C   0  0  0  0  0  0  0  0  0  0  0  0
    7.3955    0.4185   21.1305 C   0  0  0  0  0  0  0  0  0  0  0  0
   10.8111    0.0941   21.4190 C   0  0  0  0  0  0  0  0  0  0  0  0
    9.3439   -1.6775   22.3618 C   0  0  0  0  0  0  0  0  0  0  0  0
    6.3968    0.9508   20.1325 C   0  0  0  0  0  0  0  0  0  0  0  0
    6.5161    0.2548   18.7797 C   0  0  0  0  0  0  0  0  0  0  0  0
    6.9890    0.5415   22.5713 C   0  0  0  0  0  0  0  0  0  0  0  0
    8.2363   -2.6409   21.9955 C   0  0  0  0  0  0  0  0  0  0  0  0
   13.5622   -0.0614   23.9994 N   0  0  0  0  0  0  0  0  0  0  0  0
    7.9018    0.1587   18.3107 N   0  0  0  0  0  0  0  0  0  0  0  0
    9.5590   -0.5915   21.4646 N   0  0  0  0  0  0  0  0  0  0  0  0
   11.0330    1.0919   20.7318 O   0  0  0  0  0  0  0  0  0  0  0  0
    9.9565   -1.8537   23.4193 O   0  0  0  0  0  0  0  0  0  0  0  0
   12.0432    1.9782   23.5730 Cl  0  0  0  0  0  0  0  0  0  0  0  0
  1  2  2  0  0  0  0
  1  3  1  0  0  0  0
  2  4  1  0  0  0  0
  3 15  2  0  0  0  0
  4  5  2  0  0  0  0
  4  9  1  0  0  0  0
  5 15  1  0  0  0  0
  5 20  1  0  0  0  0
  6  7  1  0  0  0  0
  6 16  2  0  0  0  0
  7  8  2  0  0  0  0
  7 17  1  0  0  0  0
  8 11  1  0  0  0  0
  8 13  1  0  0  0  0
  9 17  1  0  0  0  0
  9 18  2  0  0  0  0
 10 14  1  0  0  0  0
 10 17  1  0  0  0  0
 10 19  2  0  0  0  0
 11 12  1  0  0  0  0
 12 16  1  0  0  0  0
M  END

> <original SMILES>

CC(=O)N(C(=O)c1cccnc1Cl)C1=CNCC=C1C

> <ref_mols>

x0107_0,x0397_0,x1374_0,x1425_0,x1478_0

> <ref_pdb>

receptors/Mpro-x1425-protein.pdb

> <Chemgauss4>

-2.92043

> <binding_free_energy>

-0.8705609424593348

> <binding_std_error>

0.4857367428025989

$$$$
MIH-UNI-6b9ca91a-4
  -OEChem-05122002103D

 23 25  0     1  0  0  0  0  0999 V2000
    5.8623    0.3078   19.0201 C   0  0  0  0  0  0  0  0  0  0  0  0
    6.8676    0.0433   19.9435 C   0  0  0  0  0  0  0  0  0  0  0  0
   13.1732   -0.4843   24.1825 C   0  0  0  0  0  0  0  0  0  0  0  0
    6.2105    0.3625   17.6802 C   0  0  0  0  0  0  0  0  0  0  0  0
    8.4167   -0.0804   18.1432 C   0  0  0  0  0  0  0  0  0  0  0  0
   14.4320   -0.9455   24.4991 C   0  0  0  0  0  0  0  0  0  0  0  0
   13.2686   -2.4396   22.9294 C   0  0  0  0  0  0  0  0  0  0  0  0
   12.4991   -1.3498   23.2732 C   0  0  0  0  0  0  0  0  0  0  0  0
    8.1720   -0.1556   19.5049 C   0  0  0  0  0  0  0  0  0  0  0  0
   11.0082    0.2034   21.9345 C   0  0  0  0  0  0  0  0  0  0  0  0
   10.0450   -1.0845   23.8658 C   0  0  0  0  0  0  0  0  0  0  0  0
   11.0986   -1.0982   22.7461 C   0  0  2  0  0  0  0  0  0  0  0  0
    9.5791    0.4809   21.4646 C   0  0  1  0  0  0  0  0  0  0  0  0
    8.6592   -0.7882   23.2876 C   0  0  1  0  0  0  0  0  0  0  0  0
    7.4663    0.1745   17.2162 N   0  0  0  0  0  0  0  0  0  0  0  0
    9.1930   -0.4207   20.4007 N   0  0  0  0  0  0  0  0  0  0  0  0
    7.6876   -0.8088   24.4198 N   0  3  0  0  0  0  0  0  0  0  0  0
    8.6610    0.4430   22.5618 O   0  0  0  0  0  0  0  0  0  0  0  0
   14.7967   -2.4163   23.7017 S   0  0  0  0  0  0  0  0  0  0  0  0
    9.7011   -1.2916   20.3095 H   0  0  0  0  0  0  0  0  0  0  0  0
    6.8299   -0.3137   24.1651 H   0  0  0  0  0  0  0  0  0  0  0  0
    8.0892   -0.3561   25.2443 H   0  0  0  0  0  0  0  0  0  0  0  0
    7.4443   -1.7711   24.6658 H   0  0  0  0  0  0  0  0  0  0  0  0
  1  2  2  0  0  0  0
  1  4  1  0  0  0  0
  2  9  1  0  0  0  0
  3  6  2  0  0  0  0
  3  8  1  0  0  0  0
  4 15  2  0  0  0  0
  5  9  2  0  0  0  0
  5 15  1  0  0  0  0
  6 19  1  0  0  0  0
  7  8  2  0  0  0  0
  7 19  1  0  0  0  0
  8 12  1  0  0  0  0
  9 16  1  0  0  0  0
 10 12  1  0  0  0  0
 10 13  1  0  0  0  0
 11 12  1  0  0  0  0
 11 14  1  0  0  0  0
 13 16  1  0  0  0  0
 13 18  1  0  0  0  0
 14 17  1  0  0  0  0
 14 18  1  0  0  0  0
 16 20  1  0  0  0  0
 17 21  1  0  0  0  0
 17 22  1  0  0  0  0
 17 23  1  0  0  0  0
M  CHG  1  17   1
M  END

> <original SMILES>

N[C@@H]1C[C@H](c2ccsc2)C[C@@H](Nc2cccnc2)O1

> <ref_mols>

x0072_0,x0107_0,x0161_0,x0305_0,x0387_0,x0434_0,x0874_0

> <ref_pdb>

receptors/protein-0387.pdb

> <Chemgauss4>

-5.77264451980591

> <binding_free_energy>

-0.8462333151991146

> <binding_std_error>

6.937793650869191

$$$$
DAR-DIA-eace69ff-36
  -OEChem-05122002103D

 16 17  0     0  0  0  0  0  0999 V2000
   14.5556   -0.6852   22.2748 C   0  0  0  0  0  0  0  0  0  0  0  0
   13.6123   -1.6383   22.6693 C   0  0  0  0  0  0  0  0  0  0  0  0
   11.9433    0.0849   23.0461 C   0  0  0  0  0  0  0  0  0  0  0  0
   14.0722    2.8994   22.0939 C   0  0  0  0  0  0  0  0  0  0  0  0
   12.8773    1.0637   22.6523 C   0  0  0  0  0  0  0  0  0  0  0  0
   12.8369    2.4810   22.5319 C   0  0  0  0  0  0  0  0  0  0  0  0
   14.1593    0.6569   22.2765 C   0  0  0  0  0  0  0  0  0  0  0  0
   12.3257   -1.2614   23.0494 C   0  0  0  0  0  0  0  0  0  0  0  0
   10.6210    4.9518   24.4225 C   0  0  0  0  0  0  0  0  0  0  0  0
   11.6820    3.3555   22.8209 C   0  0  0  0  0  0  0  0  0  0  0  0
   14.8629    1.7920   21.9425 N   0  0  0  0  0  0  0  0  0  0  0  0
   11.8045    4.1164   24.1017 N   0  3  0  0  0  0  0  0  0  0  0  0
   11.4430   -2.1985   23.4214 F   0  0  0  0  0  0  0  0  0  0  0  0
   15.8244    1.8055   21.6314 H   0  0  0  0  0  0  0  0  0  0  0  0
   12.6404    4.7106   24.0528 H   0  0  0  0  0  0  0  0  0  0  0  0
   11.9714    3.4509   24.8655 H   0  0  0  0  0  0  0  0  0  0  0  0
  1  2  2  0  0  0  0
  1  7  1  0  0  0  0
  2  8  1  0  0  0  0
  3  5  1  0  0  0  0
  3  8  2  0  0  0  0
  4  6  2  0  0  0  0
  4 11  1  0  0  0  0
  5  6  1  0  0  0  0
  5  7  2  0  0  0  0
  6 10  1  0  0  0  0
  7 11  1  0  0  0  0
  8 13  1  0  0  0  0
  9 12  1  0  0  0  0
 10 12  1  0  0  0  0
 11 14  1  0  0  0  0
 12 15  1  0  0  0  0
 12 16  1  0  0  0  0
M  CHG  1  12   1
M  END

> <original SMILES>

CNCc1c[nH]c2ccc(F)cc12

> <ref_mols>

x0104_0

> <ref_pdb>

receptors/Mpro-x0104-protein.pdb

> <Chemgauss4>

-7.297389

> <binding_free_energy>

-0.8045180407957204

> <binding_std_error>

2.8994785259689255

$$$$
SCO-VAN-260d9628-2
  -OEChem-05122002103D

 23 24  0     1  0  0  0  0  0999 V2000
   12.3100   -0.3622   23.6745 C   0  0  0  0  0  0  0  0  0  0  0  0
   11.4545   -0.3473   24.7761 C   0  0  0  0  0  0  0  0  0  0  0  0
   12.0129   -1.1628   22.5715 C   0  0  0  0  0  0  0  0  0  0  0  0
   10.3021   -1.1331   24.7749 C   0  0  0  0  0  0  0  0  0  0  0  0
   10.8604   -1.9486   22.5703 C   0  0  0  0  0  0  0  0  0  0  0  0
   10.0050   -1.9338   23.6720 C   0  0  0  0  0  0  0  0  0  0  0  0
    6.7334   -2.4867   22.1468 C   0  0  0  0  0  0  0  0  0  0  0  0
    8.2242   -4.5252   22.0182 C   0  0  0  0  0  0  0  0  0  0  0  0
    8.1297   -5.1265   23.4098 C   0  0  0  0  0  0  0  0  0  0  0  0
    8.7478   -2.7916   23.6701 C   0  0  1  0  0  0  0  0  0  0  0  0
    8.1678   -3.0110   22.2465 C   0  0  2  0  0  0  0  0  0  0  0  0
    8.9966   -4.1995   24.2534 C   0  0  1  0  0  0  0  0  0  0  0  0
    6.2740   -4.7271   28.1989 C   0  0  0  0  0  0  0  0  0  0  0  0
    8.5984   -4.2712   25.6948 C   0  0  0  0  0  0  0  0  0  0  0  0
    6.6238   -1.1305   22.3439 N   0  0  0  0  0  0  0  0  0  0  0  0
    7.2386   -3.8743   25.8383 N   0  0  0  0  0  0  0  0  0  0  0  0
    5.7843   -3.2254   21.8958 O   0  0  0  0  0  0  0  0  0  0  0  0
    6.4755   -6.3337   26.1426 O   0  0  0  0  0  0  0  0  0  0  0  0
    4.7235   -4.5210   26.1111 O   0  0  0  0  0  0  0  0  0  0  0  0
    6.0559   -4.9810   26.4525 S   0  0  0  0  0  0  0  0  0  0  0  0
    7.4655   -0.5963   22.5333 H   0  0  0  0  0  0  0  0  0  0  0  0
    5.7349   -0.6422   22.3075 H   0  0  0  0  0  0  0  0  0  0  0  0
    7.0699   -2.8781   26.1226 H   0  0  0  0  0  0  0  0  0  0  0  0
  1  2  1  0  0  0  0
  1  3  2  0  0  0  0
  2  4  2  0  0  0  0
  3  5  1  0  0  0  0
  4  6  1  0  0  0  0
  5  6  2  0  0  0  0
  6 10  1  0  0  0  0
  7 11  1  0  0  0  0
  7 15  1  0  0  0  0
  7 17  2  0  0  0  0
  8  9  1  0  0  0  0
  8 11  1  0  0  0  0
  9 12  1  0  0  0  0
 10 11  1  0  0  0  0
 10 12  1  0  0  0  0
 12 14  1  0  0  0  0
 13 20  1  0  0  0  0
 14 16  1  0  0  0  0
 16 20  1  0  0  0  0
 18 20  2  0  0  0  0
 19 20  2  0  0  0  0
 15 21  1  0  0  0  0
 15 22  1  0  0  0  0
 16 23  1  0  0  0  0
M  END

> <original SMILES>

CS(=O)(=O)NCC1CCC(C(N)=O)C1c1ccccc1

> <ref_mols>

x0072_0,x0397_0

> <ref_pdb>

receptors/Mpro-x0072-protein.pdb

> <Chemgauss4>

-6.777569

> <binding_free_energy>

-0.7951773812882905

> <binding_std_error>

2.6577660033735047

$$$$
NIR-THE-c331be7a-6
  -OEChem-05122002103D

 21 23  0     1  0  0  0  0  0999 V2000
    6.5802   -4.9837   23.3642 C   0  0  0  0  0  0  0  0  0  0  0  0
    7.2812   -4.5837   24.4982 C   0  0  0  0  0  0  0  0  0  0  0  0
   11.8029   -1.9076   22.4488 C   0  0  0  0  0  0  0  0  0  0  0  0
    6.4250   -4.1033   22.2939 C   0  0  0  0  0  0  0  0  0  0  0  0
    7.8250   -3.3018   24.5646 C   0  0  0  0  0  0  0  0  0  0  0  0
   10.4163   -1.9279   22.5986 C   0  0  0  0  0  0  0  0  0  0  0  0
   12.5632   -0.9509   23.1216 C   0  0  0  0  0  0  0  0  0  0  0  0
   10.5500   -0.0348   24.0937 C   0  0  0  0  0  0  0  0  0  0  0  0
    9.7898   -0.9916   23.4210 C   0  0  0  0  0  0  0  0  0  0  0  0
    6.9722   -2.8122   22.3443 C   0  0  0  0  0  0  0  0  0  0  0  0
    7.6727   -2.4050   23.4948 C   0  0  0  0  0  0  0  0  0  0  0  0
   11.9367   -0.0145   23.9440 C   0  0  0  0  0  0  0  0  0  0  0  0
    7.9438    0.1280   20.1718 C   0  0  0  0  0  0  0  0  0  0  0  0
    6.7815   -1.8951   21.1603 C   0  0  0  0  0  0  0  0  0  0  0  0
    7.5860   -0.0477   22.6102 C   0  0  0  0  0  0  0  0  0  0  0  0
    8.2756   -1.0154   23.5852 C   0  0  2  0  0  0  0  0  0  0  0  0
   12.7496    1.0089   24.6628 C   0  0  0  0  0  0  0  0  0  0  0  0
    7.6767   -0.4578   18.8074 C   0  0  0  0  0  0  0  0  0  0  0  0
    7.4919   -0.6140   21.2654 N   0  0  0  0  0  0  0  0  0  0  0  0
    8.5404    1.2038   20.2618 O   0  0  0  0  0  0  0  0  0  0  0  0
    6.0947    0.1300   18.3088 Cl  0  0  0  0  0  0  0  0  0  0  0  0
  1  2  1  0  0  0  0
  1  4  2  0  0  0  0
  2  5  2  0  0  0  0
  3  6  1  0  0  0  0
  3  7  2  0  0  0  0
  4 10  1  0  0  0  0
  5 11  1  0  0  0  0
  6  9  2  0  0  0  0
  7 12  1  0  0  0  0
  8  9  1  0  0  0  0
  8 12  2  0  0  0  0
  9 16  1  0  0  0  0
 10 11  2  0  0  0  0
 10 14  1  0  0  0  0
 11 16  1  0  0  0  0
 12 17  1  0  0  0  0
 13 18  1  0  0  0  0
 13 19  1  0  0  0  0
 13 20  2  0  0  0  0
 14 19  1  0  0  0  0
 15 16  1  0  0  0  0
 15 19  1  0  0  0  0
 18 21  1  0  0  0  0
M  END

> <original SMILES>

Cc1cccc(C2CN(C(=O)CCl)Cc3ccccc32)c1

> <ref_mols>

x0104_0,x0195_0,x0305_0,x0874_0,x1420_0

> <ref_pdb>

receptors/Mpro-x0195-protein.pdb

> <Chemgauss4>

-8.538264

> <binding_free_energy>

-0.746202181718175

> <binding_std_error>

4.274382057354884

$$$$
ALV-UNI-7ff1a6f9-19
  -OEChem-05122002103D

 26 29  0     0  0  0  0  0  0999 V2000
   10.6608    3.4097   24.0759 C   0  0  0  0  0  0  0  0  0  0  0  0
   12.8047    3.7360   23.0109 C   0  0  0  0  0  0  0  0  0  0  0  0
   10.3874    4.7709   23.9425 C   0  0  0  0  0  0  0  0  0  0  0  0
   12.5313    5.0972   22.8774 C   0  0  0  0  0  0  0  0  0  0  0  0
   10.1677    1.1406   21.1710 C   0  0  0  0  0  0  0  0  0  0  0  0
    9.0312   -0.0881   22.8004 C   0  0  0  0  0  0  0  0  0  0  0  0
   11.8696    2.8922   23.6102 C   0  0  0  0  0  0  0  0  0  0  0  0
   10.2086    0.5078   22.3967 C   0  0  0  0  0  0  0  0  0  0  0  0
   11.3225    5.6147   23.3432 C   0  0  0  0  0  0  0  0  0  0  0  0
   12.1504    1.4945   23.7474 C   0  0  0  0  0  0  0  0  0  0  0  0
   11.4073    0.4719   23.2064 C   0  0  0  0  0  0  0  0  0  0  0  0
   13.1431   -0.2990   24.3534 C   0  0  0  0  0  0  0  0  0  0  0  0
    7.9834    0.5750   20.8953 C   0  0  0  0  0  0  0  0  0  0  0  0
   13.9667   -1.3411   24.8725 C   0  0  0  0  0  0  0  0  0  0  0  0
   12.4942   -2.9819   23.8157 C   0  0  0  0  0  0  0  0  0  0  0  0
   11.7155   -2.0044   23.3245 C   0  0  0  0  0  0  0  0  0  0  0  0
   13.6646   -2.6338   24.6206 C   0  0  0  0  0  0  0  0  0  0  0  0
   14.4883   -3.7726   25.1384 C   0  0  0  0  0  0  0  0  0  0  0  0
    9.0681    1.1938   20.3911 N   0  0  0  0  0  0  0  0  0  0  0  0
    7.8955   -0.0737   22.0721 N   0  0  0  0  0  0  0  0  0  0  0  0
   13.2221    1.0122   24.4552 N   0  0  0  0  0  0  0  0  0  0  0  0
   12.0420   -0.6801   23.5941 N   0  0  0  0  0  0  0  0  0  0  0  0
    6.8133    0.6095   20.1055 N   0  0  0  0  0  0  0  0  0  0  0  0
   11.0598    6.9219   23.2151 F   0  0  0  0  0  0  0  0  0  0  0  0
    6.8212    1.1202   19.2469 H   0  0  0  0  0  0  0  0  0  0  0  0
    5.9734    0.2035   20.4634 H   0  0  0  0  0  0  0  0  0  0  0  0
  1  3  2  0  0  0  0
  1  7  1  0  0  0  0
  2  4  1  0  0  0  0
  2  7  2  0  0  0  0
  3  9  1  0  0  0  0
  4  9  2  0  0  0  0
  5  8  1  0  0  0  0
  5 19  2  0  0  0  0
  6  8  2  0  0  0  0
  6 20  1  0  0  0  0
  7 10  1  0  0  0  0
  8 11  1  0  0  0  0
  9 24  1  0  0  0  0
 10 11  2  0  0  0  0
 10 21  1  0  0  0  0
 11 22  1  0  0  0  0
 12 14  1  0  0  0  0
 12 21  2  0  0  0  0
 12 22  1  0  0  0  0
 13 19  1  0  0  0  0
 13 20  2  0  0  0  0
 13 23  1  0  0  0  0
 14 17  2  0  0  0  0
 15 16  2  0  0  0  0
 15 17  1  0  0  0  0
 16 22  1  0  0  0  0
 17 18  1  0  0  0  0
 23 25  1  0  0  0  0
 23 26  1  0  0  0  0
M  END

> <original SMILES>

Cc1ccn2c(-c3cnc(N)nc3)c(-c3ccc(F)cc3)nc2c1

> <ref_mols>

x0395_0,x0426_0,x0434_0,x0540_0,x0678_0,x0830_0,x1093_0

> <ref_pdb>

receptors/Mpro-x0395-protein.pdb

> <Chemgauss4>

-4.879712

> <binding_free_energy>

-0.7187482585858689

> <binding_std_error>

0.09761851593218403

$$$$
ALV-UNI-7ff1a6f9-26
  -OEChem-05122002103D

 26 29  0     0  0  0  0  0  0999 V2000
   11.9604   -0.2737   23.2192 C   0  0  0  0  0  0  0  0  0  0  0  0
   13.8523    1.1025   22.6159 C   0  0  0  0  0  0  0  0  0  0  0  0
   12.6291   -1.4015   22.7433 C   0  0  0  0  0  0  0  0  0  0  0  0
   14.5210   -0.0253   22.1401 C   0  0  0  0  0  0  0  0  0  0  0  0
    9.6444    0.4848   25.6821 C   0  0  0  0  0  0  0  0  0  0  0  0
    8.6896    0.8378   23.5031 C   0  0  0  0  0  0  0  0  0  0  0  0
    8.6922   -0.5020   25.8802 C   0  0  0  0  0  0  0  0  0  0  0  0
   12.5720    0.9784   23.1554 C   0  0  0  0  0  0  0  0  0  0  0  0
    9.6363    1.1628   24.4682 C   0  0  0  0  0  0  0  0  0  0  0  0
   10.6005    2.1931   24.2144 C   0  0  0  0  0  0  0  0  0  0  0  0
   13.9094   -1.2774   22.2038 C   0  0  0  0  0  0  0  0  0  0  0  0
   11.8809    2.1439   23.6469 C   0  0  0  0  0  0  0  0  0  0  0  0
    7.7803   -0.1650   23.7986 C   0  0  0  0  0  0  0  0  0  0  0  0
   10.4001    3.5204   24.5178 C   0  0  0  0  0  0  0  0  0  0  0  0
   11.6793    5.5690   24.2920 C   0  0  0  0  0  0  0  0  0  0  0  0
    9.4971    5.4638   25.2279 C   0  0  0  0  0  0  0  0  0  0  0  0
   10.6847    6.2783   24.8418 C   0  0  0  0  0  0  0  0  0  0  0  0
   10.6753    7.7447   25.0867 C   0  0  0  0  0  0  0  0  0  0  0  0
    7.7570   -0.8456   24.9664 N   0  0  0  0  0  0  0  0  0  0  0  0
   12.4671    3.3389   23.5848 N   0  0  0  0  0  0  0  0  0  0  0  0
    9.3509    4.1813   25.0836 N   0  0  0  0  0  0  0  0  0  0  0  0
   11.5564    4.1926   24.1218 N   0  0  0  0  0  0  0  0  0  0  0  0
    6.8214   -0.4853   22.8058 N   0  0  0  0  0  0  0  0  0  0  0  0
   14.5515   -2.3605   21.7469 F   0  0  0  0  0  0  0  0  0  0  0  0
    6.8053    0.0464   21.9629 H   0  0  0  0  0  0  0  0  0  0  0  0
    6.1266   -1.1699   23.0112 H   0  0  0  0  0  0  0  0  0  0  0  0
  1  3  2  0  0  0  0
  1  8  1  0  0  0  0
  2  4  1  0  0  0  0
  2  8  2  0  0  0  0
  3 11  1  0  0  0  0
  4 11  2  0  0  0  0
  5  7  2  0  0  0  0
  5  9  1  0  0  0  0
  6  9  2  0  0  0  0
  6 13  1  0  0  0  0
  7 19  1  0  0  0  0
  8 12  1  0  0  0  0
  9 10  1  0  0  0  0
 10 12  1  0  0  0  0
 10 14  2  0  0  0  0
 11 24  1  0  0  0  0
 12 20  2  0  0  0  0
 13 19  2  0  0  0  0
 13 23  1  0  0  0  0
 14 21  1  0  0  0  0
 14 22  1  0  0  0  0
 15 17  2  0  0  0  0
 15 22  1  0  0  0  0
 16 17  1  0  0  0  0
 16 21  2  0  0  0  0
 17 18  1  0  0  0  0
 20 22  1  0  0  0  0
 23 25  1  0  0  0  0
 23 26  1  0  0  0  0
M  END

> <original SMILES>

Cc1cnc2c(-c3ccnc(N)c3)c(-c3ccc(F)cc3)nn2c1

> <ref_mols>

x0395_0,x0426_0,x0434_0,x0540_0,x0678_0,x0830_0,x1093_0

> <ref_pdb>

receptors/Mpro-x0830-protein.pdb

> <Chemgauss4>

-1.52448

> <binding_free_energy>

-0.4788749761538611

> <binding_std_error>

2.5134048068857946

$$$$
WAR-XCH-b72a1bbc-6
  -OEChem-05122002103D

 24 26  0     0  0  0  0  0  0999 V2000
   11.9765    1.3634   23.3874 C   0  0  0  0  0  0  0  0  0  0  0  0
   10.1969    2.6422   24.4048 C   0  0  0  0  0  0  0  0  0  0  0  0
   12.6499    2.5455   23.0796 C   0  0  0  0  0  0  0  0  0  0  0  0
   10.8704    3.8243   24.0971 C   0  0  0  0  0  0  0  0  0  0  0  0
    6.9844   -3.5452   23.7339 C   0  0  0  0  0  0  0  0  0  0  0  0
    6.5735   -4.4771   24.7304 C   0  0  0  0  0  0  0  0  0  0  0  0
   10.7499    1.4117   24.0500 C   0  0  0  0  0  0  0  0  0  0  0  0
   12.0969    3.7759   23.4344 C   0  0  0  0  0  0  0  0  0  0  0  0
    8.2971   -3.1601   23.8954 C   0  0  0  0  0  0  0  0  0  0  0  0
    7.5881   -4.7690   25.6155 C   0  0  0  0  0  0  0  0  0  0  0  0
   10.5948   -1.9812   23.4477 C   0  0  0  0  0  0  0  0  0  0  0  0
    8.4220   -0.8080   22.9062 C   0  0  0  0  0  0  0  0  0  0  0  0
   10.8061   -1.0083   24.6187 C   0  0  0  0  0  0  0  0  0  0  0  0
    8.6425    0.0710   24.1364 C   0  0  0  0  0  0  0  0  0  0  0  0
    9.1129   -2.1867   23.0484 C   0  0  0  0  0  0  0  0  0  0  0  0
   10.0789    0.2349   24.3567 N   0  0  0  0  0  0  0  0  0  0  0  0
   12.3007    5.6002   21.5018 N   0  0  0  0  0  0  0  0  0  0  0  0
   12.5015    6.2887   23.9779 O   0  0  0  0  0  0  0  0  0  0  0  0
   14.3581    4.9592   22.9135 O   0  0  0  0  0  0  0  0  0  0  0  0
    9.0286   -3.9210   25.2438 S   0  0  0  0  0  0  0  0  0  0  0  0
   12.9389    5.2560   23.0490 S   0  0  0  0  0  0  0  0  0  0  0  0
    7.5365   -5.8309   26.9596 Cl  0  0  0  0  0  0  0  0  0  0  0  0
   11.6481    6.3888   21.4142 H   0  0  0  0  0  0  0  0  0  0  0  0
   12.9164    5.4785   20.6885 H   0  0  0  0  0  0  0  0  0  0  0  0
  1  3  2  0  0  0  0
  1  7  1  0  0  0  0
  2  4  1  0  0  0  0
  2  7  2  0  0  0  0
  3  8  1  0  0  0  0
  4  8  2  0  0  0  0
  5  6  1  0  0  0  0
  5  9  2  0  0  0  0
  6 10  2  0  0  0  0
  7 16  1  0  0  0  0
  8 21  1  0  0  0  0
  9 15  1  0  0  0  0
  9 20  1  0  0  0  0
 10 20  1  0  0  0  0
 10 22  1  0  0  0  0
 11 13  1  0  0  0  0
 11 15  1  0  0  0  0
 12 14  1  0  0  0  0
 12 15  1  0  0  0  0
 13 16  1  0  0  0  0
 14 16  1  0  0  0  0
 17 21  1  0  0  0  0
 18 21  2  0  0  0  0
 19 21  2  0  0  0  0
 17 23  1  0  0  0  0
 17 24  1  0  0  0  0
M  END

> <original SMILES>

NS(=O)(=O)c1ccc(N2CCC(c3ccc(Cl)s3)CC2)cc1

> <ref_mols>

x0072_0,x0104_0,x0107_0,x0161_0,x0165_0

> <ref_pdb>

receptors/Mpro-x0104-protein.pdb

> <Chemgauss4>

-5.656148

> <binding_free_energy>

-0.453244990815854

> <binding_std_error>

0.32231056624679083

$$$$
ALV-UNI-7ff1a6f9-44
  -OEChem-05122002103D

 26 30  0     0  0  0  0  0  0999 V2000
    9.5314   -1.0002   25.8300 C   0  0  0  0  0  0  0  0  0  0  0  0
    7.5992    0.0122   24.7913 C   0  0  0  0  0  0  0  0  0  0  0  0
    8.7272   -2.0265   26.3256 C   0  0  0  0  0  0  0  0  0  0  0  0
    6.7950   -1.0141   25.2868 C   0  0  0  0  0  0  0  0  0  0  0  0
   10.7299   -1.1288   22.2675 C   0  0  0  0  0  0  0  0  0  0  0  0
   13.8400   -0.0370   24.1430 C   0  0  0  0  0  0  0  0  0  0  0  0
   11.3664   -2.2446   21.7406 C   0  0  0  0  0  0  0  0  0  0  0  0
   14.9468   -0.8452   23.9967 C   0  0  0  0  0  0  0  0  0  0  0  0
   12.7896   -0.6047   23.3743 C   0  0  0  0  0  0  0  0  0  0  0  0
    8.9674    0.0192   25.0628 C   0  0  0  0  0  0  0  0  0  0  0  0
   11.4498   -0.2804   23.1068 C   0  0  0  0  0  0  0  0  0  0  0  0
    7.3590   -2.0335   26.0540 C   0  0  0  0  0  0  0  0  0  0  0  0
    9.7935    1.0736   24.5539 C   0  0  0  0  0  0  0  0  0  0  0  0
   10.8707    0.9014   23.6999 C   0  0  0  0  0  0  0  0  0  0  0  0
   13.3015   -1.7540   22.7790 C   0  0  0  0  0  0  0  0  0  0  0  0
   10.5422    3.0068   24.2128 C   0  0  0  0  0  0  0  0  0  0  0  0
   12.3497    2.7601   22.7844 C   0  0  0  0  0  0  0  0  0  0  0  0
   12.3519    4.0969   22.9464 C   0  0  0  0  0  0  0  0  0  0  0  0
   13.2958    5.0696   22.3346 C   0  0  0  0  0  0  0  0  0  0  0  0
   12.6516   -2.6054   21.9631 N   0  0  0  0  0  0  0  0  0  0  0  0
    9.5926    2.4038   24.8727 N   0  0  0  0  0  0  0  0  0  0  0  0
   14.6090   -1.8830   23.1672 N   0  0  0  0  0  0  0  0  0  0  0  0
   11.3353    2.1647   23.4959 N   0  0  0  0  0  0  0  0  0  0  0  0
    6.5868   -3.0191   26.5300 F   0  0  0  0  0  0  0  0  0  0  0  0
   11.0467    4.6574   24.0245 S   0  0  0  0  0  0  0  0  0  0  0  0
   15.2287   -2.6296   22.8851 H   0  0  0  0  0  0  0  0  0  0  0  0
  1  3  2  0  0  0  0
  1 10  1  0  0  0  0
  2  4  1  0  0  0  0
  2 10  2  0  0  0  0
  3 12  1  0  0  0  0
  4 12  2  0  0  0  0
  5  7  2  0  0  0  0
  5 11  1  0  0  0  0
  6  8  2  0  0  0  0
  6  9  1  0  0  0  0
  7 20  1  0  0  0  0
  8 22  1  0  0  0  0
  9 11  2  0  0  0  0
  9 15  1  0  0  0  0
 10 13  1  0  0  0  0
 11 14  1  0  0  0  0
 12 24  1  0  0  0  0
 13 14  2  0  0  0  0
 13 21  1  0  0  0  0
 14 23  1  0  0  0  0
 15 20  2  0  0  0  0
 15 22  1  0  0  0  0
 16 21  2  0  0  0  0
 16 23  1  0  0  0  0
 16 25  1  0  0  0  0
 17 18  2  0  0  0  0
 17 23  1  0  0  0  0
 18 19  1  0  0  0  0
 18 25  1  0  0  0  0
 22 26  1  0  0  0  0
M  END

> <original SMILES>

Cc1cn2c(-c3ccnc4[nH]ccc34)c(-c3ccc(F)cc3)nc2s1

> <ref_mols>

x0395_0,x0426_0,x0434_0,x0540_0,x0678_0,x0830_0,x1093_0

> <ref_pdb>

receptors/Mpro-x0395-protein.pdb

> <Chemgauss4>

-5.820459

> <binding_free_energy>

-0.39250342515928516

> <binding_std_error>

0.13878961305960474

$$$$
ALV-UNI-7ff1a6f9-38
  -OEChem-05122002103D

 23 26  0     0  0  0  0  0  0999 V2000
   11.8476   -0.2978   22.9013 C   0  0  0  0  0  0  0  0  0  0  0  0
   10.8012   -1.0472   22.3753 C   0  0  0  0  0  0  0  0  0  0  0  0
    9.6335   -4.3929   24.3771 C   0  0  0  0  0  0  0  0  0  0  0  0
    7.4273   -4.0547   25.3020 C   0  0  0  0  0  0  0  0  0  0  0  0
   10.0101   -5.0846   25.5284 C   0  0  0  0  0  0  0  0  0  0  0  0
    7.8038   -4.7465   26.4532 C   0  0  0  0  0  0  0  0  0  0  0  0
   11.6936    0.2272   24.1743 C   0  0  0  0  0  0  0  0  0  0  0  0
    9.5934   -0.6787   24.3907 C   0  0  0  0  0  0  0  0  0  0  0  0
    8.3421   -3.8779   24.2640 C   0  0  0  0  0  0  0  0  0  0  0  0
    9.6489   -1.2459   23.1278 C   0  0  0  0  0  0  0  0  0  0  0  0
    9.0953   -5.2615   26.5664 C   0  0  0  0  0  0  0  0  0  0  0  0
    7.9557   -3.1676   23.0822 C   0  0  0  0  0  0  0  0  0  0  0  0
    8.5432   -2.0207   22.6083 C   0  0  0  0  0  0  0  0  0  0  0  0
    6.8708   -2.6784   21.2946 C   0  0  0  0  0  0  0  0  0  0  0  0
    7.2192   -0.5424   19.5288 C   0  0  0  0  0  0  0  0  0  0  0  0
    8.0214   -0.6526   20.5927 C   0  0  0  0  0  0  0  0  0  0  0  0
    6.1863   -1.6185   19.4007 C   0  0  0  0  0  0  0  0  0  0  0  0
    5.2698   -1.5174   18.2087 C   0  0  0  0  0  0  0  0  0  0  0  0
   10.5895    0.0554   24.9353 N   0  0  0  0  0  0  0  0  0  0  0  0
    6.9271   -3.5678   22.2698 N   0  0  0  0  0  0  0  0  0  0  0  0
    6.0241   -2.6147   20.2247 N   0  0  0  0  0  0  0  0  0  0  0  0
    7.8507   -1.7095   21.4686 N   0  0  0  0  0  0  0  0  0  0  0  0
    9.4570   -5.9258   27.6719 F   0  0  0  0  0  0  0  0  0  0  0  0
  1  2  2  0  0  0  0
  1  7  1  0  0  0  0
  2 10  1  0  0  0  0
  3  5  2  0  0  0  0
  3  9  1  0  0  0  0
  4  6  1  0  0  0  0
  4  9  2  0  0  0  0
  5 11  1  0  0  0  0
  6 11  2  0  0  0  0
  7 19  2  0  0  0  0
  8 10  2  0  0  0  0
  8 19  1  0  0  0  0
  9 12  1  0  0  0  0
 10 13  1  0  0  0  0
 11 23  1  0  0  0  0
 12 13  2  0  0  0  0
 12 20  1  0  0  0  0
 13 22  1  0  0  0  0
 14 20  2  0  0  0  0
 14 21  1  0  0  0  0
 14 22  1  0  0  0  0
 15 16  2  0  0  0  0
 15 17  1  0  0  0  0
 16 22  1  0  0  0  0
 17 18  1  0  0  0  0
 17 21  2  0  0  0  0
M  END

> <original SMILES>

Cc1ccn2c(-c3cccnc3)c(-c3ccc(F)cc3)nc2n1

> <ref_mols>

x0395_0,x0426_0,x0434_0,x0540_0,x0678_0,x0830_0,x1093_0

> <ref_pdb>

receptors/Mpro-x0830-protein.pdb

> <Chemgauss4>

-5.454057

> <binding_free_energy>

-0.3126280313311227

> <binding_std_error>

0.08585760168129947

$$$$
ALV-UNI-7ff1a6f9-11
  -OEChem-05122002103D

 23 26  0     0  0  0  0  0  0999 V2000
   14.7461   -1.2862   23.7673 C   0  0  0  0  0  0  0  0  0  0  0  0
   13.8060   -0.2845   23.9820 C   0  0  0  0  0  0  0  0  0  0  0  0
    9.9148   -1.3585   25.0241 C   0  0  0  0  0  0  0  0  0  0  0  0
    8.4274   -0.7824   23.2095 C   0  0  0  0  0  0  0  0  0  0  0  0
    9.1716   -2.5137   25.2666 C   0  0  0  0  0  0  0  0  0  0  0  0
    7.6842   -1.9376   23.4519 C   0  0  0  0  0  0  0  0  0  0  0  0
   14.4899   -2.2129   22.7696 C   0  0  0  0  0  0  0  0  0  0  0  0
   12.4922   -1.2141   22.2310 C   0  0  0  0  0  0  0  0  0  0  0  0
    9.5427   -0.4928   23.9955 C   0  0  0  0  0  0  0  0  0  0  0  0
   12.6547   -0.2407   23.2036 C   0  0  0  0  0  0  0  0  0  0  0  0
   11.6669    0.7794   23.4015 C   0  0  0  0  0  0  0  0  0  0  0  0
    8.0563   -2.8032   24.4805 C   0  0  0  0  0  0  0  0  0  0  0  0
   10.3106    0.7010   23.7451 C   0  0  0  0  0  0  0  0  0  0  0  0
   11.9206    2.1259   23.2725 C   0  0  0  0  0  0  0  0  0  0  0  0
   10.6315    4.1684   23.4960 C   0  0  0  0  0  0  0  0  0  0  0  0
   12.9371    4.1108   22.9217 C   0  0  0  0  0  0  0  0  0  0  0  0
   11.7061    4.9078   23.1910 C   0  0  0  0  0  0  0  0  0  0  0  0
   11.7626    6.3908   23.1026 C   0  0  0  0  0  0  0  0  0  0  0  0
   13.3832   -2.2026   21.9932 N   0  0  0  0  0  0  0  0  0  0  0  0
    9.7278    1.8961   23.8332 N   0  0  0  0  0  0  0  0  0  0  0  0
   13.0515    2.8175   22.9556 N   0  0  0  0  0  0  0  0  0  0  0  0
   10.7183    2.7796   23.5419 N   0  0  0  0  0  0  0  0  0  0  0  0
    7.3426   -3.9126   24.7134 F   0  0  0  0  0  0  0  0  0  0  0  0
  1  2  2  0  0  0  0
  1  7  1  0  0  0  0
  2 10  1  0  0  0  0
  3  5  2  0  0  0  0
  3  9  1  0  0  0  0
  4  6  1  0  0  0  0
  4  9  2  0  0  0  0
  5 12  1  0  0  0  0
  6 12  2  0  0  0  0
  7 19  2  0  0  0  0
  8 10  2  0  0  0  0
  8 19  1  0  0  0  0
  9 13  1  0  0  0  0
 10 11  1  0  0  0  0
 11 13  1  0  0  0  0
 11 14  2  0  0  0  0
 12 23  1  0  0  0  0
 13 20  2  0  0  0  0
 14 21  1  0  0  0  0
 14 22  1  0  0  0  0
 15 17  2  0  0  0  0
 15 22  1  0  0  0  0
 16 17  1  0  0  0  0
 16 21  2  0  0  0  0
 17 18  1  0  0  0  0
 20 22  1  0  0  0  0
M  END

> <original SMILES>

Cc1cnc2c(-c3cccnc3)c(-c3ccc(F)cc3)nn2c1

> <ref_mols>

x0395_0,x0426_0,x0434_0,x0540_0,x0678_0,x0830_0,x1093_0

> <ref_pdb>

receptors/Mpro-x0678-protein.pdb

> <Chemgauss4>

-8.116777

> <binding_free_energy>

-0.25843917568741404

> <binding_std_error>

0.5181596853957287

$$$$
DAR-DIA-23aa0b97-8
  -OEChem-05122002103D

 23 24  0     0  0  0  0  0  0999 V2000
    6.0008   -3.4255   20.2397 C   0  0  0  0  0  0  0  0  0  0  0  0
    6.5313   -6.6131   22.0873 C   0  0  0  0  0  0  0  0  0  0  0  0
    5.9755   -5.6584   21.2358 C   0  0  0  0  0  0  0  0  0  0  0  0
    7.6823   -6.3123   22.8157 C   0  0  0  0  0  0  0  0  0  0  0  0
    7.7215   -4.1020   21.8410 C   0  0  0  0  0  0  0  0  0  0  0  0
   13.2268   -2.7429   25.3252 C   0  0  0  0  0  0  0  0  0  0  0  0
   13.2529   -0.6645   26.4812 C   0  0  0  0  0  0  0  0  0  0  0  0
   11.2377   -1.5251   25.7908 C   0  0  0  0  0  0  0  0  0  0  0  0
    6.5706   -4.4028   21.1126 C   0  0  0  0  0  0  0  0  0  0  0  0
    8.2774   -5.0568   22.6925 C   0  0  0  0  0  0  0  0  0  0  0  0
   13.9526   -1.7401   25.9584 C   0  0  0  0  0  0  0  0  0  0  0  0
   11.8431   -2.6409   25.2354 C   0  0  0  0  0  0  0  0  0  0  0  0
    9.8599   -3.4996   23.9130 C   0  0  0  0  0  0  0  0  0  0  0  0
    5.5381   -2.6317   19.5308 N   0  0  0  0  0  0  0  0  0  0  0  0
   11.9093   -0.5307   26.4135 N   0  0  0  0  0  0  0  0  0  0  0  0
   15.3511   -1.8150   26.0641 N   0  0  0  0  0  0  0  0  0  0  0  0
    9.4277   -4.7559   23.4222 N   0  0  0  0  0  0  0  0  0  0  0  0
   11.0773   -3.6451   24.5973 N   0  0  0  0  0  0  0  0  0  0  0  0
    9.2543   -2.4438   23.7591 O   0  0  0  0  0  0  0  0  0  0  0  0
   15.8296   -2.6260   25.7191 H   0  0  0  0  0  0  0  0  0  0  0  0
   15.8470   -1.1027   26.5666 H   0  0  0  0  0  0  0  0  0  0  0  0
   10.0422   -5.5500   23.6310 H   0  0  0  0  0  0  0  0  0  0  0  0
   11.4618   -4.5853   24.6431 H   0  0  0  0  0  0  0  0  0  0  0  0
  1  9  1  0  0  0  0
  1 14  3  0  0  0  0
  2  3  2  0  0  0  0
  2  4  1  0  0  0  0
  3  9  1  0  0  0  0
  4 10  2  0  0  0  0
  5  9  2  0  0  0  0
  5 10  1  0  0  0  0
  6 11  1  0  0  0  0
  6 12  2  0  0  0  0
  7 11  2  0  0  0  0
  7 15  1  0  0  0  0
  8 12  1  0  0  0  0
  8 15  2  0  0  0  0
 10 17  1  0  0  0  0
 11 16  1  0  0  0  0
 12 18  1  0  0  0  0
 13 17  1  0  0  0  0
 13 18  1  0  0  0  0
 13 19  2  0  0  0  0
 16 20  1  0  0  0  0
 16 21  1  0  0  0  0
 17 22  1  0  0  0  0
 18 23  1  0  0  0  0
M  END

> <original SMILES>

N#Cc1cccc(NC(=O)Nc2cncc(N)c2)c1

> <ref_mols>

x0104_0,x0305_0,x0434_0,x0678_0,x0995_0,x1093_0,x1249_0

> <ref_pdb>

receptors/Mpro-x1093-protein.pdb

> <Chemgauss4>

-7.190058

> <binding_free_energy>

-0.2380046523076942

> <binding_std_error>

0.1972538562890019

$$$$
WAR-XCH-b72a1bbc-36
  -OEChem-05122002103D

 26 28  0     0  0  0  0  0  0999 V2000
   13.2351    2.1504   22.7224 C   0  0  0  0  0  0  0  0  0  0  0  0
   11.5368    1.6669   24.3714 C   0  0  0  0  0  0  0  0  0  0  0  0
   12.8717    3.4969   22.7429 C   0  0  0  0  0  0  0  0  0  0  0  0
   11.1735    3.0134   24.3920 C   0  0  0  0  0  0  0  0  0  0  0  0
    7.8116   -4.8649   23.8417 C   0  0  0  0  0  0  0  0  0  0  0  0
    6.2052   -3.0750   23.8273 C   0  0  0  0  0  0  0  0  0  0  0  0
    6.7465   -5.7480   23.9169 C   0  0  0  0  0  0  0  0  0  0  0  0
    5.2120   -4.0382   23.9030 C   0  0  0  0  0  0  0  0  0  0  0  0
   12.5676    1.2354   23.5365 C   0  0  0  0  0  0  0  0  0  0  0  0
    7.5272   -3.5046   23.7964 C   0  0  0  0  0  0  0  0  0  0  0  0
   11.8409    3.9285   23.5778 C   0  0  0  0  0  0  0  0  0  0  0  0
   11.6020   -1.7886   22.3350 C   0  0  0  0  0  0  0  0  0  0  0  0
   11.7411   -1.7614   24.8629 C   0  0  0  0  0  0  0  0  0  0  0  0
   12.8580   -0.9171   22.2975 C   0  0  0  0  0  0  0  0  0  0  0  0
   12.9938   -0.8849   24.7586 C   0  0  0  0  0  0  0  0  0  0  0  0
   11.5638   -2.6429   23.6143 C   0  0  0  0  0  0  0  0  0  0  0  0
   10.2656   -3.4426   23.6942 C   0  0  0  0  0  0  0  0  0  0  0  0
    5.4494   -5.3683   23.9488 N   0  0  0  0  0  0  0  0  0  0  0  0
   12.9296   -0.1076   23.5164 N   0  0  0  0  0  0  0  0  0  0  0  0
   10.1897    5.6463   22.3832 N   0  0  0  0  0  0  0  0  0  0  0  0
   10.7556    5.8996   24.8854 O   0  0  0  0  0  0  0  0  0  0  0  0
   12.5237    6.4078   23.1639 O   0  0  0  0  0  0  0  0  0  0  0  0
    8.8408   -2.3262   23.7004 S   0  0  0  0  0  0  0  0  0  0  0  0
   11.3850    5.6136   23.6037 S   0  0  0  0  0  0  0  0  0  0  0  0
    9.2104    5.7636   22.6707 H   0  0  0  0  0  0  0  0  0  0  0  0
   10.4198    6.1090   21.4954 H   0  0  0  0  0  0  0  0  0  0  0  0
  1  3  2  0  0  0  0
  1  9  1  0  0  0  0
  2  4  1  0  0  0  0
  2  9  2  0  0  0  0
  3 11  1  0  0  0  0
  4 11  2  0  0  0  0
  5  7  2  0  0  0  0
  5 10  1  0  0  0  0
  6  8  1  0  0  0  0
  6 10  2  0  0  0  0
  7 18  1  0  0  0  0
  8 18  2  0  0  0  0
  9 19  1  0  0  0  0
 10 23  1  0  0  0  0
 11 24  1  0  0  0  0
 12 14  1  0  0  0  0
 12 16  1  0  0  0  0
 13 15  1  0  0  0  0
 13 16  1  0  0  0  0
 14 19  1  0  0  0  0
 15 19  1  0  0  0  0
 16 17  1  0  0  0  0
 17 23  1  0  0  0  0
 20 24  1  0  0  0  0
 21 24  2  0  0  0  0
 22 24  2  0  0  0  0
 20 25  1  0  0  0  0
 20 26  1  0  0  0  0
M  END

> <original SMILES>

NS(=O)(=O)c1ccc(N2CCC(CSc3ccncc3)CC2)cc1

> <ref_mols>

x0072_0,x0104_0,x0107_0,x0161_0,x0165_0

> <ref_pdb>

receptors/Mpro-x0165-protein.pdb

> <Chemgauss4>

0.094412

> <binding_free_energy>

-0.23661845199720943

> <binding_std_error>

0.21675356383997096

$$$$
JON-UIO-066ce08b-3
  -OEChem-05122002103D

 18 19  0     0  0  0  0  0  0999 V2000
    5.2205    0.7822   20.3387 C   0  0  0  0  0  0  0  0  0  0  0  0
    4.8311    1.1907   19.0680 C   0  0  0  0  0  0  0  0  0  0  0  0
    6.4628    0.1848   20.5206 C   0  0  0  0  0  0  0  0  0  0  0  0
    5.7134    0.9809   18.0205 C   0  0  0  0  0  0  0  0  0  0  0  0
    7.2720    0.0198   19.4081 C   0  0  0  0  0  0  0  0  0  0  0  0
    8.7582   -4.5935   24.6719 C   0  0  0  0  0  0  0  0  0  0  0  0
    9.2144   -0.3618   20.9295 C   0  0  0  0  0  0  0  0  0  0  0  0
    7.6665   -3.1693   22.9720 C   0  0  0  0  0  0  0  0  0  0  0  0
    9.8752   -2.4663   23.8926 C   0  0  0  0  0  0  0  0  0  0  0  0
    8.1429   -2.5240   21.6754 C   0  0  0  0  0  0  0  0  0  0  0  0
    9.4769   -1.1367   23.2617 C   0  0  0  0  0  0  0  0  0  0  0  0
    9.9444   -4.7968   25.5828 C   0  0  0  0  0  0  0  0  0  0  0  0
    8.6186   -0.6211   19.5672 C   0  0  0  0  0  0  0  0  0  0  0  0
    6.9282    0.4039   18.1583 N   0  0  0  0  0  0  0  0  0  0  0  0
    8.7815   -3.4453   23.8789 N   0  0  0  0  0  0  0  0  0  0  0  0
    8.9460   -1.3181   21.9100 N   0  0  0  0  0  0  0  0  0  0  0  0
    7.8430   -5.4200   24.6683 O   0  0  0  0  0  0  0  0  0  0  0  0
    9.8879    0.6538   21.1178 O   0  0  0  0  0  0  0  0  0  0  0  0
  1  2  1  0  0  0  0
  1  3  2  0  0  0  0
  2  4  2  0  0  0  0
  3  5  1  0  0  0  0
  4 14  1  0  0  0  0
  5 13  1  0  0  0  0
  5 14  2  0  0  0  0
  6 12  1  0  0  0  0
  6 15  1  0  0  0  0
  6 17  2  0  0  0  0
  7 13  1  0  0  0  0
  7 16  1  0  0  0  0
  7 18  2  0  0  0  0
  8 10  1  0  0  0  0
  8 15  1  0  0  0  0
  9 11  1  0  0  0  0
  9 15  1  0  0  0  0
 10 16  1  0  0  0  0
 11 16  1  0  0  0  0
M  END

> <original SMILES>

CC(=O)N1CCN(C(=O)Cc2ccccn2)CC1

> <ref_mols>

x0689_0,x0769_0,x0831_0,x1382_0

> <ref_pdb>

receptors/Mpro-x1382-protein.pdb

> <Chemgauss4>

-4.324941

> <binding_free_energy>

-0.19250112207220127

> <binding_std_error>

0.17632587809902361

$$$$
DAR-DIA-43a5904b-2
  -OEChem-05122002103D

 24 26  0     1  0  0  0  0  0999 V2000
   13.3811   -1.4265   21.0400 C   0  0  0  0  0  0  0  0  0  0  0  0
    5.5390    1.3547   19.1066 C   0  0  0  0  0  0  0  0  0  0  0  0
   12.0137   -1.4150   21.3151 C   0  0  0  0  0  0  0  0  0  0  0  0
    5.7641    0.3969   20.0891 C   0  0  0  0  0  0  0  0  0  0  0  0
   14.3024   -1.4880   22.0855 C   0  0  0  0  0  0  0  0  0  0  0  0
   12.4889   -1.5263   23.6814 C   0  0  0  0  0  0  0  0  0  0  0  0
    6.2010    1.2118   17.8978 C   0  0  0  0  0  0  0  0  0  0  0  0
    7.2448   -0.7125   18.5947 C   0  0  0  0  0  0  0  0  0  0  0  0
   11.5676   -1.4648   22.6358 C   0  0  0  0  0  0  0  0  0  0  0  0
    6.6319   -0.6596   19.8363 C   0  0  0  0  0  0  0  0  0  0  0  0
   13.8563   -1.5379   23.4062 C   0  0  0  0  0  0  0  0  0  0  0  0
    9.1814   -2.0676   21.9023 C   0  0  0  0  0  0  0  0  0  0  0  0
    8.0416   -1.3792   21.7654 C   0  0  0  0  0  0  0  0  0  0  0  0
   10.1352    1.0300   22.3270 C   0  0  0  0  0  0  0  0  0  0  0  0
    8.0006   -0.1849   22.6702 C   0  0  0  0  0  0  0  0  0  0  0  0
   10.0842   -1.4522   22.9336 C   0  0  2  0  0  0  0  0  0  0  0  0
    9.4603   -0.0506   23.1298 C   0  0  1  0  0  0  0  0  0  0  0  0
    6.8965   -1.7150   20.8810 C   0  0  0  0  0  0  0  0  0  0  0  0
    7.0511    0.1993   17.6156 N   0  0  0  0  0  0  0  0  0  0  0  0
   11.1484    1.6703   23.0005 N   0  0  0  0  0  0  0  0  0  0  0  0
    9.8056    1.2873   21.1718 O   0  0  0  0  0  0  0  0  0  0  0  0
   15.1052   -1.6211   24.8223 Br  0  0  0  0  0  0  0  0  0  0  0  0
   11.3605    1.3818   23.9499 H   0  0  0  0  0  0  0  0  0  0  0  0
   11.6928    2.4200   22.5862 H   0  0  0  0  0  0  0  0  0  0  0  0
  1  3  2  0  0  0  0
  1  5  1  0  0  0  0
  2  4  2  0  0  0  0
  2  7  1  0  0  0  0
  3  9  1  0  0  0  0
  4 10  1  0  0  0  0
  5 11  2  0  0  0  0
  6  9  2  0  0  0  0
  6 11  1  0  0  0  0
  7 19  2  0  0  0  0
  8 10  2  0  0  0  0
  8 19  1  0  0  0  0
  9 16  1  0  0  0  0
 10 18  1  0  0  0  0
 11 22  1  0  0  0  0
 12 13  2  0  0  0  0
 12 16  1  0  0  0  0
 13 15  1  0  0  0  0
 13 18  1  0  0  0  0
 14 17  1  0  0  0  0
 14 20  1  0  0  0  0
 14 21  2  0  0  0  0
 15 17  1  0  0  0  0
 16 17  1  0  0  0  0
 20 23  1  0  0  0  0
 20 24  1  0  0  0  0
M  END

> <original SMILES>

NC(=O)[C@H]1CC(Cc2cccnc2)=C[C@H]1c1cccc(Br)c1

> <ref_mols>

x0874_0

> <ref_pdb>

receptors/protein-0387.pdb

> <Chemgauss4>

-6.71505546569824

> <binding_free_energy>

-0.18536846392658868

> <binding_std_error>

0.07327584290551926

$$$$
ALV-UNI-7ff1a6f9-22
  -OEChem-05122002103D

 27 31  0     0  0  0  0  0  0999 V2000
   11.0320   -0.6330   22.6178 C   0  0  0  0  0  0  0  0  0  0  0  0
    9.1553   -1.0116   25.8923 C   0  0  0  0  0  0  0  0  0  0  0  0
    7.3341   -0.3134   24.4666 C   0  0  0  0  0  0  0  0  0  0  0  0
   11.8357   -1.6547   22.0659 C   0  0  0  0  0  0  0  0  0  0  0  0
    8.4687   -2.1878   26.1935 C   0  0  0  0  0  0  0  0  0  0  0  0
    6.6475   -1.4896   24.7677 C   0  0  0  0  0  0  0  0  0  0  0  0
   12.7625    0.2254   24.2146 C   0  0  0  0  0  0  0  0  0  0  0  0
   14.8175   -1.0910   23.9844 C   0  0  0  0  0  0  0  0  0  0  0  0
   13.5275   -0.7883   23.6519 C   0  0  0  0  0  0  0  0  0  0  0  0
    8.5881   -0.0744   25.0289 C   0  0  0  0  0  0  0  0  0  0  0  0
   11.4757    0.2621   23.6419 C   0  0  0  0  0  0  0  0  0  0  0  0
   10.5561    1.2563   24.1125 C   0  0  0  0  0  0  0  0  0  0  0  0
   13.1277   -1.7149   22.6198 C   0  0  0  0  0  0  0  0  0  0  0  0
    7.2148   -2.4268   25.6311 C   0  0  0  0  0  0  0  0  0  0  0  0
    9.2975    1.1411   24.7180 C   0  0  0  0  0  0  0  0  0  0  0  0
   10.7880    2.6107   24.0361 C   0  0  0  0  0  0  0  0  0  0  0  0
    9.5860    4.6200   24.6699 C   0  0  0  0  0  0  0  0  0  0  0  0
   11.7262    4.6246   23.6360 C   0  0  0  0  0  0  0  0  0  0  0  0
   10.5815    5.3890   24.2091 C   0  0  0  0  0  0  0  0  0  0  0  0
   10.6295    6.8749   24.2226 C   0  0  0  0  0  0  0  0  0  0  0  0
   14.1535   -2.5417   22.3504 N   0  0  0  0  0  0  0  0  0  0  0  0
    8.7535    2.3214   25.0122 N   0  0  0  0  0  0  0  0  0  0  0  0
   11.8358    3.3334   23.5488 N   0  0  0  0  0  0  0  0  0  0  0  0
   15.1392   -2.1435   23.1779 N   0  0  0  0  0  0  0  0  0  0  0  0
    9.6704    3.2325   24.5928 N   0  0  0  0  0  0  0  0  0  0  0  0
    6.5554   -3.5564   25.9204 F   0  0  0  0  0  0  0  0  0  0  0  0
   16.0195   -2.6413   23.1401 H   0  0  0  0  0  0  0  0  0  0  0  0
  1  4  2  0  0  0  0
  1 11  1  0  0  0  0
  2  5  2  0  0  0  0
  2 10  1  0  0  0  0
  3  6  1  0  0  0  0
  3 10  2  0  0  0  0
  4 13  1  0  0  0  0
  5 14  1  0  0  0  0
  6 14  2  0  0  0  0
  7  9  1  0  0  0  0
  7 11  2  0  0  0  0
  8  9  2  0  0  0  0
  8 24  1  0  0  0  0
  9 13  1  0  0  0  0
 10 15  1  0  0  0  0
 11 12  1  0  0  0  0
 12 15  1  0  0  0  0
 12 16  2  0  0  0  0
 13 21  2  0  0  0  0
 14 26  1  0  0  0  0
 15 22  2  0  0  0  0
 16 23  1  0  0  0  0
 16 25  1  0  0  0  0
 17 19  2  0  0  0  0
 17 25  1  0  0  0  0
 18 19  1  0  0  0  0
 18 23  2  0  0  0  0
 19 20  1  0  0  0  0
 21 24  1  0  0  0  0
 22 25  1  0  0  0  0
 24 27  1  0  0  0  0
M  END

> <original SMILES>

Cc1cnc2c(-c3ccc4[nH]ncc4c3)c(-c3ccc(F)cc3)nn2c1

> <ref_mols>

x0395_0,x0426_0,x0434_0,x0540_0,x0678_0,x0830_0,x1093_0

> <ref_pdb>

receptors/Mpro-x0830-protein.pdb

> <Chemgauss4>

-5.386162

> <binding_free_energy>

-0.05927138000001264

> <binding_std_error>

0.10605119608256235

$$$$
NIR-THE-0d6461ce-1
  -OEChem-05122002103D

 19 20  0     0  0  0  0  0  0999 V2000
   12.1406   -0.2952   24.4741 C   0  0  0  0  0  0  0  0  0  0  0  0
   13.2995   -0.7394   25.1106 C   0  0  0  0  0  0  0  0  0  0  0  0
   11.0361   -1.1404   24.3665 C   0  0  0  0  0  0  0  0  0  0  0  0
   12.2496   -2.8742   25.5319 C   0  0  0  0  0  0  0  0  0  0  0  0
   13.3540   -2.0290   25.6395 C   0  0  0  0  0  0  0  0  0  0  0  0
   11.0907   -2.4299   24.8954 C   0  0  0  0  0  0  0  0  0  0  0  0
    5.8374   -4.4971   22.2185 C   0  0  0  0  0  0  0  0  0  0  0  0
    8.8484   -5.3146   24.0680 C   0  0  0  0  0  0  0  0  0  0  0  0
    9.2444   -3.4131   22.4505 C   0  0  0  0  0  0  0  0  0  0  0  0
    7.3929   -4.8632   24.1970 C   0  0  0  0  0  0  0  0  0  0  0  0
    7.7775   -3.0127   22.6088 C   0  0  0  0  0  0  0  0  0  0  0  0
    9.7813   -4.1631   23.6759 C   0  0  0  0  0  0  0  0  0  0  0  0
   14.5935   -2.5038   26.3193 C   0  0  0  0  0  0  0  0  0  0  0  0
    5.0206   -5.6732   22.6916 C   0  0  0  0  0  0  0  0  0  0  0  0
    6.9563   -4.1654   22.9820 N   0  0  0  0  0  0  0  0  0  0  0  0
    9.9958   -3.2676   24.7892 N   0  0  0  0  0  0  0  0  0  0  0  0
    5.4908   -3.8941   21.1995 O   0  0  0  0  0  0  0  0  0  0  0  0
    3.8246   -5.0365   23.8149 Cl  0  0  0  0  0  0  0  0  0  0  0  0
    9.3035   -3.2569   25.5263 H   0  0  0  0  0  0  0  0  0  0  0  0
  1  2  2  0  0  0  0
  1  3  1  0  0  0  0
  2  5  1  0  0  0  0
  3  6  2  0  0  0  0
  4  5  2  0  0  0  0
  4  6  1  0  0  0  0
  5 13  1  0  0  0  0
  6 16  1  0  0  0  0
  7 14  1  0  0  0  0
  7 15  1  0  0  0  0
  7 17  2  0  0  0  0
  8 10  1  0  0  0  0
  8 12  1  0  0  0  0
  9 11  1  0  0  0  0
  9 12  1  0  0  0  0
 10 15  1  0  0  0  0
 11 15  1  0  0  0  0
 12 16  1  0  0  0  0
 14 18  1  0  0  0  0
 16 19  1  0  0  0  0
M  END

> <original SMILES>

Cc1cccc(NC2CCN(C(=O)CCl)CC2)c1

> <ref_mols>

x0104_0,x0161_0,x0195_0,x0305_0,x0692_0,x0770_0,x0830_0,x1334_0

> <ref_pdb>

receptors/Mpro-x0161-protein.pdb

> <Chemgauss4>

-7.723912

> <binding_free_energy>

-0.01460005845267176

> <binding_std_error>

0.2681662032586583

$$$$
