PAT-UNK-b2d-2
 OpenBabel03242009303D

 39 40  0  0  0  0  0  0  0  0999 V2000
    5.8103   -6.0177   25.0301 C   0  0  0  0  0  0  0  0  0  0  0  0
    4.9058   -6.3428   24.3098 C   0  0  0  0  0  0  0  0  0  0  0  0
    7.7624   -5.2770   28.1118 C   0  0  0  0  0  0  0  0  0  0  0  0
    6.7141   -5.6553   27.2730 C   0  0  0  0  0  0  0  0  0  0  0  0
    8.9813   -4.8737   27.5665 C   0  0  0  0  0  0  0  0  0  0  0  0
    8.1038   -5.2273   25.3435 C   0  0  0  0  0  0  0  0  0  0  0  0
    6.8848   -5.6305   25.8888 C   0  0  0  0  0  0  0  0  0  0  0  0
    9.1520   -4.8489   26.1824 C   0  0  0  0  0  0  0  0  0  0  0  0
   11.7831    0.4089   23.2106 C   0  0  0  0  0  0  0  0  0  0  0  0
   10.0422   -0.7962   24.6152 C   0  0  0  0  0  0  0  0  0  0  0  0
   11.2633   -1.9786   22.8333 C   0  0  0  0  0  0  0  0  0  0  0  0
   10.2298   -2.0173   25.5175 C   0  0  0  0  0  0  0  0  0  0  0  0
   11.4328   -3.1735   23.7709 C   0  0  0  0  0  0  0  0  0  0  0  0
    3.8041   -6.7384   23.4338 C   0  0  0  0  0  0  0  0  0  0  0  0
   13.1888    0.2042   22.7044 C   0  0  0  0  0  0  0  0  0  0  0  0
   10.4641   -4.4150   25.5957 C   0  0  0  0  0  0  0  0  0  0  0  0
   11.0820   -0.7369   23.5837 N   0  0  0  0  0  0  0  0  0  0  0  0
   10.3152   -3.2513   24.7228 N   0  0  0  0  0  0  0  0  0  0  0  0
   11.3225    1.5518   23.2683 O   0  0  0  0  0  0  0  0  0  0  0  0
    7.6302   -5.2973   29.1897 H   0  0  0  0  0  0  0  0  0  0  0  0
    5.7697   -5.9668   27.7128 H   0  0  0  0  0  0  0  0  0  0  0  0
    9.7919   -4.5803   28.2284 H   0  0  0  0  0  0  0  0  0  0  0  0
    8.2433   -5.2069   24.2646 H   0  0  0  0  0  0  0  0  0  0  0  0
    9.0780   -0.8490   24.0945 H   0  0  0  0  0  0  0  0  0  0  0  0
   10.0285    0.1059   25.2300 H   0  0  0  0  0  0  0  0  0  0  0  0
   12.1291   -1.9058   22.1670 H   0  0  0  0  0  0  0  0  0  0  0  0
   10.3756   -2.1073   22.2017 H   0  0  0  0  0  0  0  0  0  0  0  0
   11.1283   -1.8837   26.1346 H   0  0  0  0  0  0  0  0  0  0  0  0
    9.3718   -2.0750   26.1981 H   0  0  0  0  0  0  0  0  0  0  0  0
   11.4637   -4.0850   23.1616 H   0  0  0  0  0  0  0  0  0  0  0  0
   12.3944   -3.0982   24.2960 H   0  0  0  0  0  0  0  0  0  0  0  0
    4.1630   -6.9250   22.4171 H   0  0  0  0  0  0  0  0  0  0  0  0
    3.3259   -7.6525   23.7983 H   0  0  0  0  0  0  0  0  0  0  0  0
    3.0435   -5.9531   23.3865 H   0  0  0  0  0  0  0  0  0  0  0  0
   13.1617    0.0636   21.6290 H   0  0  0  0  0  0  0  0  0  0  0  0
   13.6146   -0.6722   23.1825 H   0  0  0  0  0  0  0  0  0  0  0  0
   13.7851    1.0772   22.9496 H   0  0  0  0  0  0  0  0  0  0  0  0
   11.1738   -4.1535   26.3882 H   0  0  0  0  0  0  0  0  0  0  0  0
   10.9165   -5.2197   25.0066 H   0  0  0  0  0  0  0  0  0  0  0  0
  1  2  3  0  0  0  0
  1  7  1  0  0  0  0
  2 14  1  0  0  0  0
  3  4  2  0  0  0  0
  3  5  1  0  0  0  0
  3 20  1  0  0  0  0
  4  7  1  0  0  0  0
  4 21  1  0  0  0  0
  5  8  2  0  0  0  0
  5 22  1  0  0  0  0
  6  7  2  0  0  0  0
  6  8  1  0  0  0  0
  6 23  1  0  0  0  0
  8 16  1  0  0  0  0
  9 15  1  0  0  0  0
  9 17  1  0  0  0  0
  9 19  2  0  0  0  0
 10 12  1  0  0  0  0
 10 17  1  0  0  0  0
 10 24  1  0  0  0  0
 10 25  1  0  0  0  0
 11 13  1  0  0  0  0
 11 17  1  0  0  0  0
 11 26  1  0  0  0  0
 11 27  1  0  0  0  0
 12 18  1  0  0  0  0
 12 28  1  0  0  0  0
 12 29  1  0  0  0  0
 13 18  1  0  0  0  0
 13 30  1  0  0  0  0
 13 31  1  0  0  0  0
 14 32  1  0  0  0  0
 14 33  1  0  0  0  0
 14 34  1  0  0  0  0
 15 35  1  0  0  0  0
 15 36  1  0  0  0  0
 15 37  1  0  0  0  0
 16 18  1  0  0  0  0
 16 38  1  0  0  0  0
 16 39  1  0  0  0  0
M  END
>  <Chemgauss4 Score>
-4.72107887268066

>  <Number of Confs>
37

$$$$
