AGN-NEW-891-11
 OpenBabel03242009303D

 40 42  0  0  0  0  0  0  0  0999 V2000
    6.9692   -6.7459   21.4899 C   0  0  0  0  0  0  0  0  0  0  0  0
    7.6232   -6.1398   22.5567 C   0  0  0  0  0  0  0  0  0  0  0  0
    8.4986   -0.2576   25.0704 C   0  0  0  0  0  0  0  0  0  0  0  0
    8.3603   -1.4958   25.6976 C   0  0  0  0  0  0  0  0  0  0  0  0
   14.2132   -0.0301   22.3013 C   0  0  0  0  0  0  0  0  0  0  0  0
   10.5712   -2.1211   24.9506 C   0  0  0  0  0  0  0  0  0  0  0  0
    5.7822   -6.1813   21.0516 C   0  0  0  0  0  0  0  0  0  0  0  0
   13.4048   -1.0934   21.9548 C   0  0  0  0  0  0  0  0  0  0  0  0
   13.7758    0.7301   23.3667 C   0  0  0  0  0  0  0  0  0  0  0  0
    5.8862   -4.5170   22.6319 C   0  0  0  0  0  0  0  0  0  0  0  0
   10.7094   -0.8829   24.3233 C   0  0  0  0  0  0  0  0  0  0  0  0
    7.0780   -5.0037   23.1443 C   0  0  0  0  0  0  0  0  0  0  0  0
    9.6731    0.0488   24.3832 C   0  0  0  0  0  0  0  0  0  0  0  0
    9.3966   -2.4275   25.6378 C   0  0  0  0  0  0  0  0  0  0  0  0
   11.9377   -0.5841   23.6147 C   0  0  0  0  0  0  0  0  0  0  0  0
    7.7463   -4.3387   24.2764 C   0  0  0  0  0  0  0  0  0  0  0  0
    8.5247   -4.9569   25.1732 C   0  0  0  0  0  0  0  0  0  0  0  0
    9.3361    1.3609   22.4285 C   0  0  0  0  0  0  0  0  0  0  0  0
    5.2218   -5.0786   21.5970 N   0  0  0  0  0  0  0  0  0  0  0  0
   12.2560   -1.4005   22.5922 N   0  0  0  0  0  0  0  0  0  0  0  0
   12.6387    0.4808   24.0487 N   0  0  0  0  0  0  0  0  0  0  0  0
   10.5512   -4.4951   26.7255 O   0  0  0  0  0  0  0  0  0  0  0  0
    8.2566   -3.8238   27.5026 O   0  0  0  0  0  0  0  0  0  0  0  0
    9.7812    1.2668   23.7796 O   0  0  0  0  0  0  0  0  0  0  0  0
    9.2223   -3.9779   26.4215 S   0  0  0  0  0  0  0  0  0  0  0  0
    7.3757   -7.6320   21.0162 H   0  0  0  0  0  0  0  0  0  0  0  0
    8.5563   -6.5638   22.9192 H   0  0  0  0  0  0  0  0  0  0  0  0
    7.6878    0.4641   25.1212 H   0  0  0  0  0  0  0  0  0  0  0  0
    7.4413   -1.7243   26.2306 H   0  0  0  0  0  0  0  0  0  0  0  0
   15.1295    0.1934   21.7717 H   0  0  0  0  0  0  0  0  0  0  0  0
   11.3761   -2.8517   24.9061 H   0  0  0  0  0  0  0  0  0  0  0  0
    5.2335   -6.6172   20.2232 H   0  0  0  0  0  0  0  0  0  0  0  0
   13.6665   -1.7474   21.1298 H   0  0  0  0  0  0  0  0  0  0  0  0
   14.3448    1.5870   23.7115 H   0  0  0  0  0  0  0  0  0  0  0  0
    5.4087   -3.6335   23.0459 H   0  0  0  0  0  0  0  0  0  0  0  0
    7.5869   -3.2646   24.3473 H   0  0  0  0  0  0  0  0  0  0  0  0
    8.7458   -6.0162   25.1554 H   0  0  0  0  0  0  0  0  0  0  0  0
    9.4774    2.3826   22.0679 H   0  0  0  0  0  0  0  0  0  0  0  0
    8.2799    1.0859   22.3719 H   0  0  0  0  0  0  0  0  0  0  0  0
    9.9226    0.6751   21.8125 H   0  0  0  0  0  0  0  0  0  0  0  0
  1  2  2  0  0  0  0
  1  7  1  0  0  0  0
  1 26  1  0  0  0  0
  2 12  1  0  0  0  0
  2 27  1  0  0  0  0
  3  4  2  0  0  0  0
  3 13  1  0  0  0  0
  3 28  1  0  0  0  0
  4 14  1  0  0  0  0
  4 29  1  0  0  0  0
  5  8  1  0  0  0  0
  5  9  2  0  0  0  0
  5 30  1  0  0  0  0
  6 11  1  0  0  0  0
  6 14  2  0  0  0  0
  6 31  1  0  0  0  0
  7 19  2  0  0  0  0
  7 32  1  0  0  0  0
  8 20  2  0  0  0  0
  8 33  1  0  0  0  0
  9 21  1  0  0  0  0
  9 34  1  0  0  0  0
 10 12  2  0  0  0  0
 10 19  1  0  0  0  0
 10 35  1  0  0  0  0
 11 13  2  0  0  0  0
 11 15  1  0  0  0  0
 12 16  1  0  0  0  0
 13 24  1  0  0  0  0
 14 25  1  0  0  0  0
 15 20  1  0  0  0  0
 15 21  2  0  0  0  0
 16 17  2  0  0  0  0
 16 36  1  0  0  0  0
 17 25  1  0  0  0  0
 17 37  1  0  0  0  0
 18 24  1  0  0  0  0
 18 38  1  0  0  0  0
 18 39  1  0  0  0  0
 18 40  1  0  0  0  0
 22 25  2  0  0  0  0
 23 25  2  0  0  0  0
M  END
>  <Chemgauss4 Score>
-5.26653289794922

>  <Number of Confs>
200

$$$$
