CHR-SOS-709-14
 OpenBabel03242009303D

 35 37  0  0  0  0  0  0  0  0999 V2000
    5.4396   -3.4915   23.2958 C   0  0  0  0  0  0  0  0  0  0  0  0
    6.3236   -4.1599   22.4488 C   0  0  0  0  0  0  0  0  0  0  0  0
    5.8761   -2.3881   24.0291 C   0  0  0  0  0  0  0  0  0  0  0  0
    7.9851   -6.5208   27.6453 C   0  0  0  0  0  0  0  0  0  0  0  0
    7.6440   -3.7250   22.3351 C   0  0  0  0  0  0  0  0  0  0  0  0
    7.1965   -1.9532   23.9155 C   0  0  0  0  0  0  0  0  0  0  0  0
    9.9196   -1.7700   21.6992 C   0  0  0  0  0  0  0  0  0  0  0  0
    8.4961   -5.8821   26.5209 C   0  0  0  0  0  0  0  0  0  0  0  0
   11.2356   -1.3303   21.5562 C   0  0  0  0  0  0  0  0  0  0  0  0
   11.6128   -1.6920   23.9150 C   0  0  0  0  0  0  0  0  0  0  0  0
    7.8846   -5.7887   28.8174 C   0  0  0  0  0  0  0  0  0  0  0  0
    8.7445   -3.9059   27.8205 C   0  0  0  0  0  0  0  0  0  0  0  0
    8.0805   -2.6216   23.0685 C   0  0  0  0  0  0  0  0  0  0  0  0
    9.4502   -2.1707   22.9501 C   0  0  0  0  0  0  0  0  0  0  0  0
   10.2968   -2.1317   24.0580 C   0  0  0  0  0  0  0  0  0  0  0  0
    8.8854   -4.5498   26.6018 C   0  0  0  0  0  0  0  0  0  0  0  0
   12.0822   -1.2913   22.6640 C   0  0  0  0  0  0  0  0  0  0  0  0
    9.8461   -2.5427   25.3831 C   0  0  0  0  0  0  0  0  0  0  0  0
    8.2524   -4.4931   28.9344 N   0  0  0  0  0  0  0  0  0  0  0  0
    9.4102   -3.8718   25.4726 N   0  0  0  0  0  0  0  0  0  0  0  0
    9.8254   -1.7518   26.3334 O   0  0  0  0  0  0  0  0  0  0  0  0
   13.7065   -0.7494   22.4875 Cl  0  0  0  0  0  0  0  0  0  0  0  0
    4.4111   -3.8292   23.3829 H   0  0  0  0  0  0  0  0  0  0  0  0
    5.9835   -5.0180   21.8765 H   0  0  0  0  0  0  0  0  0  0  0  0
    5.1880   -1.8663   24.6878 H   0  0  0  0  0  0  0  0  0  0  0  0
    7.6753   -7.5588   27.6054 H   0  0  0  0  0  0  0  0  0  0  0  0
    8.3209   -4.2565   21.6704 H   0  0  0  0  0  0  0  0  0  0  0  0
    7.5223   -1.0912   24.4928 H   0  0  0  0  0  0  0  0  0  0  0  0
    9.2730   -1.7943   20.8251 H   0  0  0  0  0  0  0  0  0  0  0  0
    8.5865   -6.4315   25.5875 H   0  0  0  0  0  0  0  0  0  0  0  0
   11.5876   -1.0207   20.5755 H   0  0  0  0  0  0  0  0  0  0  0  0
   12.2725   -1.6625   24.7799 H   0  0  0  0  0  0  0  0  0  0  0  0
    7.4932   -6.2413   29.7225 H   0  0  0  0  0  0  0  0  0  0  0  0
    9.0308   -2.8659   27.9459 H   0  0  0  0  0  0  0  0  0  0  0  0
    9.4791   -4.4198   24.6186 H   0  0  0  0  0  0  0  0  0  0  0  0
  1  2  1  0  0  0  0
  1  3  2  0  0  0  0
  1 23  1  0  0  0  0
  2  5  2  0  0  0  0
  2 24  1  0  0  0  0
  3  6  1  0  0  0  0
  3 25  1  0  0  0  0
  4  8  2  0  0  0  0
  4 11  1  0  0  0  0
  4 26  1  0  0  0  0
  5 13  1  0  0  0  0
  5 27  1  0  0  0  0
  6 13  2  0  0  0  0
  6 28  1  0  0  0  0
  7  9  2  0  0  0  0
  7 14  1  0  0  0  0
  7 29  1  0  0  0  0
  8 16  1  0  0  0  0
  8 30  1  0  0  0  0
  9 17  1  0  0  0  0
  9 31  1  0  0  0  0
 10 15  1  0  0  0  0
 10 17  2  0  0  0  0
 10 32  1  0  0  0  0
 11 19  2  0  0  0  0
 11 33  1  0  0  0  0
 12 16  2  0  0  0  0
 12 19  1  0  0  0  0
 12 34  1  0  0  0  0
 13 14  1  0  0  0  0
 14 15  2  0  0  0  0
 15 18  1  0  0  0  0
 16 20  1  0  0  0  0
 17 22  1  0  0  0  0
 18 20  1  0  0  0  0
 18 21  2  0  0  0  0
 20 35  1  0  0  0  0
M  END
>  <Chemgauss4 Score>
-6.1440896987915

>  <Number of Confs>
16

$$$$
