HEI-REL-0c9-1
 OpenBabel03242009303D

 51 53  0  0  1  0  0  0  0  0999 V2000
   10.4837   -2.0998   26.3705 C   0  0  0  0  0  0  0  0  0  0  0  0
    9.5516   -2.9891   26.8923 C   0  0  0  0  0  0  0  0  0  0  0  0
    8.7208   -3.3896   24.6609 C   0  0  0  0  0  0  0  0  0  0  0  0
   10.5468   -1.8568   24.9866 C   0  0  0  0  0  0  0  0  0  0  0  0
    9.6475   -2.4900   24.0960 C   0  0  0  0  0  0  0  0  0  0  0  0
    8.6719   -3.6364   26.0366 C   0  0  0  0  0  0  0  0  0  0  0  0
    5.8187    1.4166   18.4825 C   0  0  0  0  0  0  0  0  0  0  0  0
   11.5719   -0.8704   24.4866 C   0  0  0  0  0  0  0  0  0  0  0  0
   11.8468   -1.0641   23.0027 C   0  0  0  0  0  0  0  0  0  0  0  0
    6.2747    0.8097   20.9073 C   0  0  0  0  0  0  0  0  0  0  0  0
    7.6019   -0.1855   19.0874 C   0  0  0  0  0  0  0  0  0  0  0  0
    7.5644    1.0011   21.7074 C   0  0  0  0  0  0  0  0  0  0  0  0
    8.8659    0.0304   19.9189 C   0  0  0  0  0  0  0  0  0  0  0  0
   10.5525   -1.1678   22.1945 C   0  0  2  0  0  0  0  0  0  0  0  0
    4.6583    2.2569   18.9528 C   0  0  0  0  0  0  0  0  0  0  0  0
    9.0524   -3.1317   21.7709 C   0  0  0  0  0  0  0  0  0  0  0  0
    9.7766    0.1508   22.1473 C   0  0  0  0  0  0  0  0  0  0  0  0
    9.6963   -2.2371   22.7250 N   0  0  0  0  0  0  0  0  0  0  0  0
    6.5490    0.7546   19.4684 N   0  0  0  0  0  0  0  0  0  0  0  0
    8.5593   -0.0228   21.3558 N   0  0  0  0  0  0  0  0  0  0  0  0
    8.3773   -6.2206   26.6196 N   0  0  0  0  0  0  0  0  0  0  0  0
    6.0696    1.3544   17.2762 O   0  0  0  0  0  0  0  0  0  0  0  0
    7.2510   -4.4143   28.0736 O   0  0  0  0  0  0  0  0  0  0  0  0
    6.3820   -4.8437   25.7481 O   0  0  0  0  0  0  0  0  0  0  0  0
    7.4973   -4.7574   26.6802 S   0  0  0  0  0  0  0  0  0  0  0  0
   11.1692   -1.5941   27.0465 H   0  0  0  0  0  0  0  0  0  0  0  0
    9.5218   -3.1685   27.9632 H   0  0  0  0  0  0  0  0  0  0  0  0
    8.0075   -3.9150   24.0292 H   0  0  0  0  0  0  0  0  0  0  0  0
   11.2079    0.1455   24.6796 H   0  0  0  0  0  0  0  0  0  0  0  0
   12.5126   -0.9926   25.0371 H   0  0  0  0  0  0  0  0  0  0  0  0
   12.4675   -0.2401   22.6313 H   0  0  0  0  0  0  0  0  0  0  0  0
   12.4303   -1.9836   22.8571 H   0  0  0  0  0  0  0  0  0  0  0  0
    5.7932   -0.1384   21.1775 H   0  0  0  0  0  0  0  0  0  0  0  0
    5.5752    1.6100   21.1567 H   0  0  0  0  0  0  0  0  0  0  0  0
    7.8393   -0.0908   18.0227 H   0  0  0  0  0  0  0  0  0  0  0  0
    7.2053   -1.1962   19.2444 H   0  0  0  0  0  0  0  0  0  0  0  0
    7.9597    2.0047   21.5276 H   0  0  0  0  0  0  0  0  0  0  0  0
    7.3199    0.9208   22.7691 H   0  0  0  0  0  0  0  0  0  0  0  0
    9.5757   -0.7615   19.6688 H   0  0  0  0  0  0  0  0  0  0  0  0
    9.3213    0.9883   19.6526 H   0  0  0  0  0  0  0  0  0  0  0  0
   10.8412   -1.4177   21.1648 H   0  0  0  0  0  0  0  0  0  0  0  0
    5.0067    3.2657   19.1477 H   0  0  0  0  0  0  0  0  0  0  0  0
    4.2505    1.8235   19.8604 H   0  0  0  0  0  0  0  0  0  0  0  0
    3.8944    2.2705   18.1820 H   0  0  0  0  0  0  0  0  0  0  0  0
    9.2089   -2.7537   20.7498 H   0  0  0  0  0  0  0  0  0  0  0  0
    9.4882   -4.1378   21.8600 H   0  0  0  0  0  0  0  0  0  0  0  0
    7.9741   -3.1792   21.9830 H   0  0  0  0  0  0  0  0  0  0  0  0
    9.5347    0.4159   23.1741 H   0  0  0  0  0  0  0  0  0  0  0  0
   10.4311    0.8903   21.6916 H   0  0  0  0  0  0  0  0  0  0  0  0
    8.6972   -6.6276   27.5070 H   0  0  0  0  0  0  0  0  0  0  0  0
    8.1039   -6.9187   25.9174 H   0  0  0  0  0  0  0  0  0  0  0  0
  1  2  2  0  0  0  0
  1  4  1  0  0  0  0
  1 26  1  0  0  0  0
  2  6  1  0  0  0  0
  2 27  1  0  0  0  0
  3  5  1  0  0  0  0
  3  6  2  0  0  0  0
  3 28  1  0  0  0  0
  4  5  2  0  0  0  0
  4  8  1  0  0  0  0
  5 18  1  0  0  0  0
  6 25  1  0  0  0  0
  7 15  1  0  0  0  0
  7 19  1  0  0  0  0
  7 22  2  0  0  0  0
  8  9  1  0  0  0  0
  8 29  1  0  0  0  0
  8 30  1  0  0  0  0
  9 14  1  0  0  0  0
  9 31  1  0  0  0  0
  9 32  1  0  0  0  0
 10 12  1  0  0  0  0
 10 19  1  0  0  0  0
 10 33  1  0  0  0  0
 10 34  1  0  0  0  0
 11 13  1  0  0  0  0
 11 19  1  0  0  0  0
 11 35  1  0  0  0  0
 11 36  1  0  0  0  0
 12 20  1  0  0  0  0
 12 37  1  0  0  0  0
 12 38  1  0  0  0  0
 13 20  1  0  0  0  0
 13 39  1  0  0  0  0
 13 40  1  0  0  0  0
 14 17  1  0  0  0  0
 14 18  1  0  0  0  0
 14 41  1  6  0  0  0
 15 42  1  0  0  0  0
 15 43  1  0  0  0  0
 15 44  1  0  0  0  0
 16 18  1  0  0  0  0
 16 45  1  0  0  0  0
 16 46  1  0  0  0  0
 16 47  1  0  0  0  0
 17 20  1  0  0  0  0
 17 48  1  0  0  0  0
 17 49  1  0  0  0  0
 21 25  1  0  0  0  0
 21 50  1  0  0  0  0
 21 51  1  0  0  0  0
 23 25  2  0  0  0  0
 24 25  2  0  0  0  0
M  END
>  <Chemgauss4 Score>
-5.97662162780762

>  <Number of Confs>
42

$$$$
