GIA-UNK-595-4
 OpenBabel03242009303D

 38 39  0  0  0  0  0  0  0  0999 V2000
   13.6572   -1.0490   21.8815 C   0  0  0  0  0  0  0  0  0  0  0  0
   12.4154   -1.6667   21.7333 C   0  0  0  0  0  0  0  0  0  0  0  0
   13.9085   -0.2461   22.9942 C   0  0  0  0  0  0  0  0  0  0  0  0
   11.4249   -1.4815   22.6977 C   0  0  0  0  0  0  0  0  0  0  0  0
   12.9179   -0.0610   23.9586 C   0  0  0  0  0  0  0  0  0  0  0  0
   11.6761   -0.6787   23.8104 C   0  0  0  0  0  0  0  0  0  0  0  0
    7.2164   -5.4186   27.2282 C   0  0  0  0  0  0  0  0  0  0  0  0
    9.5171   -4.3639   25.3144 C   0  0  0  0  0  0  0  0  0  0  0  0
    7.4945   -3.1557   24.4303 C   0  0  0  0  0  0  0  0  0  0  0  0
   10.0881   -3.0256   25.7797 C   0  0  0  0  0  0  0  0  0  0  0  0
    8.0995   -1.8361   24.9070 C   0  0  0  0  0  0  0  0  0  0  0  0
    7.9889   -4.3412   25.2588 C   0  0  0  0  0  0  0  0  0  0  0  0
    6.3471   -6.2078   29.4241 C   0  0  0  0  0  0  0  0  0  0  0  0
    9.5885   -1.9342   24.8928 N   0  0  0  0  0  0  0  0  0  0  0  0
    6.7056   -5.1703   28.4847 N   0  0  0  0  0  0  0  0  0  0  0  0
    7.4309   -6.5268   26.7481 O   0  0  0  0  0  0  0  0  0  0  0  0
   11.0658   -0.3786   26.3226 O   0  0  0  0  0  0  0  0  0  0  0  0
    9.5527    0.6222   24.5743 O   0  0  0  0  0  0  0  0  0  0  0  0
    7.4562   -4.2367   26.5767 O   0  0  0  0  0  0  0  0  0  0  0  0
   10.4211   -0.4419   25.0289 S   0  0  0  0  0  0  0  0  0  0  0  0
   14.4288   -1.1922   21.1306 H   0  0  0  0  0  0  0  0  0  0  0  0
   12.2190   -2.2909   20.8666 H   0  0  0  0  0  0  0  0  0  0  0  0
   14.8752    0.2352   23.1089 H   0  0  0  0  0  0  0  0  0  0  0  0
   10.4606   -1.9666   22.5721 H   0  0  0  0  0  0  0  0  0  0  0  0
   13.1241    0.5675   24.8207 H   0  0  0  0  0  0  0  0  0  0  0  0
    9.9214   -4.6235   24.3270 H   0  0  0  0  0  0  0  0  0  0  0  0
    9.8471   -5.1660   25.9906 H   0  0  0  0  0  0  0  0  0  0  0  0
    6.3971   -3.1045   24.4829 H   0  0  0  0  0  0  0  0  0  0  0  0
    7.7323   -3.3163   23.3702 H   0  0  0  0  0  0  0  0  0  0  0  0
    9.7620   -2.8395   26.8083 H   0  0  0  0  0  0  0  0  0  0  0  0
   11.1833   -3.0460   25.7609 H   0  0  0  0  0  0  0  0  0  0  0  0
    7.7764   -1.0092   24.2645 H   0  0  0  0  0  0  0  0  0  0  0  0
    7.7559   -1.6373   25.9275 H   0  0  0  0  0  0  0  0  0  0  0  0
    7.6186   -5.2786   24.8221 H   0  0  0  0  0  0  0  0  0  0  0  0
    5.2943   -6.4898   29.2756 H   0  0  0  0  0  0  0  0  0  0  0  0
    6.9884   -7.0866   29.2620 H   0  0  0  0  0  0  0  0  0  0  0  0
    6.4859   -5.8369   30.4504 H   0  0  0  0  0  0  0  0  0  0  0  0
    6.5739   -4.2035   28.7657 H   0  0  0  0  0  0  0  0  0  0  0  0
  1  2  1  0  0  0  0
  1  3  2  0  0  0  0
  1 21  1  0  0  0  0
  2  4  2  0  0  0  0
  2 22  1  0  0  0  0
  3  5  1  0  0  0  0
  3 23  1  0  0  0  0
  4  6  1  0  0  0  0
  4 24  1  0  0  0  0
  5  6  2  0  0  0  0
  5 25  1  0  0  0  0
  6 20  1  0  0  0  0
  7 15  1  0  0  0  0
  7 16  2  0  0  0  0
  7 19  1  0  0  0  0
  8 10  1  0  0  0  0
  8 12  1  0  0  0  0
  8 26  1  0  0  0  0
  8 27  1  0  0  0  0
  9 11  1  0  0  0  0
  9 12  1  0  0  0  0
  9 28  1  0  0  0  0
  9 29  1  0  0  0  0
 10 14  1  0  0  0  0
 10 30  1  0  0  0  0
 10 31  1  0  0  0  0
 11 14  1  0  0  0  0
 11 32  1  0  0  0  0
 11 33  1  0  0  0  0
 12 19  1  0  0  0  0
 12 34  1  0  0  0  0
 13 15  1  0  0  0  0
 13 35  1  0  0  0  0
 13 36  1  0  0  0  0
 13 37  1  0  0  0  0
 14 20  1  0  0  0  0
 15 38  1  0  0  0  0
 17 20  2  0  0  0  0
 18 20  2  0  0  0  0
M  END
>  <Chemgauss4 Score>
-4.96244049072266

>  <Number of Confs>
56

$$$$
