SAL-INS-1c7-5
 OpenBabel03242009303D

 44 47  0  0  1  0  0  0  0  0999 V2000
    6.7813    0.7791   21.6836 C   0  0  0  0  0  0  0  0  0  0  0  0
    7.1455    0.5291   23.0067 C   0  0  0  0  0  0  0  0  0  0  0  0
    7.2532   -0.0459   20.6626 C   0  0  0  0  0  0  0  0  0  0  0  0
    6.0317   -6.1887   26.4177 C   0  0  0  0  0  0  0  0  0  0  0  0
    6.3732   -5.5383   25.2318 C   0  0  0  0  0  0  0  0  0  0  0  0
    7.9816   -0.5457   23.3087 C   0  0  0  0  0  0  0  0  0  0  0  0
    8.0893   -1.1207   20.9646 C   0  0  0  0  0  0  0  0  0  0  0  0
    6.8238   -6.0312   27.5506 C   0  0  0  0  0  0  0  0  0  0  0  0
    7.8725   -4.0598   23.9800 C   0  0  0  0  0  0  0  0  0  0  0  0
    9.4556   -3.7413   26.2475 C   0  0  0  0  0  0  0  0  0  0  0  0
    7.5133   -4.7206   25.1651 C   0  0  0  0  0  0  0  0  0  0  0  0
    8.3170   -4.5601   26.3150 C   0  0  0  0  0  0  0  0  0  0  0  0
    8.4535   -1.3707   22.2877 C   0  0  0  0  0  0  0  0  0  0  0  0
    9.8084   -3.0766   25.0624 C   0  0  0  0  0  0  0  0  0  0  0  0
    9.0144   -3.2436   23.9170 C   0  0  0  0  0  0  0  0  0  0  0  0
    7.9594   -5.2223   27.5010 C   0  0  0  0  0  0  0  0  0  0  0  0
   11.9125   -0.2283   23.7394 C   0  0  0  0  0  0  0  0  0  0  0  0
   11.0445   -2.2104   25.0573 C   0  0  0  0  0  0  0  0  0  0  0  0
   10.8477   -2.1343   22.5841 C   0  0  0  0  0  0  0  0  0  0  0  0
    9.3665   -2.5441   22.6167 C   0  0  2  0  0  0  0  0  0  0  0  0
   12.6431    0.0614   22.4517 C   0  0  0  0  0  0  0  0  0  0  0  0
   11.2496   -1.4555   23.8150 N   0  0  0  0  0  0  0  0  0  0  0  0
    8.7277   -5.1033   28.6967 N   0  3  0  0  0  0  0  0  0  0  0  0
    9.6551   -5.9192   28.8998 O   0  5  0  0  0  0  0  0  0  0  0  0
   11.9370    0.6045   24.6489 O   0  0  0  0  0  0  0  0  0  0  0  0
    8.4485   -4.1871   29.5027 O   0  0  0  0  0  0  0  0  0  0  0  0
   13.8723   -1.1860   22.2795 Cl  0  0  0  0  0  0  0  0  0  0  0  0
    6.1292    1.6153   21.4488 H   0  0  0  0  0  0  0  0  0  0  0  0
    6.7773    1.1707   23.8020 H   0  0  0  0  0  0  0  0  0  0  0  0
    6.9689    0.1478   19.6325 H   0  0  0  0  0  0  0  0  0  0  0  0
    5.1472   -6.8179   26.4557 H   0  0  0  0  0  0  0  0  0  0  0  0
    5.7395   -5.6762   24.3581 H   0  0  0  0  0  0  0  0  0  0  0  0
    8.2603   -0.7328   24.3425 H   0  0  0  0  0  0  0  0  0  0  0  0
    8.4522   -1.7580   20.1626 H   0  0  0  0  0  0  0  0  0  0  0  0
    6.5435   -6.5448   28.4673 H   0  0  0  0  0  0  0  0  0  0  0  0
    7.2590   -4.1805   23.0880 H   0  0  0  0  0  0  0  0  0  0  0  0
   10.0935   -3.5996   27.1185 H   0  0  0  0  0  0  0  0  0  0  0  0
   10.9902   -1.5202   25.9038 H   0  0  0  0  0  0  0  0  0  0  0  0
   11.9296   -2.8448   25.1867 H   0  0  0  0  0  0  0  0  0  0  0  0
   11.4810   -3.0278   22.5037 H   0  0  0  0  0  0  0  0  0  0  0  0
   11.0602   -1.5147   21.7054 H   0  0  0  0  0  0  0  0  0  0  0  0
    9.2272   -3.2870   21.7839 H   0  0  0  0  0  0  0  0  0  0  0  0
   13.1096    1.0368   22.5254 H   0  0  0  0  0  0  0  0  0  0  0  0
   11.9391    0.0073   21.6298 H   0  0  0  0  0  0  0  0  0  0  0  0
  1  2  1  0  0  0  0
  1  3  2  0  0  0  0
  1 28  1  0  0  0  0
  2  6  2  0  0  0  0
  2 29  1  0  0  0  0
  3  7  1  0  0  0  0
  3 30  1  0  0  0  0
  4  5  2  0  0  0  0
  4  8  1  0  0  0  0
  4 31  1  0  0  0  0
  5 11  1  0  0  0  0
  5 32  1  0  0  0  0
  6 13  1  0  0  0  0
  6 33  1  0  0  0  0
  7 13  2  0  0  0  0
  7 34  1  0  0  0  0
  8 16  2  0  0  0  0
  8 35  1  0  0  0  0
  9 11  2  0  0  0  0
  9 15  1  0  0  0  0
  9 36  1  0  0  0  0
 10 12  2  0  0  0  0
 10 14  1  0  0  0  0
 10 37  1  0  0  0  0
 11 12  1  0  0  0  0
 12 16  1  0  0  0  0
 13 20  1  0  0  0  0
 14 15  2  0  0  0  0
 14 18  1  0  0  0  0
 15 20  1  0  0  0  0
 16 23  1  0  0  0  0
 17 21  1  0  0  0  0
 17 22  1  0  0  0  0
 17 25  2  0  0  0  0
 18 22  1  0  0  0  0
 18 38  1  0  0  0  0
 18 39  1  0  0  0  0
 19 20  1  0  0  0  0
 19 22  1  0  0  0  0
 19 40  1  0  0  0  0
 19 41  1  0  0  0  0
 20 42  1  6  0  0  0
 21 27  1  0  0  0  0
 21 43  1  0  0  0  0
 21 44  1  0  0  0  0
 23 24  1  0  0  0  0
 23 26  2  0  0  0  0
M  CHG  2  23   1  24  -1
M  END
>  <Chemgauss4 Score>
-6.03107118606567

>  <Number of Confs>
8

$$$$
