GIA-UNK-5ec-5
 OpenBabel03242009303D

 35 36  0  0  0  0  0  0  0  0999 V2000
   13.5342   -0.1736   23.5207 C   0  0  0  0  0  0  0  0  0  0  0  0
   13.5856   -1.3840   22.8295 C   0  0  0  0  0  0  0  0  0  0  0  0
   12.3013    0.3900   23.8496 C   0  0  0  0  0  0  0  0  0  0  0  0
   12.4041   -2.0309   22.4671 C   0  0  0  0  0  0  0  0  0  0  0  0
   11.1198   -0.2569   23.4872 C   0  0  0  0  0  0  0  0  0  0  0  0
   11.1712   -1.4674   22.7959 C   0  0  0  0  0  0  0  0  0  0  0  0
    8.2127   -4.4396   28.1875 C   0  0  0  0  0  0  0  0  0  0  0  0
    8.7792   -1.8830   23.3770 C   0  0  0  0  0  0  0  0  0  0  0  0
    7.1154   -3.8458   26.0379 C   0  0  0  0  0  0  0  0  0  0  0  0
    9.6282   -4.2946   26.1716 C   0  0  0  0  0  0  0  0  0  0  0  0
    7.6226   -2.5270   25.4617 C   0  0  0  0  0  0  0  0  0  0  0  0
    9.5879   -3.8748   24.7063 C   0  0  0  0  0  0  0  0  0  0  0  0
    8.2368   -4.6535   26.7033 C   0  0  0  0  0  0  0  0  0  0  0  0
    9.9006   -2.1623   22.4064 C   0  0  0  0  0  0  0  0  0  0  0  0
    8.6841   -2.7406   24.4747 N   0  0  0  0  0  0  0  0  0  0  0  0
    8.3795   -3.3502   28.7202 O   0  0  0  0  0  0  0  0  0  0  0  0
    8.0173   -0.9352   23.1708 O   0  0  0  0  0  0  0  0  0  0  0  0
    7.9216   -5.8964   29.1273 S   0  0  0  0  0  0  0  0  0  0  0  0
   14.4542    0.3293   23.8040 H   0  0  0  0  0  0  0  0  0  0  0  0
   14.5455   -1.8235   22.5743 H   0  0  0  0  0  0  0  0  0  0  0  0
   12.2609    1.3318   24.3887 H   0  0  0  0  0  0  0  0  0  0  0  0
   12.4538   -2.9736   21.9285 H   0  0  0  0  0  0  0  0  0  0  0  0
   10.1638    0.1896   23.7476 H   0  0  0  0  0  0  0  0  0  0  0  0
    6.3139   -3.6429   26.7550 H   0  0  0  0  0  0  0  0  0  0  0  0
    6.6807   -4.4424   25.2284 H   0  0  0  0  0  0  0  0  0  0  0  0
   10.2794   -5.1675   26.2700 H   0  0  0  0  0  0  0  0  0  0  0  0
   10.0669   -3.4907   26.7669 H   0  0  0  0  0  0  0  0  0  0  0  0
    6.7845   -1.9739   25.0163 H   0  0  0  0  0  0  0  0  0  0  0  0
    8.0367   -1.8871   26.2546 H   0  0  0  0  0  0  0  0  0  0  0  0
   10.5877   -3.5628   24.3613 H   0  0  0  0  0  0  0  0  0  0  0  0
    9.3157   -4.7428   24.0902 H   0  0  0  0  0  0  0  0  0  0  0  0
    8.0590   -5.7152   26.5537 H   0  0  0  0  0  0  0  0  0  0  0  0
    9.5865   -1.8428   21.4112 H   0  0  0  0  0  0  0  0  0  0  0  0
   10.0499   -3.2418   22.3541 H   0  0  0  0  0  0  0  0  0  0  0  0
    7.9717   -5.3198   30.3368 H   0  0  0  0  0  0  0  0  0  0  0  0
  1  2  1  0  0  0  0
  1  3  2  0  0  0  0
  1 19  1  0  0  0  0
  2  4  2  0  0  0  0
  2 20  1  0  0  0  0
  3  5  1  0  0  0  0
  3 21  1  0  0  0  0
  4  6  1  0  0  0  0
  4 22  1  0  0  0  0
  5  6  2  0  0  0  0
  5 23  1  0  0  0  0
  6 14  1  0  0  0  0
  7 13  1  0  0  0  0
  7 16  2  0  0  0  0
  7 18  1  0  0  0  0
  8 14  1  0  0  0  0
  8 15  1  0  0  0  0
  8 17  2  0  0  0  0
  9 11  1  0  0  0  0
  9 13  1  0  0  0  0
  9 24  1  0  0  0  0
  9 25  1  0  0  0  0
 10 12  1  0  0  0  0
 10 13  1  0  0  0  0
 10 26  1  0  0  0  0
 10 27  1  0  0  0  0
 11 15  1  0  0  0  0
 11 28  1  0  0  0  0
 11 29  1  0  0  0  0
 12 15  1  0  0  0  0
 12 30  1  0  0  0  0
 12 31  1  0  0  0  0
 13 32  1  0  0  0  0
 14 33  1  0  0  0  0
 14 34  1  0  0  0  0
 18 35  1  0  0  0  0
M  END
>  <Chemgauss4 Score>
-4.99714326858521

>  <Number of Confs>
130

$$$$
