JOO-PER-74f-1
 OpenBabel03242009303D

 34 35  0  0  0  0  0  0  0  0999 V2000
    7.8992   -5.6518   27.3659 C   0  0  0  0  0  0  0  0  0  0  0  0
   11.4234    0.2704   23.9216 C   0  0  0  0  0  0  0  0  0  0  0  0
   12.5002    0.0445   23.0644 C   0  0  0  0  0  0  0  0  0  0  0  0
   10.4704   -0.7282   24.1226 C   0  0  0  0  0  0  0  0  0  0  0  0
   11.6712   -2.1787   22.6089 C   0  0  0  0  0  0  0  0  0  0  0  0
   12.6241   -1.1800   22.4080 C   0  0  0  0  0  0  0  0  0  0  0  0
   10.5943   -1.9527   23.4662 C   0  0  0  0  0  0  0  0  0  0  0  0
    9.8894   -5.1017   25.9938 C   0  0  0  0  0  0  0  0  0  0  0  0
    7.5837   -5.0599   24.9791 C   0  0  0  0  0  0  0  0  0  0  0  0
    9.8456   -3.5689   26.0372 C   0  0  0  0  0  0  0  0  0  0  0  0
    7.6277   -3.5286   25.0608 C   0  0  0  0  0  0  0  0  0  0  0  0
    8.4914   -5.7305   26.0167 C   0  0  0  0  0  0  0  0  0  0  0  0
   13.7766   -1.4214   21.4926 C   0  0  0  0  0  0  0  0  0  0  0  0
    9.5682   -3.0273   23.6820 C   0  0  0  0  0  0  0  0  0  0  0  0
    7.4335   -5.5900   28.4268 N   0  0  0  0  0  0  0  0  0  0  0  0
    8.9810   -2.9620   25.0182 N   0  0  0  0  0  0  0  0  0  0  0  0
   11.3271    1.2239   24.4329 H   0  0  0  0  0  0  0  0  0  0  0  0
   13.2382    0.8283   22.9144 H   0  0  0  0  0  0  0  0  0  0  0  0
    9.6343   -0.5432   24.7918 H   0  0  0  0  0  0  0  0  0  0  0  0
   11.7677   -3.1339   22.0981 H   0  0  0  0  0  0  0  0  0  0  0  0
   10.4009   -5.4118   25.0732 H   0  0  0  0  0  0  0  0  0  0  0  0
   10.4942   -5.4721   26.8300 H   0  0  0  0  0  0  0  0  0  0  0  0
    6.5478   -5.4006   25.0930 H   0  0  0  0  0  0  0  0  0  0  0  0
    7.9077   -5.3666   23.9760 H   0  0  0  0  0  0  0  0  0  0  0  0
    9.5449   -3.2343   27.0539 H   0  0  0  0  0  0  0  0  0  0  0  0
   10.8839   -3.2000   25.9050 H   0  0  0  0  0  0  0  0  0  0  0  0
    7.0355   -3.1303   24.2109 H   0  0  0  0  0  0  0  0  0  0  0  0
    7.0913   -3.1897   25.9737 H   0  0  0  0  0  0  0  0  0  0  0  0
    8.5838   -6.7951   25.7629 H   0  0  0  0  0  0  0  0  0  0  0  0
   14.6209   -1.8501   22.0463 H   0  0  0  0  0  0  0  0  0  0  0  0
   13.5050   -2.1114   20.6833 H   0  0  0  0  0  0  0  0  0  0  0  0
   14.1096   -0.4895   21.0171 H   0  0  0  0  0  0  0  0  0  0  0  0
    8.7562   -2.9380   22.9521 H   0  0  0  0  0  0  0  0  0  0  0  0
   10.0089   -4.0221   23.5582 H   0  0  0  0  0  0  0  0  0  0  0  0
  1 12  1  0  0  0  0
  1 15  3  0  0  0  0
  2  3  2  0  0  0  0
  2  4  1  0  0  0  0
  2 17  1  0  0  0  0
  3  6  1  0  0  0  0
  3 18  1  0  0  0  0
  4  7  2  0  0  0  0
  4 19  1  0  0  0  0
  5  6  2  0  0  0  0
  5  7  1  0  0  0  0
  5 20  1  0  0  0  0
  6 13  1  0  0  0  0
  7 14  1  0  0  0  0
  8 10  1  0  0  0  0
  8 12  1  0  0  0  0
  8 21  1  0  0  0  0
  8 22  1  0  0  0  0
  9 11  1  0  0  0  0
  9 12  1  0  0  0  0
  9 23  1  0  0  0  0
  9 24  1  0  0  0  0
 10 16  1  0  0  0  0
 10 25  1  0  0  0  0
 10 26  1  0  0  0  0
 11 16  1  0  0  0  0
 11 27  1  0  0  0  0
 11 28  1  0  0  0  0
 12 29  1  0  0  0  0
 13 30  1  0  0  0  0
 13 31  1  0  0  0  0
 13 32  1  0  0  0  0
 14 16  1  0  0  0  0
 14 33  1  0  0  0  0
 14 34  1  0  0  0  0
M  END
>  <Chemgauss4 Score>
-5.76726293563843

>  <Number of Confs>
37

$$$$
