JOH-MEM-5e3-4
 OpenBabel03242009303D

 31 33  0  0  0  0  0  0  0  0999 V2000
    9.3816   -2.0710   22.2056 C   0  0  0  0  0  0  0  0  0  0  0  0
   10.6328   -1.5259   21.9024 C   0  0  0  0  0  0  0  0  0  0  0  0
   11.6694   -2.7033   23.7584 C   0  0  0  0  0  0  0  0  0  0  0  0
   10.4221   -3.2662   24.0864 C   0  0  0  0  0  0  0  0  0  0  0  0
    9.9580   -4.1470   25.0780 C   0  0  0  0  0  0  0  0  0  0  0  0
    9.2974   -2.9384   23.3010 C   0  0  0  0  0  0  0  0  0  0  0  0
   11.7584   -1.8354   22.6642 C   0  0  0  0  0  0  0  0  0  0  0  0
    8.6220   -4.3268   24.8816 C   0  0  0  0  0  0  0  0  0  0  0  0
    6.7067   -5.4940   25.7790 C   0  0  0  0  0  0  0  0  0  0  0  0
   10.4404   -4.9269   26.2443 C   0  0  0  0  0  0  0  0  0  0  0  0
    9.1213   -5.6335   26.7335 C   0  0  0  0  0  0  0  0  0  0  0  0
    5.8147   -4.4076   25.2323 C   0  0  0  0  0  0  0  0  0  0  0  0
   12.9938   -0.4094   21.2163 C   0  0  0  0  0  0  0  0  0  0  0  0
    8.1973   -3.6113   23.8193 N   0  0  0  0  0  0  0  0  0  0  0  0
    8.0475   -5.1736   25.7938 N   0  0  0  0  0  0  0  0  0  0  0  0
    6.2214   -6.5578   26.1654 O   0  0  0  0  0  0  0  0  0  0  0  0
   12.9633   -1.2860   22.3404 O   0  0  0  0  0  0  0  0  0  0  0  0
    8.5084   -1.8271   21.6097 H   0  0  0  0  0  0  0  0  0  0  0  0
   10.7215   -0.8492   21.0554 H   0  0  0  0  0  0  0  0  0  0  0  0
   12.5523   -2.9387   24.3465 H   0  0  0  0  0  0  0  0  0  0  0  0
   11.1911   -5.6663   25.9504 H   0  0  0  0  0  0  0  0  0  0  0  0
   10.8439   -4.2748   27.0243 H   0  0  0  0  0  0  0  0  0  0  0  0
    9.2001   -6.7242   26.6809 H   0  0  0  0  0  0  0  0  0  0  0  0
    8.8555   -5.3381   27.7536 H   0  0  0  0  0  0  0  0  0  0  0  0
    5.7085   -4.5417   24.1610 H   0  0  0  0  0  0  0  0  0  0  0  0
    6.2619   -3.4415   25.4428 H   0  0  0  0  0  0  0  0  0  0  0  0
    4.8436   -4.4708   25.7125 H   0  0  0  0  0  0  0  0  0  0  0  0
   14.0120   -0.0417   21.0676 H   0  0  0  0  0  0  0  0  0  0  0  0
   12.3137    0.4287   21.3881 H   0  0  0  0  0  0  0  0  0  0  0  0
   12.6740   -0.9593   20.3280 H   0  0  0  0  0  0  0  0  0  0  0  0
    7.2548   -3.5639   23.4557 H   0  0  0  0  0  0  0  0  0  0  0  0
  1  2  2  0  0  0  0
  1  6  1  0  0  0  0
  1 18  1  0  0  0  0
  2  7  1  0  0  0  0
  2 19  1  0  0  0  0
  3  4  1  0  0  0  0
  3  7  2  0  0  0  0
  3 20  1  0  0  0  0
  4  5  1  0  0  0  0
  4  6  2  0  0  0  0
  5  8  2  0  0  0  0
  5 10  1  0  0  0  0
  6 14  1  0  0  0  0
  7 17  1  0  0  0  0
  8 14  1  0  0  0  0
  8 15  1  0  0  0  0
  9 12  1  0  0  0  0
  9 15  1  0  0  0  0
  9 16  2  0  0  0  0
 10 11  1  0  0  0  0
 10 21  1  0  0  0  0
 10 22  1  0  0  0  0
 11 15  1  0  0  0  0
 11 23  1  0  0  0  0
 11 24  1  0  0  0  0
 12 25  1  0  0  0  0
 12 26  1  0  0  0  0
 12 27  1  0  0  0  0
 13 17  1  0  0  0  0
 13 28  1  0  0  0  0
 13 29  1  0  0  0  0
 13 30  1  0  0  0  0
 14 31  1  0  0  0  0
M  END
>  <Chemgauss4 Score>
-5.49479913711548

>  <Number of Confs>
4

$$$$
