DUN-NEW-f8c-18
 OpenBabel03242009303D

 52 55  0  0  0  0  0  0  0  0999 V2000
   11.1795   -1.7069   21.9361 C   0  0  0  0  0  0  0  0  0  0  0  0
    6.2465   -0.7611   20.4675 C   0  0  0  0  0  0  0  0  0  0  0  0
   12.1611   -0.9353   22.5684 C   0  0  0  0  0  0  0  0  0  0  0  0
    6.4613   -0.7779   21.8411 C   0  0  0  0  0  0  0  0  0  0  0  0
   10.0199   -2.0799   22.6129 C   0  0  0  0  0  0  0  0  0  0  0  0
   12.7274    0.2286   24.8331 C   0  0  0  0  0  0  0  0  0  0  0  0
    6.9859    0.1298   19.7063 C   0  0  0  0  0  0  0  0  0  0  0  0
    8.0838    0.9374   21.5558 C   0  0  0  0  0  0  0  0  0  0  0  0
   12.0167    0.2885   26.0096 C   0  0  0  0  0  0  0  0  0  0  0  0
   11.9657   -0.5356   23.9053 C   0  0  0  0  0  0  0  0  0  0  0  0
    7.3957    0.0845   22.4037 C   0  0  0  0  0  0  0  0  0  0  0  0
   10.7941   -0.9240   24.5586 C   0  0  0  0  0  0  0  0  0  0  0  0
    9.8042   -1.6953   23.9393 C   0  0  0  0  0  0  0  0  0  0  0  0
    7.4254   -1.2670   24.5497 C   0  0  0  0  0  0  0  0  0  0  0  0
    8.0372   -4.4627   24.2670 C   0  0  0  0  0  0  0  0  0  0  0  0
    9.9627   -3.7719   25.7531 C   0  0  0  0  0  0  0  0  0  0  0  0
    8.0598   -5.8602   24.8869 C   0  0  0  0  0  0  0  0  0  0  0  0
    9.9869   -5.1702   26.3721 C   0  0  0  0  0  0  0  0  0  0  0  0
    8.5679   -3.4069   25.2392 C   0  0  1  0  0  0  0  0  0  0  0  0
    9.4450   -6.2331   25.4168 C   0  0  2  0  0  0  0  0  0  0  0  0
    9.8506   -0.5606   26.8688 C   0  0  0  0  0  0  0  0  0  0  0  0
    7.6523    0.0900   23.8915 C   0  0  0  0  0  0  0  0  0  0  0  0
    7.9023    0.9825   20.2169 N   0  0  0  0  0  0  0  0  0  0  0  0
   10.8522   -0.4099   25.8344 N   0  0  0  0  0  0  0  0  0  0  0  0
    8.5773   -2.1054   24.6161 N   0  0  0  0  0  0  0  0  0  0  0  0
    6.3120   -1.5438   25.0038 O   0  0  0  0  0  0  0  0  0  0  0  0
   10.3555   -6.3773   24.3288 O   0  0  0  0  0  0  0  0  0  0  0  0
   11.3259   -2.0175   20.9047 H   0  0  0  0  0  0  0  0  0  0  0  0
    5.5233   -1.4245   20.0072 H   0  0  0  0  0  0  0  0  0  0  0  0
   13.0601   -0.6516   22.0287 H   0  0  0  0  0  0  0  0  0  0  0  0
    5.8967   -1.4656   22.4648 H   0  0  0  0  0  0  0  0  0  0  0  0
    9.2776   -2.6804   22.0907 H   0  0  0  0  0  0  0  0  0  0  0  0
   13.6917    0.6865   24.6596 H   0  0  0  0  0  0  0  0  0  0  0  0
    6.8550    0.1819   18.6304 H   0  0  0  0  0  0  0  0  0  0  0  0
    8.8252    1.6327   21.9373 H   0  0  0  0  0  0  0  0  0  0  0  0
   12.2447    0.7685   26.9517 H   0  0  0  0  0  0  0  0  0  0  0  0
    8.6119   -4.4583   23.3381 H   0  0  0  0  0  0  0  0  0  0  0  0
    7.0057   -4.2123   24.0023 H   0  0  0  0  0  0  0  0  0  0  0  0
   10.2569   -3.0474   26.5162 H   0  0  0  0  0  0  0  0  0  0  0  0
   10.7007   -3.7067   24.9518 H   0  0  0  0  0  0  0  0  0  0  0  0
    7.3274   -5.9172   25.7036 H   0  0  0  0  0  0  0  0  0  0  0  0
    7.7302   -6.6064   24.1502 H   0  0  0  0  0  0  0  0  0  0  0  0
   11.0115   -5.4306   26.6728 H   0  0  0  0  0  0  0  0  0  0  0  0
    9.4016   -5.1753   27.3011 H   0  0  0  0  0  0  0  0  0  0  0  0
    7.8818   -3.3250   26.0886 H   0  0  0  0  0  0  0  0  0  0  0  0
    9.3923   -7.1997   25.9358 H   0  0  0  0  0  0  0  0  0  0  0  0
    9.1469    0.2713   26.7807 H   0  0  0  0  0  0  0  0  0  0  0  0
    9.3328   -1.5149   26.7381 H   0  0  0  0  0  0  0  0  0  0  0  0
   10.3377   -0.5487   27.8479 H   0  0  0  0  0  0  0  0  0  0  0  0
    8.6892    0.4026   24.0631 H   0  0  0  0  0  0  0  0  0  0  0  0
    6.9949    0.8314   24.3609 H   0  0  0  0  0  0  0  0  0  0  0  0
   10.0032   -7.0825   23.7631 H   0  0  0  0  0  0  0  0  0  0  0  0
  1  3  2  0  0  0  0
  1  5  1  0  0  0  0
  1 28  1  0  0  0  0
  2  4  2  0  0  0  0
  2  7  1  0  0  0  0
  2 29  1  0  0  0  0
  3 10  1  0  0  0  0
  3 30  1  0  0  0  0
  4 11  1  0  0  0  0
  4 31  1  0  0  0  0
  5 13  2  0  0  0  0
  5 32  1  0  0  0  0
  6  9  2  0  0  0  0
  6 10  1  0  0  0  0
  6 33  1  0  0  0  0
  7 23  2  0  0  0  0
  7 34  1  0  0  0  0
  8 11  2  0  0  0  0
  8 23  1  0  0  0  0
  8 35  1  0  0  0  0
  9 24  1  0  0  0  0
  9 36  1  0  0  0  0
 10 12  2  0  0  0  0
 11 22  1  0  0  0  0
 12 13  1  0  0  0  0
 12 24  1  0  0  0  0
 13 25  1  0  0  0  0
 14 22  1  0  0  0  0
 14 25  1  0  0  0  0
 14 26  2  0  0  0  0
 15 17  1  0  0  0  0
 15 19  1  0  0  0  0
 15 37  1  0  0  0  0
 15 38  1  0  0  0  0
 16 18  1  0  0  0  0
 16 19  1  0  0  0  0
 16 39  1  0  0  0  0
 16 40  1  0  0  0  0
 17 20  1  0  0  0  0
 17 41  1  0  0  0  0
 17 42  1  0  0  0  0
 18 20  1  0  0  0  0
 18 43  1  0  0  0  0
 18 44  1  0  0  0  0
 19 25  1  0  0  0  0
 19 45  1  1  0  0  0
 20 27  1  0  0  0  0
 20 46  1  1  0  0  0
 21 24  1  0  0  0  0
 21 47  1  0  0  0  0
 21 48  1  0  0  0  0
 21 49  1  0  0  0  0
 22 50  1  0  0  0  0
 22 51  1  0  0  0  0
 27 52  1  0  0  0  0
M  END
>  <Chemgauss4 Score>
-5.8874135017395

>  <Number of Confs>
60

$$$$
