JOH-MSK-a63-9
 OpenBabel03242009303D

 31 32  0  0  0  0  0  0  0  0999 V2000
    9.3103   -5.0717   27.5585 C   0  0  0  0  0  0  0  0  0  0  0  0
    8.4373   -4.4379   28.4473 C   0  0  0  0  0  0  0  0  0  0  0  0
    8.3289   -2.4702   27.0284 C   0  0  0  0  0  0  0  0  0  0  0  0
   10.5790   -3.7355   24.4406 C   0  0  0  0  0  0  0  0  0  0  0  0
    9.2082   -3.0890   26.1176 C   0  0  0  0  0  0  0  0  0  0  0  0
    9.7851   -2.6998   24.8763 C   0  0  0  0  0  0  0  0  0  0  0  0
    9.6776   -4.3729   26.4031 C   0  0  0  0  0  0  0  0  0  0  0  0
    7.9529   -3.1572   28.1883 C   0  0  0  0  0  0  0  0  0  0  0  0
   12.2606    0.1386   24.1566 C   0  0  0  0  0  0  0  0  0  0  0  0
   12.8853   -1.3795   22.4023 C   0  0  0  0  0  0  0  0  0  0  0  0
    9.5757   -1.4185   24.1727 C   0  0  0  0  0  0  0  0  0  0  0  0
   10.5777   -1.1569   23.0334 C   0  0  0  0  0  0  0  0  0  0  0  0
   10.5075   -4.7402   25.3680 N   0  0  0  0  0  0  0  0  0  0  0  0
   11.9377   -1.1382   23.5013 N   0  0  0  0  0  0  0  0  0  0  0  0
    7.1022   -2.5653   29.0735 O   0  0  0  0  0  0  0  0  0  0  0  0
    9.6872   -6.0686   27.7614 H   0  0  0  0  0  0  0  0  0  0  0  0
    8.1367   -4.9584   29.3537 H   0  0  0  0  0  0  0  0  0  0  0  0
    7.9456   -1.4720   26.8348 H   0  0  0  0  0  0  0  0  0  0  0  0
   11.1885   -3.8488   23.5548 H   0  0  0  0  0  0  0  0  0  0  0  0
   11.5520    0.3191   24.9784 H   0  0  0  0  0  0  0  0  0  0  0  0
   13.2840    0.0963   24.5577 H   0  0  0  0  0  0  0  0  0  0  0  0
   12.1876    0.9556   23.4237 H   0  0  0  0  0  0  0  0  0  0  0  0
   12.6438   -2.3342   21.9123 H   0  0  0  0  0  0  0  0  0  0  0  0
   12.8122   -0.5625   21.6694 H   0  0  0  0  0  0  0  0  0  0  0  0
   13.9087   -1.4218   22.8034 H   0  0  0  0  0  0  0  0  0  0  0  0
    9.6480   -0.5755   24.8881 H   0  0  0  0  0  0  0  0  0  0  0  0
    8.5478   -1.3467   23.7629 H   0  0  0  0  0  0  0  0  0  0  0  0
   10.5173   -1.9391   22.2701 H   0  0  0  0  0  0  0  0  0  0  0  0
   10.3809   -0.1936   22.5514 H   0  0  0  0  0  0  0  0  0  0  0  0
   10.9939   -5.6237   25.3033 H   0  0  0  0  0  0  0  0  0  0  0  0
    6.8532   -1.6824   28.7587 H   0  0  0  0  0  0  0  0  0  0  0  0
  1  2  2  0  0  0  0
  1  7  1  0  0  0  0
  1 16  1  0  0  0  0
  2  8  1  0  0  0  0
  2 17  1  0  0  0  0
  3  5  1  0  0  0  0
  3  8  2  0  0  0  0
  3 18  1  0  0  0  0
  4  6  2  0  0  0  0
  4 13  1  0  0  0  0
  4 19  1  0  0  0  0
  5  6  1  0  0  0  0
  5  7  2  0  0  0  0
  6 11  1  0  0  0  0
  7 13  1  0  0  0  0
  8 15  1  0  0  0  0
  9 14  1  0  0  0  0
  9 20  1  0  0  0  0
  9 21  1  0  0  0  0
  9 22  1  0  0  0  0
 10 14  1  0  0  0  0
 10 23  1  0  0  0  0
 10 24  1  0  0  0  0
 10 25  1  0  0  0  0
 11 12  1  0  0  0  0
 11 26  1  0  0  0  0
 11 27  1  0  0  0  0
 12 14  1  0  0  0  0
 12 28  1  0  0  0  0
 12 29  1  0  0  0  0
 13 30  1  0  0  0  0
 15 31  1  0  0  0  0
M  END
>  <Chemgauss4 Score>
-5.7353892326355

>  <Number of Confs>
16

$$$$
