DAR-DIA-43a-4
  -OEChem-03242005443D

 42 44  0     1  0  0  0  0  0999 V2000
    5.7070   -6.0693   25.9416 C   0  0  0  0  0  0  0  0  0  0  0  0
   13.4226   -0.1805   22.5674 C   0  0  0  0  0  0  0  0  0  0  0  0
    6.5936   -5.1318   26.4713 C   0  0  0  0  0  0  0  0  0  0  0  0
    5.5594   -6.1865   24.5595 C   0  0  0  0  0  0  0  0  0  0  0  0
   12.4701    0.1354   23.5297 C   0  0  0  0  0  0  0  0  0  0  0  0
    7.1850   -4.4287   24.2368 C   0  0  0  0  0  0  0  0  0  0  0  0
   13.2804   -1.3764   21.8822 C   0  0  0  0  0  0  0  0  0  0  0  0
   11.3667   -1.9125   23.0347 C   0  0  0  0  0  0  0  0  0  0  0  0
    7.3326   -4.3115   25.6189 C   0  0  0  0  0  0  0  0  0  0  0  0
    6.2984   -5.3662   23.7071 C   0  0  0  0  0  0  0  0  0  0  0  0
   11.4193   -0.7419   23.7740 C   0  0  0  0  0  0  0  0  0  0  0  0
    8.5156   -2.0431   25.3946 C   0  0  0  0  0  0  0  0  0  0  0  0
    9.7928   -1.6446   25.4372 C   0  0  0  0  0  0  0  0  0  0  0  0
   10.1671   -4.8638   25.4394 C   0  0  0  0  0  0  0  0  0  0  0  0
   10.6377   -2.5709   26.2587 C   0  0  0  0  0  0  0  0  0  0  0  0
    8.2953   -3.2959   26.1943 C   0  0  2  0  0  0  0  0  0  0  0  0
    9.7379   -3.8054   26.4209 C   0  0  1  0  0  0  0  0  0  0  0  0
   10.3698   -0.4277   24.8109 C   0  0  0  0  0  0  0  0  0  0  0  0
    6.1399   -5.4912   22.2293 C   0  0  0  0  0  0  0  0  0  0  0  0
   12.2735   -2.2536   22.0918 N   0  0  0  0  0  0  0  0  0  0  0  0
   10.5444   -6.0470   26.0294 N   0  0  0  0  0  0  0  0  0  0  0  0
   10.1568   -4.6715   24.2260 O   0  0  0  0  0  0  0  0  0  0  0  0
    5.2395   -6.4474   21.8542 F   0  0  0  0  0  0  0  0  0  0  0  0
    5.7117   -4.3428   21.6264 F   0  0  0  0  0  0  0  0  0  0  0  0
    7.3066   -5.8209   21.6023 F   0  0  0  0  0  0  0  0  0  0  0  0
    5.1316   -6.7081   26.6055 H   0  0  0  0  0  0  0  0  0  0  0  0
   14.2501    0.4884   22.3600 H   0  0  0  0  0  0  0  0  0  0  0  0
    6.7024   -5.0480   27.5496 H   0  0  0  0  0  0  0  0  0  0  0  0
    4.8657   -6.9192   24.1557 H   0  0  0  0  0  0  0  0  0  0  0  0
   12.5543    1.0663   24.0838 H   0  0  0  0  0  0  0  0  0  0  0  0
    7.7616   -3.7901   23.5718 H   0  0  0  0  0  0  0  0  0  0  0  0
   13.9974   -1.6687   21.1219 H   0  0  0  0  0  0  0  0  0  0  0  0
   10.5701   -2.6353   23.1813 H   0  0  0  0  0  0  0  0  0  0  0  0
    7.7265   -1.5057   24.8860 H   0  0  0  0  0  0  0  0  0  0  0  0
   11.5834   -2.8046   25.7585 H   0  0  0  0  0  0  0  0  0  0  0  0
   10.8547   -2.1117   27.2296 H   0  0  0  0  0  0  0  0  0  0  0  0
    7.8724   -2.9911   27.1870 H   0  0  0  0  0  0  0  0  0  0  0  0
    9.8472   -4.2434   27.4216 H   0  0  0  0  0  0  0  0  0  0  0  0
   10.8100    0.2144   25.5863 H   0  0  0  0  0  0  0  0  0  0  0  0
    9.5660    0.1675   24.3569 H   0  0  0  0  0  0  0  0  0  0  0  0
   10.5084   -6.1200   27.0408 H   0  0  0  0  0  0  0  0  0  0  0  0
   10.8574   -6.8502   25.4939 H   0  0  0  0  0  0  0  0  0  0  0  0
  1  3  2  0  0  0  0
  1  4  1  0  0  0  0
  2  5  2  0  0  0  0
  2  7  1  0  0  0  0
  3  9  1  0  0  0  0
  4 10  2  0  0  0  0
  5 11  1  0  0  0  0
  6  9  2  0  0  0  0
  6 10  1  0  0  0  0
  7 20  2  0  0  0  0
  8 11  2  0  0  0  0
  8 20  1  0  0  0  0
  9 16  1  0  0  0  0
 10 19  1  0  0  0  0
 11 18  1  0  0  0  0
 12 13  2  0  0  0  0
 12 16  1  0  0  0  0
 13 15  1  0  0  0  0
 13 18  1  0  0  0  0
 14 17  1  0  0  0  0
 14 21  1  0  0  0  0
 14 22  2  0  0  0  0
 15 17  1  0  0  0  0
 16 17  1  0  0  0  0
 19 23  1  0  0  0  0
 19 24  1  0  0  0  0
 19 25  1  0  0  0  0
  1 26  1  0  0  0  0
  2 27  1  0  0  0  0
  3 28  1  0  0  0  0
  4 29  1  0  0  0  0
  5 30  1  0  0  0  0
  6 31  1  0  0  0  0
  7 32  1  0  0  0  0
  8 33  1  0  0  0  0
 12 34  1  0  0  0  0
 15 35  1  0  0  0  0
 15 36  1  0  0  0  0
 16 37  1  6  0  0  0
 17 38  1  1  0  0  0
 18 39  1  0  0  0  0
 18 40  1  0  0  0  0
 21 41  1  0  0  0  0
 21 42  1  0  0  0  0
M  END
> <Chemgauss4 Score>
-8.98985767364502

> <Number of Confs>
200

$$$$
SAL-INS-1c7-9
  -OEChem-03242005443D

 43 45  0     1  0  0  0  0  0999 V2000
    7.2653   -3.5579   22.4654 C   0  0  0  0  0  0  0  0  0  0  0  0
    7.9418   -2.5792   23.1933 C   0  0  0  0  0  0  0  0  0  0  0  0
    8.2750   -5.2739   23.8340 C   0  0  0  0  0  0  0  0  0  0  0  0
    9.1842   -3.9171   28.0597 C   0  0  0  0  0  0  0  0  0  0  0  0
    7.9363   -5.6684   28.5415 C   0  0  0  0  0  0  0  0  0  0  0  0
    7.4318   -4.9053   22.7858 C   0  0  0  0  0  0  0  0  0  0  0  0
    8.9517   -4.2951   24.5619 C   0  0  0  0  0  0  0  0  0  0  0  0
    8.7850   -2.9477   24.2415 C   0  0  0  0  0  0  0  0  0  0  0  0
    9.1564   -4.8163   27.0198 C   0  0  0  0  0  0  0  0  0  0  0  0
   10.8458   -0.0809   24.2371 C   0  0  0  0  0  0  0  0  0  0  0  0
   11.5074    0.2298   23.1181 C   0  0  0  0  0  0  0  0  0  0  0  0
    8.8005   -1.3892   26.1293 C   0  0  0  0  0  0  0  0  0  0  0  0
   11.3297   -2.3394   23.4563 C   0  0  0  0  0  0  0  0  0  0  0  0
   10.8249   -1.5251   24.6464 C   0  0  2  0  0  0  0  0  0  0  0  0
    6.7101   -5.9519   22.0057 C   0  0  0  0  0  0  0  0  0  0  0  0
    9.8509   -4.7189   25.6778 C   0  0  0  0  0  0  0  0  0  0  0  0
    7.3755   -1.8881   26.2915 C   0  0  0  0  0  0  0  0  0  0  0  0
    8.3776   -5.9041   27.3259 N   0  0  0  0  0  0  0  0  0  0  0  0
    8.3978   -4.4765   29.0270 N   0  0  0  0  0  0  0  0  0  0  0  0
    9.4780   -1.9170   24.9845 N   0  0  0  0  0  0  0  0  0  0  0  0
    9.2653   -0.5726   26.9286 O   0  0  0  0  0  0  0  0  0  0  0  0
   13.6160   -1.2419   22.7277 O   0  0  0  0  0  0  0  0  0  0  0  0
   11.7255   -1.3369   21.0458 O   0  0  0  0  0  0  0  0  0  0  0  0
   12.2046   -1.1809   22.4040 S   0  0  0  0  0  0  0  0  0  0  0  0
    6.2536   -0.8243   25.4168 Cl  0  0  0  0  0  0  0  0  0  0  0  0
    6.6103   -3.2615   21.6504 H   0  0  0  0  0  0  0  0  0  0  0  0
    7.8032   -1.5322   22.9351 H   0  0  0  0  0  0  0  0  0  0  0  0
    8.4053   -6.3249   24.0812 H   0  0  0  0  0  0  0  0  0  0  0  0
    9.6728   -2.9633   28.1980 H   0  0  0  0  0  0  0  0  0  0  0  0
    7.2878   -6.3117   29.1195 H   0  0  0  0  0  0  0  0  0  0  0  0
   10.3415    0.6737   24.8288 H   0  0  0  0  0  0  0  0  0  0  0  0
   11.5958    1.2204   22.6926 H   0  0  0  0  0  0  0  0  0  0  0  0
   12.0578   -3.0893   23.7883 H   0  0  0  0  0  0  0  0  0  0  0  0
   10.5403   -2.8378   22.8851 H   0  0  0  0  0  0  0  0  0  0  0  0
   11.4479   -1.7141   25.5250 H   0  0  0  0  0  0  0  0  0  0  0  0
    7.3164   -6.2776   21.1517 H   0  0  0  0  0  0  0  0  0  0  0  0
    6.4856   -6.8282   22.6276 H   0  0  0  0  0  0  0  0  0  0  0  0
    5.7503   -5.5762   21.6281 H   0  0  0  0  0  0  0  0  0  0  0  0
   10.3199   -5.6899   25.4448 H   0  0  0  0  0  0  0  0  0  0  0  0
   10.7061   -4.0276   25.7655 H   0  0  0  0  0  0  0  0  0  0  0  0
    7.2847   -2.8948   25.8761 H   0  0  0  0  0  0  0  0  0  0  0  0
    7.0690   -1.8725   27.3401 H   0  0  0  0  0  0  0  0  0  0  0  0
    8.1949   -4.0820   29.9357 H   0  0  0  0  0  0  0  0  0  0  0  0
  1  2  2  0  0  0  0
  1  6  1  0  0  0  0
  2  8  1  0  0  0  0
  3  6  2  0  0  0  0
  3  7  1  0  0  0  0
  4  9  2  0  0  0  0
  4 19  1  0  0  0  0
  5 18  2  0  0  0  0
  5 19  1  0  0  0  0
  6 15  1  0  0  0  0
  7  8  2  0  0  0  0
  7 16  1  0  0  0  0
  8 20  1  0  0  0  0
  9 16  1  0  0  0  0
  9 18  1  0  0  0  0
 10 11  2  0  0  0  0
 10 14  1  0  0  0  0
 11 24  1  0  0  0  0
 12 17  1  0  0  0  0
 12 20  1  0  0  0  0
 12 21  2  0  0  0  0
 13 14  1  0  0  0  0
 13 24  1  0  0  0  0
 14 20  1  1  0  0  0
 17 25  1  0  0  0  0
 22 24  2  0  0  0  0
 23 24  2  0  0  0  0
  1 26  1  0  0  0  0
  2 27  1  0  0  0  0
  3 28  1  0  0  0  0
  4 29  1  0  0  0  0
  5 30  1  0  0  0  0
 10 31  1  0  0  0  0
 11 32  1  0  0  0  0
 13 33  1  0  0  0  0
 13 34  1  0  0  0  0
 14 35  1  0  0  0  0
 15 36  1  0  0  0  0
 15 37  1  0  0  0  0
 15 38  1  0  0  0  0
 16 39  1  0  0  0  0
 16 40  1  0  0  0  0
 17 41  1  0  0  0  0
 17 42  1  0  0  0  0
 19 43  1  0  0  0  0
M  END
> <Chemgauss4 Score>
-8.12044048309326

> <Number of Confs>
156

$$$$
SAM-UNK-83e-3
  -OEChem-03242005443D

 39 40  0     0  0  0  0  0  0999 V2000
    9.8920   -1.4036   22.9270 C   0  0  0  0  0  0  0  0  0  0  0  0
   10.9836   -3.0705   24.3151 C   0  0  0  0  0  0  0  0  0  0  0  0
    6.4744   -2.4915   23.6323 C   0  0  0  0  0  0  0  0  0  0  0  0
    8.6382   -1.9339   23.2909 C   0  0  0  0  0  0  0  0  0  0  0  0
    9.7513   -3.6134   24.6903 C   0  0  0  0  0  0  0  0  0  0  0  0
    7.2918   -1.6085   22.9650 C   0  0  0  0  0  0  0  0  0  0  0  0
    8.5969   -3.0243   24.1624 C   0  0  0  0  0  0  0  0  0  0  0  0
   11.0552   -1.9827   23.4472 C   0  0  0  0  0  0  0  0  0  0  0  0
    9.6379   -4.7439   25.5896 C   0  0  0  0  0  0  0  0  0  0  0  0
    6.8287   -0.5784   22.1168 C   0  0  0  0  0  0  0  0  0  0  0  0
    8.9601   -4.7099   26.7348 C   0  0  0  0  0  0  0  0  0  0  0  0
    6.5813   -0.7168   20.7951 C   0  0  0  0  0  0  0  0  0  0  0  0
    5.8943   -0.0007   18.5835 C   0  0  0  0  0  0  0  0  0  0  0  0
    5.4196    1.2323   17.8601 C   0  0  0  0  0  0  0  0  0  0  0  0
    7.8159   -6.6564   29.9507 C   0  0  0  0  0  0  0  0  0  0  0  0
    7.2707   -3.3413   24.3520 N   0  0  0  0  0  0  0  0  0  0  0  0
    6.1215    0.2296   19.9336 N   0  0  0  0  0  0  0  0  0  0  0  0
    8.8053   -5.7395   27.6097 N   0  0  0  0  0  0  0  0  0  0  0  0
    6.0719   -1.0635   17.9925 O   0  0  0  0  0  0  0  0  0  0  0  0
    6.9272   -4.4653   28.8591 O   0  0  0  0  0  0  0  0  0  0  0  0
    6.3962   -6.6777   27.7612 O   0  0  0  0  0  0  0  0  0  0  0  0
   12.2513   -1.4841   23.1056 F   0  0  0  0  0  0  0  0  0  0  0  0
    7.3133   -5.8091   28.4733 S   0  0  0  0  0  0  0  0  0  0  0  0
    9.9665   -0.5561   22.2517 H   0  0  0  0  0  0  0  0  0  0  0  0
   11.9080   -3.4956   24.7001 H   0  0  0  0  0  0  0  0  0  0  0  0
    5.3982   -2.5957   23.6632 H   0  0  0  0  0  0  0  0  0  0  0  0
   10.1112   -5.6650   25.2793 H   0  0  0  0  0  0  0  0  0  0  0  0
    6.6194    0.4074   22.5531 H   0  0  0  0  0  0  0  0  0  0  0  0
    8.4360   -3.8298   27.0886 H   0  0  0  0  0  0  0  0  0  0  0  0
    6.7267   -1.6594   20.2805 H   0  0  0  0  0  0  0  0  0  0  0  0
    6.2820    1.7851   17.4772 H   0  0  0  0  0  0  0  0  0  0  0  0
    4.8620    1.8652   18.5558 H   0  0  0  0  0  0  0  0  0  0  0  0
    4.7765    0.9692   17.0153 H   0  0  0  0  0  0  0  0  0  0  0  0
    6.9443   -6.7671   30.5976 H   0  0  0  0  0  0  0  0  0  0  0  0
    8.2102   -7.6341   29.6696 H   0  0  0  0  0  0  0  0  0  0  0  0
    8.5853   -6.0609   30.4442 H   0  0  0  0  0  0  0  0  0  0  0  0
    6.9311   -4.0920   24.9372 H   0  0  0  0  0  0  0  0  0  0  0  0
    5.9330    1.1608   20.2998 H   0  0  0  0  0  0  0  0  0  0  0  0
    9.2588   -6.6591   27.3737 H   0  0  0  0  0  0  0  0  0  0  0  0
  1  4  1  0  0  0  0
  1  8  2  0  0  0  0
  2  5  2  0  0  0  0
  2  8  1  0  0  0  0
  3  6  2  0  0  0  0
  3 16  1  0  0  0  0
  4  6  1  0  0  0  0
  4  7  2  0  0  0  0
  5  7  1  0  0  0  0
  5  9  1  0  0  0  0
  6 10  1  0  0  0  0
  7 16  1  0  0  0  0
  8 22  1  0  0  0  0
  9 11  2  3  0  0  0
 10 12  2  3  0  0  0
 11 18  1  0  0  0  0
 12 17  1  0  0  0  0
 13 14  1  0  0  0  0
 13 17  1  0  0  0  0
 13 19  2  0  0  0  0
 15 23  1  0  0  0  0
 18 23  1  0  0  0  0
 20 23  2  0  0  0  0
 21 23  2  0  0  0  0
  1 24  1  0  0  0  0
  2 25  1  0  0  0  0
  3 26  1  0  0  0  0
  9 27  1  0  0  0  0
 10 28  1  0  0  0  0
 11 29  1  0  0  0  0
 12 30  1  0  0  0  0
 14 31  1  0  0  0  0
 14 32  1  0  0  0  0
 14 33  1  0  0  0  0
 15 34  1  0  0  0  0
 15 35  1  0  0  0  0
 15 36  1  0  0  0  0
 16 37  1  0  0  0  0
 17 38  1  0  0  0  0
 18 39  1  0  0  0  0
M  END
> <Chemgauss4 Score>
-7.9613242149353

> <Number of Confs>
200

$$$$
AGN-NEW-891-6
  -OEChem-03242005443D

 38 40  0     0  0  0  0  0  0999 V2000
   12.1363   -2.4731   23.4421 C   0  0  0  0  0  0  0  0  0  0  0  0
    7.2449   -5.1033   26.7077 C   0  0  0  0  0  0  0  0  0  0  0  0
    5.3844   -0.1826   19.4503 C   0  0  0  0  0  0  0  0  0  0  0  0
   11.2218   -3.2613   24.1408 C   0  0  0  0  0  0  0  0  0  0  0  0
    6.1403   -0.0276   20.6069 C   0  0  0  0  0  0  0  0  0  0  0  0
    8.6107   -5.3719   26.7980 C   0  0  0  0  0  0  0  0  0  0  0  0
    6.7927   -4.0466   25.9172 C   0  0  0  0  0  0  0  0  0  0  0  0
   11.8485   -1.1327   23.1850 C   0  0  0  0  0  0  0  0  0  0  0  0
    9.7315   -1.3686   24.3251 C   0  0  0  0  0  0  0  0  0  0  0  0
    6.0480   -0.1619   18.2342 C   0  0  0  0  0  0  0  0  0  0  0  0
    8.0855    0.1470   19.2498 C   0  0  0  0  0  0  0  0  0  0  0  0
   10.0194   -2.7090   24.5822 C   0  0  0  0  0  0  0  0  0  0  0  0
    9.0721   -3.5272   25.3075 C   0  0  0  0  0  0  0  0  0  0  0  0
    7.5173    0.1410   20.5135 C   0  0  0  0  0  0  0  0  0  0  0  0
    9.5243   -4.5839   26.0980 C   0  0  0  0  0  0  0  0  0  0  0  0
    7.7063   -3.2586   25.2172 C   0  0  0  0  0  0  0  0  0  0  0  0
   10.6461   -0.5805   23.6264 C   0  0  0  0  0  0  0  0  0  0  0  0
    8.3458    0.3082   21.7201 C   0  0  0  0  0  0  0  0  0  0  0  0
    9.4742    1.0264   21.7776 C   0  0  0  0  0  0  0  0  0  0  0  0
    7.3839   -0.0005   18.1036 N   0  0  0  0  0  0  0  0  0  0  0  0
    9.3420    1.5694   24.3108 O   0  0  0  0  0  0  0  0  0  0  0  0
   11.5546    1.7996   23.1400 O   0  0  0  0  0  0  0  0  0  0  0  0
   10.8340   -4.8554   26.1951 F   0  0  0  0  0  0  0  0  0  0  0  0
    7.2554   -2.2450   24.4635 F   0  0  0  0  0  0  0  0  0  0  0  0
   10.2876    1.0982   23.3062 S   0  0  0  0  0  0  0  0  0  0  0  0
   13.0728   -2.9030   23.0986 H   0  0  0  0  0  0  0  0  0  0  0  0
    6.5332   -5.7165   27.2524 H   0  0  0  0  0  0  0  0  0  0  0  0
    4.3098   -0.3156   19.4991 H   0  0  0  0  0  0  0  0  0  0  0  0
   11.4607   -4.3046   24.3330 H   0  0  0  0  0  0  0  0  0  0  0  0
    5.6428   -0.0402   21.5735 H   0  0  0  0  0  0  0  0  0  0  0  0
    8.9626   -6.1952   27.4130 H   0  0  0  0  0  0  0  0  0  0  0  0
    5.7295   -3.8369   25.8478 H   0  0  0  0  0  0  0  0  0  0  0  0
   12.5676   -0.5276   22.6398 H   0  0  0  0  0  0  0  0  0  0  0  0
    8.7948   -0.9329   24.6666 H   0  0  0  0  0  0  0  0  0  0  0  0
    5.5032   -0.2778   17.3031 H   0  0  0  0  0  0  0  0  0  0  0  0
    9.1551    0.2742   19.1086 H   0  0  0  0  0  0  0  0  0  0  0  0
    7.9740   -0.1880   22.6144 H   0  0  0  0  0  0  0  0  0  0  0  0
    9.8938    1.5637   20.9370 H   0  0  0  0  0  0  0  0  0  0  0  0
  1  4  1  0  0  0  0
  1  8  2  0  0  0  0
  2  6  1  0  0  0  0
  2  7  2  0  0  0  0
  3  5  2  0  0  0  0
  3 10  1  0  0  0  0
  4 12  2  0  0  0  0
  5 14  1  0  0  0  0
  6 15  2  0  0  0  0
  7 16  1  0  0  0  0
  8 17  1  0  0  0  0
  9 12  1  0  0  0  0
  9 17  2  0  0  0  0
 10 20  2  0  0  0  0
 11 14  2  0  0  0  0
 11 20  1  0  0  0  0
 12 13  1  0  0  0  0
 13 15  1  0  0  0  0
 13 16  2  0  0  0  0
 14 18  1  0  0  0  0
 15 23  1  0  0  0  0
 16 24  1  0  0  0  0
 17 25  1  0  0  0  0
 18 19  2  0  0  0  0
 19 25  1  0  0  0  0
 21 25  2  0  0  0  0
 22 25  2  0  0  0  0
  1 26  1  0  0  0  0
  2 27  1  0  0  0  0
  3 28  1  0  0  0  0
  4 29  1  0  0  0  0
  5 30  1  0  0  0  0
  6 31  1  0  0  0  0
  7 32  1  0  0  0  0
  8 33  1  0  0  0  0
  9 34  1  0  0  0  0
 10 35  1  0  0  0  0
 11 36  1  0  0  0  0
 18 37  1  0  0  0  0
 19 38  1  0  0  0  0
M  END
> <Chemgauss4 Score>
-7.88927936553955

> <Number of Confs>
122

$$$$
SAM-UNK-83e-1
  -OEChem-03242005443D

 46 48  0     0  0  0  0  0  0999 V2000
    9.8296   -1.3316   22.3460 C   0  0  0  0  0  0  0  0  0  0  0  0
   11.2893   -2.6807   23.7411 C   0  0  0  0  0  0  0  0  0  0  0  0
    6.9061   -1.5410   24.5300 C   0  0  0  0  0  0  0  0  0  0  0  0
    8.7914   -1.5005   23.2836 C   0  0  0  0  0  0  0  0  0  0  0  0
    7.4428   -1.0530   23.3609 C   0  0  0  0  0  0  0  0  0  0  0  0
   10.2746   -2.8620   24.6852 C   0  0  0  0  0  0  0  0  0  0  0  0
    9.0374   -2.2603   24.4293 C   0  0  0  0  0  0  0  0  0  0  0  0
   11.0725   -1.9277   22.5888 C   0  0  0  0  0  0  0  0  0  0  0  0
    6.7392   -0.2537   22.4334 C   0  0  0  0  0  0  0  0  0  0  0  0
    6.9417   -0.2588   21.0967 C   0  0  0  0  0  0  0  0  0  0  0  0
    6.5622    0.4049   18.7964 C   0  0  0  0  0  0  0  0  0  0  0  0
    8.3053   -4.7505   28.7557 C   0  0  0  0  0  0  0  0  0  0  0  0
    7.3113   -5.5035   26.5851 C   0  0  0  0  0  0  0  0  0  0  0  0
    9.5923   -4.4111   28.0047 C   0  0  0  0  0  0  0  0  0  0  0  0
    8.6288   -5.1416   25.9007 C   0  0  0  0  0  0  0  0  0  0  0  0
    7.5285   -5.8594   28.0532 C   0  0  0  0  0  0  0  0  0  0  0  0
    5.7113    1.3493   17.9881 C   0  0  0  0  0  0  0  0  0  0  0  0
   10.5436   -3.6794   25.9156 C   0  0  0  0  0  0  0  0  0  0  0  0
    7.8755   -2.2677   25.1676 N   0  0  0  0  0  0  0  0  0  0  0  0
    9.3092   -4.0477   26.6087 N   0  0  0  0  0  0  0  0  0  0  0  0
    6.2878    0.4734   20.1556 N   0  0  0  0  0  0  0  0  0  0  0  0
    7.4116   -0.3077   18.2663 O   0  0  0  0  0  0  0  0  0  0  0  0
    6.2753   -6.0301   28.7029 O   0  0  0  0  0  0  0  0  0  0  0  0
   12.0648   -1.7716   21.7018 F   0  0  0  0  0  0  0  0  0  0  0  0
    9.6781   -0.7484   21.4422 H   0  0  0  0  0  0  0  0  0  0  0  0
   12.2664   -3.1313   23.9004 H   0  0  0  0  0  0  0  0  0  0  0  0
    5.9232   -1.4394   24.9701 H   0  0  0  0  0  0  0  0  0  0  0  0
    5.9430    0.4053   22.8047 H   0  0  0  0  0  0  0  0  0  0  0  0
    7.6829   -0.8985   20.6319 H   0  0  0  0  0  0  0  0  0  0  0  0
    8.5375   -5.0546   29.7837 H   0  0  0  0  0  0  0  0  0  0  0  0
    7.6754   -3.8553   28.8467 H   0  0  0  0  0  0  0  0  0  0  0  0
    6.6033   -4.6676   26.5062 H   0  0  0  0  0  0  0  0  0  0  0  0
    6.8364   -6.3445   26.0657 H   0  0  0  0  0  0  0  0  0  0  0  0
   10.0752   -3.5702   28.5169 H   0  0  0  0  0  0  0  0  0  0  0  0
   10.2833   -5.2628   28.0541 H   0  0  0  0  0  0  0  0  0  0  0  0
    9.2714   -6.0303   25.8450 H   0  0  0  0  0  0  0  0  0  0  0  0
    8.4057   -4.8352   24.8714 H   0  0  0  0  0  0  0  0  0  0  0  0
    8.0817   -6.8027   28.1330 H   0  0  0  0  0  0  0  0  0  0  0  0
    6.2200    2.3133   17.8997 H   0  0  0  0  0  0  0  0  0  0  0  0
    4.7514    1.4897   18.4923 H   0  0  0  0  0  0  0  0  0  0  0  0
    5.5375    0.9580   16.9816 H   0  0  0  0  0  0  0  0  0  0  0  0
   11.0738   -4.6026   25.6575 H   0  0  0  0  0  0  0  0  0  0  0  0
   11.1734   -3.1295   26.6228 H   0  0  0  0  0  0  0  0  0  0  0  0
    7.7550   -2.7411   26.0524 H   0  0  0  0  0  0  0  0  0  0  0  0
    5.5548    1.1084   20.4657 H   0  0  0  0  0  0  0  0  0  0  0  0
    5.8105   -6.7400   28.2315 H   0  0  0  0  0  0  0  0  0  0  0  0
  1  4  1  0  0  0  0
  1  8  2  0  0  0  0
  2  6  2  0  0  0  0
  2  8  1  0  0  0  0
  3  5  2  0  0  0  0
  3 19  1  0  0  0  0
  4  5  1  0  0  0  0
  4  7  2  0  0  0  0
  5  9  1  0  0  0  0
  6  7  1  0  0  0  0
  6 18  1  0  0  0  0
  7 19  1  0  0  0  0
  8 24  1  0  0  0  0
  9 10  2  3  0  0  0
 10 21  1  0  0  0  0
 11 17  1  0  0  0  0
 11 21  1  0  0  0  0
 11 22  2  0  0  0  0
 12 14  1  0  0  0  0
 12 16  1  0  0  0  0
 13 15  1  0  0  0  0
 13 16  1  0  0  0  0
 14 20  1  0  0  0  0
 15 20  1  0  0  0  0
 16 23  1  0  0  0  0
 18 20  1  0  0  0  0
  1 25  1  0  0  0  0
  2 26  1  0  0  0  0
  3 27  1  0  0  0  0
  9 28  1  0  0  0  0
 10 29  1  0  0  0  0
 12 30  1  0  0  0  0
 12 31  1  0  0  0  0
 13 32  1  0  0  0  0
 13 33  1  0  0  0  0
 14 34  1  0  0  0  0
 14 35  1  0  0  0  0
 15 36  1  0  0  0  0
 15 37  1  0  0  0  0
 16 38  1  0  0  0  0
 17 39  1  0  0  0  0
 17 40  1  0  0  0  0
 17 41  1  0  0  0  0
 18 42  1  0  0  0  0
 18 43  1  0  0  0  0
 19 44  1  0  0  0  0
 21 45  1  0  0  0  0
 23 46  1  0  0  0  0
M  END
> <Chemgauss4 Score>
-7.65245676040649

> <Number of Confs>
159

$$$$
CHR-SOS-1f3-3
  -OEChem-03242005443D

 52 54  0     0  0  0  0  0  0999 V2000
    8.5215   -2.5106   24.6340 C   0  0  0  0  0  0  0  0  0  0  0  0
   10.5186   -3.8580   24.8157 C   0  0  0  0  0  0  0  0  0  0  0  0
    7.9293   -3.2502   25.6576 C   0  0  0  0  0  0  0  0  0  0  0  0
    9.9265   -4.5976   25.8394 C   0  0  0  0  0  0  0  0  0  0  0  0
    5.0381    1.6027   19.1126 C   0  0  0  0  0  0  0  0  0  0  0  0
    5.5552    1.0100   17.9720 C   0  0  0  0  0  0  0  0  0  0  0  0
    7.3704    0.1866   19.1144 C   0  0  0  0  0  0  0  0  0  0  0  0
    5.7491    1.4610   20.2991 C   0  0  0  0  0  0  0  0  0  0  0  0
    6.9385    0.7410   20.3086 C   0  0  0  0  0  0  0  0  0  0  0  0
    9.8161   -2.8145   24.2129 C   0  0  0  0  0  0  0  0  0  0  0  0
    8.6318   -4.2936   26.2604 C   0  0  0  0  0  0  0  0  0  0  0  0
    8.9013   -0.1251   21.6420 C   0  0  0  0  0  0  0  0  0  0  0  0
   13.2397   -0.3496   24.6553 C   0  0  0  0  0  0  0  0  0  0  0  0
   12.0804   -0.9176   25.4672 C   0  0  0  0  0  0  0  0  0  0  0  0
   13.0885   -0.6502   23.1678 C   0  0  0  0  0  0  0  0  0  0  0  0
   10.7290   -0.4303   24.9402 C   0  0  0  0  0  0  0  0  0  0  0  0
   11.7433   -0.1625   22.6255 C   0  0  0  0  0  0  0  0  0  0  0  0
   10.5505   -0.6885   23.4369 C   0  0  0  0  0  0  0  0  0  0  0  0
    5.2150    2.0902   21.5439 C   0  0  0  0  0  0  0  0  0  0  0  0
    6.7071    0.3031   17.9422 N   0  0  0  0  0  0  0  0  0  0  0  0
    6.3653   -4.4578   27.6535 N   0  0  0  0  0  0  0  0  0  0  0  0
    7.6974    0.5684   21.4896 N   0  0  0  0  0  0  0  0  0  0  0  0
    9.3330   -0.0630   22.9716 N   0  0  0  0  0  0  0  0  0  0  0  0
    9.5225   -0.7163   20.7622 O   0  0  0  0  0  0  0  0  0  0  0  0
    7.6999   -6.5848   27.0701 O   0  0  0  0  0  0  0  0  0  0  0  0
    8.6264   -4.9766   28.7739 O   0  0  0  0  0  0  0  0  0  0  0  0
   10.3975   -2.0885   23.2087 O   0  0  0  0  0  0  0  0  0  0  0  0
    7.8902   -5.2202   27.5414 S   0  0  0  0  0  0  0  0  0  0  0  0
    7.9696   -1.6983   24.1687 H   0  0  0  0  0  0  0  0  0  0  0  0
   11.5273   -4.0995   24.4920 H   0  0  0  0  0  0  0  0  0  0  0  0
    6.9203   -3.0049   25.9777 H   0  0  0  0  0  0  0  0  0  0  0  0
   10.4824   -5.4087   26.3019 H   0  0  0  0  0  0  0  0  0  0  0  0
    4.1073    2.1581   19.0714 H   0  0  0  0  0  0  0  0  0  0  0  0
    5.0389    1.0913   17.0211 H   0  0  0  0  0  0  0  0  0  0  0  0
    8.2910   -0.3867   19.0578 H   0  0  0  0  0  0  0  0  0  0  0  0
   13.3033    0.7330   24.8087 H   0  0  0  0  0  0  0  0  0  0  0  0
   14.1811   -0.7794   25.0181 H   0  0  0  0  0  0  0  0  0  0  0  0
   12.1110   -2.0131   25.4348 H   0  0  0  0  0  0  0  0  0  0  0  0
   12.1927   -0.6301   26.5198 H   0  0  0  0  0  0  0  0  0  0  0  0
   13.9088   -0.1811   22.6111 H   0  0  0  0  0  0  0  0  0  0  0  0
   13.1763   -1.7307   23.0021 H   0  0  0  0  0  0  0  0  0  0  0  0
    9.9227   -0.9329   25.4924 H   0  0  0  0  0  0  0  0  0  0  0  0
   10.6019    0.6377   25.1606 H   0  0  0  0  0  0  0  0  0  0  0  0
   11.7272    0.9346   22.5933 H   0  0  0  0  0  0  0  0  0  0  0  0
   11.6376   -0.4801   21.5790 H   0  0  0  0  0  0  0  0  0  0  0  0
    4.5564    1.3902   22.0709 H   0  0  0  0  0  0  0  0  0  0  0  0
    6.0275    2.3825   22.2203 H   0  0  0  0  0  0  0  0  0  0  0  0
    4.6467    3.0004   21.3154 H   0  0  0  0  0  0  0  0  0  0  0  0
    5.5433   -4.9722   27.3143 H   0  0  0  0  0  0  0  0  0  0  0  0
    6.1783   -3.8730   28.4771 H   0  0  0  0  0  0  0  0  0  0  0  0
    7.3172    1.0039   22.3263 H   0  0  0  0  0  0  0  0  0  0  0  0
    8.7639    0.4458   23.6417 H   0  0  0  0  0  0  0  0  0  0  0  0
  1  3  2  0  0  0  0
  1 10  1  0  0  0  0
  2  4  1  0  0  0  0
  2 10  2  0  0  0  0
  3 11  1  0  0  0  0
  4 11  2  0  0  0  0
  5  6  2  0  0  0  0
  5  8  1  0  0  0  0
  6 20  1  0  0  0  0
  7  9  1  0  0  0  0
  7 20  2  0  0  0  0
  8  9  2  0  0  0  0
  8 19  1  0  0  0  0
  9 22  1  0  0  0  0
 10 27  1  0  0  0  0
 11 28  1  0  0  0  0
 12 22  1  0  0  0  0
 12 23  1  0  0  0  0
 12 24  2  0  0  0  0
 13 14  1  0  0  0  0
 13 15  1  0  0  0  0
 14 16  1  0  0  0  0
 15 17  1  0  0  0  0
 16 18  1  0  0  0  0
 17 18  1  0  0  0  0
 18 23  1  0  0  0  0
 18 27  1  0  0  0  0
 21 28  1  0  0  0  0
 25 28  2  0  0  0  0
 26 28  2  0  0  0  0
  1 29  1  0  0  0  0
  2 30  1  0  0  0  0
  3 31  1  0  0  0  0
  4 32  1  0  0  0  0
  5 33  1  0  0  0  0
  6 34  1  0  0  0  0
  7 35  1  0  0  0  0
 13 36  1  0  0  0  0
 13 37  1  0  0  0  0
 14 38  1  0  0  0  0
 14 39  1  0  0  0  0
 15 40  1  0  0  0  0
 15 41  1  0  0  0  0
 16 42  1  0  0  0  0
 16 43  1  0  0  0  0
 17 44  1  0  0  0  0
 17 45  1  0  0  0  0
 19 46  1  0  0  0  0
 19 47  1  0  0  0  0
 19 48  1  0  0  0  0
 21 49  1  0  0  0  0
 21 50  1  0  0  0  0
 22 51  1  0  0  0  0
 23 52  1  0  0  0  0
M  END
> <Chemgauss4 Score>
-7.54667186737061

> <Number of Confs>
82

$$$$
CHR-SOS-709-13
  -OEChem-03242005443D

 36 38  0     0  0  0  0  0  0999 V2000
    8.0264   -5.1555   28.3645 C   0  0  0  0  0  0  0  0  0  0  0  0
    9.2850   -4.5570   28.3077 C   0  0  0  0  0  0  0  0  0  0  0  0
    7.1436   -5.0261   27.2922 C   0  0  0  0  0  0  0  0  0  0  0  0
    5.3795    1.2022   19.0560 C   0  0  0  0  0  0  0  0  0  0  0  0
    9.6608   -3.8289   27.1789 C   0  0  0  0  0  0  0  0  0  0  0  0
    7.5194   -4.2981   26.1634 C   0  0  0  0  0  0  0  0  0  0  0  0
    6.0592    0.5683   20.0901 C   0  0  0  0  0  0  0  0  0  0  0  0
   10.5162   -2.8921   24.5811 C   0  0  0  0  0  0  0  0  0  0  0  0
    9.9636   -1.4983   22.6866 C   0  0  0  0  0  0  0  0  0  0  0  0
    5.9416    1.1624   17.7902 C   0  0  0  0  0  0  0  0  0  0  0  0
    7.7408   -0.0597   18.5300 C   0  0  0  0  0  0  0  0  0  0  0  0
    8.7780   -3.6994   26.1066 C   0  0  0  0  0  0  0  0  0  0  0  0
    9.1682   -2.9444   24.9358 C   0  0  0  0  0  0  0  0  0  0  0  0
    8.6156   -1.5506   23.0413 C   0  0  0  0  0  0  0  0  0  0  0  0
    7.2632   -0.0770   19.8305 C   0  0  0  0  0  0  0  0  0  0  0  0
    8.2179   -2.2737   24.1659 C   0  0  0  0  0  0  0  0  0  0  0  0
   10.9139   -2.1690   23.4565 C   0  0  0  0  0  0  0  0  0  0  0  0
    7.6416   -0.8437   22.2209 C   0  0  0  0  0  0  0  0  0  0  0  0
    7.1089    0.5456   17.4995 N   0  0  0  0  0  0  0  0  0  0  0  0
    7.9793   -0.7318   20.8642 N   0  0  0  0  0  0  0  0  0  0  0  0
    6.6149   -0.3543   22.7092 O   0  0  0  0  0  0  0  0  0  0  0  0
    6.8964   -2.3187   24.5070 O   0  0  0  0  0  0  0  0  0  0  0  0
   12.5780   -2.1001   23.0222 Cl  0  0  0  0  0  0  0  0  0  0  0  0
    7.7347   -5.7237   29.2428 H   0  0  0  0  0  0  0  0  0  0  0  0
    9.9731   -4.6590   29.1418 H   0  0  0  0  0  0  0  0  0  0  0  0
    6.1640   -5.4931   27.3352 H   0  0  0  0  0  0  0  0  0  0  0  0
    4.4395    1.7114   19.2353 H   0  0  0  0  0  0  0  0  0  0  0  0
   10.6456   -3.3684   27.1497 H   0  0  0  0  0  0  0  0  0  0  0  0
    6.8208   -4.2063   25.3350 H   0  0  0  0  0  0  0  0  0  0  0  0
    5.6422    0.5832   21.0936 H   0  0  0  0  0  0  0  0  0  0  0  0
   11.2598   -3.4117   25.1825 H   0  0  0  0  0  0  0  0  0  0  0  0
   10.2715   -0.9335   21.8092 H   0  0  0  0  0  0  0  0  0  0  0  0
    5.4510    1.6424   16.9499 H   0  0  0  0  0  0  0  0  0  0  0  0
    8.6750   -0.5461   18.2652 H   0  0  0  0  0  0  0  0  0  0  0  0
    8.8499   -1.1778   20.5861 H   0  0  0  0  0  0  0  0  0  0  0  0
    6.3727   -1.8047   23.8742 H   0  0  0  0  0  0  0  0  0  0  0  0
  1  2  1  0  0  0  0
  1  3  2  0  0  0  0
  2  5  2  0  0  0  0
  3  6  1  0  0  0  0
  4  7  2  0  0  0  0
  4 10  1  0  0  0  0
  5 12  1  0  0  0  0
  6 12  2  0  0  0  0
  7 15  1  0  0  0  0
  8 13  2  0  0  0  0
  8 17  1  0  0  0  0
  9 14  1  0  0  0  0
  9 17  2  0  0  0  0
 10 19  2  0  0  0  0
 11 15  2  0  0  0  0
 11 19  1  0  0  0  0
 12 13  1  0  0  0  0
 13 16  1  0  0  0  0
 14 16  2  0  0  0  0
 14 18  1  0  0  0  0
 15 20  1  0  0  0  0
 16 22  1  0  0  0  0
 17 23  1  0  0  0  0
 18 20  1  0  0  0  0
 18 21  2  0  0  0  0
  1 24  1  0  0  0  0
  2 25  1  0  0  0  0
  3 26  1  0  0  0  0
  4 27  1  0  0  0  0
  5 28  1  0  0  0  0
  6 29  1  0  0  0  0
  7 30  1  0  0  0  0
  8 31  1  0  0  0  0
  9 32  1  0  0  0  0
 10 33  1  0  0  0  0
 11 34  1  0  0  0  0
 20 35  1  0  0  0  0
 22 36  1  0  0  0  0
M  END
> <Chemgauss4 Score>
-7.4498815536499

> <Number of Confs>
20

$$$$
DAR-DIA-033-13
  -OEChem-03242005443D

 54 57  0     0  0  0  0  0  0999 V2000
   13.5115   -1.5393   20.5255 C   0  0  0  0  0  0  0  0  0  0  0  0
   14.2556   -1.2138   21.6594 C   0  0  0  0  0  0  0  0  0  0  0  0
   12.1177   -1.5116   20.5742 C   0  0  0  0  0  0  0  0  0  0  0  0
   13.6061   -0.8606   22.8422 C   0  0  0  0  0  0  0  0  0  0  0  0
   11.4681   -1.1584   21.7570 C   0  0  0  0  0  0  0  0  0  0  0  0
    6.5627   -5.0988   23.7045 C   0  0  0  0  0  0  0  0  0  0  0  0
    6.6466   -6.2285   24.5073 C   0  0  0  0  0  0  0  0  0  0  0  0
   10.5560   -4.5640   25.8541 C   0  0  0  0  0  0  0  0  0  0  0  0
    8.6859   -4.4347   24.5953 C   0  0  0  0  0  0  0  0  0  0  0  0
   12.2123   -0.8328   22.8910 C   0  0  0  0  0  0  0  0  0  0  0  0
    7.6027   -4.1717   23.7412 C   0  0  0  0  0  0  0  0  0  0  0  0
    9.9031   -3.7823   24.9254 C   0  0  0  0  0  0  0  0  0  0  0  0
    8.6404   -5.6066   25.3448 C   0  0  0  0  0  0  0  0  0  0  0  0
   11.2156   -1.6374   25.0733 C   0  0  0  0  0  0  0  0  0  0  0  0
    6.5353   -2.6287   22.0498 C   0  0  0  0  0  0  0  0  0  0  0  0
    5.6394    0.9878   18.1031 C   0  0  0  0  0  0  0  0  0  0  0  0
    5.3163    1.4876   19.5084 C   0  0  0  0  0  0  0  0  0  0  0  0
    5.4932   -0.5275   17.9968 C   0  0  0  0  0  0  0  0  0  0  0  0
    6.1493    0.7680   20.5678 C   0  0  0  0  0  0  0  0  0  0  0  0
    6.3270   -1.2493   19.0541 C   0  0  0  0  0  0  0  0  0  0  0  0
    5.9907   -0.7529   20.4646 C   0  0  0  0  0  0  0  0  0  0  0  0
   11.5102   -0.4517   24.1679 C   0  0  0  0  0  0  0  0  0  0  0  0
    7.6633   -6.5330   25.3469 N   0  0  0  0  0  0  0  0  0  0  0  0
    9.7815   -5.6678   26.1007 N   0  0  0  0  0  0  0  0  0  0  0  0
   10.3832   -2.5889   24.4347 N   0  0  0  0  0  0  0  0  0  0  0  0
    7.5468   -3.0103   22.9357 N   0  0  0  0  0  0  0  0  0  0  0  0
    6.8563   -1.4100   21.4420 N   0  0  0  0  0  0  0  0  0  0  0  0
   11.6633   -1.7195   26.2126 O   0  0  0  0  0  0  0  0  0  0  0  0
    5.4996   -3.2451   21.8112 O   0  0  0  0  0  0  0  0  0  0  0  0
   14.0174   -1.8130   19.6042 H   0  0  0  0  0  0  0  0  0  0  0  0
   15.3409   -1.2343   21.6213 H   0  0  0  0  0  0  0  0  0  0  0  0
   11.5380   -1.7639   19.6913 H   0  0  0  0  0  0  0  0  0  0  0  0
   14.1940   -0.6086   23.7208 H   0  0  0  0  0  0  0  0  0  0  0  0
   10.3819   -1.1396   21.7857 H   0  0  0  0  0  0  0  0  0  0  0  0
    5.6993   -4.9490   23.0638 H   0  0  0  0  0  0  0  0  0  0  0  0
    5.8443   -6.9615   24.4916 H   0  0  0  0  0  0  0  0  0  0  0  0
   11.5018   -4.4360   26.3624 H   0  0  0  0  0  0  0  0  0  0  0  0
    4.9774    1.4739   17.3777 H   0  0  0  0  0  0  0  0  0  0  0  0
    6.6656    1.2740   17.8417 H   0  0  0  0  0  0  0  0  0  0  0  0
    5.4989    2.5666   19.5667 H   0  0  0  0  0  0  0  0  0  0  0  0
    4.2503    1.3318   19.7152 H   0  0  0  0  0  0  0  0  0  0  0  0
    4.4377   -0.8017   18.1155 H   0  0  0  0  0  0  0  0  0  0  0  0
    5.7990   -0.8580   16.9978 H   0  0  0  0  0  0  0  0  0  0  0  0
    7.2043    1.0445   20.4437 H   0  0  0  0  0  0  0  0  0  0  0  0
    5.8404    1.1124   21.5621 H   0  0  0  0  0  0  0  0  0  0  0  0
    6.1440   -2.3282   18.9805 H   0  0  0  0  0  0  0  0  0  0  0  0
    7.3921   -1.0873   18.8434 H   0  0  0  0  0  0  0  0  0  0  0  0
    4.9751   -1.0370   20.7240 H   0  0  0  0  0  0  0  0  0  0  0  0
   12.1219    0.2709   24.7230 H   0  0  0  0  0  0  0  0  0  0  0  0
   10.5658    0.0543   23.9305 H   0  0  0  0  0  0  0  0  0  0  0  0
   10.0152   -6.4129   26.7423 H   0  0  0  0  0  0  0  0  0  0  0  0
   10.0969   -2.3554   23.4679 H   0  0  0  0  0  0  0  0  0  0  0  0
    8.3406   -2.3796   23.0147 H   0  0  0  0  0  0  0  0  0  0  0  0
    7.7322   -0.9607   21.6918 H   0  0  0  0  0  0  0  0  0  0  0  0
  1  2  1  0  0  0  0
  1  3  2  0  0  0  0
  2  4  2  0  0  0  0
  3  5  1  0  0  0  0
  4 10  1  0  0  0  0
  5 10  2  0  0  0  0
  6  7  1  0  0  0  0
  6 11  2  0  0  0  0
  7 23  2  0  0  0  0
  8 12  2  0  0  0  0
  8 24  1  0  0  0  0
  9 11  1  0  0  0  0
  9 12  1  0  0  0  0
  9 13  2  0  0  0  0
 10 22  1  0  0  0  0
 11 26  1  0  0  0  0
 12 25  1  0  0  0  0
 13 23  1  0  0  0  0
 13 24  1  0  0  0  0
 14 22  1  0  0  0  0
 14 25  1  0  0  0  0
 14 28  2  0  0  0  0
 15 26  1  0  0  0  0
 15 27  1  0  0  0  0
 15 29  2  0  0  0  0
 16 17  1  0  0  0  0
 16 18  1  0  0  0  0
 17 19  1  0  0  0  0
 18 20  1  0  0  0  0
 19 21  1  0  0  0  0
 20 21  1  0  0  0  0
 21 27  1  0  0  0  0
  1 30  1  0  0  0  0
  2 31  1  0  0  0  0
  3 32  1  0  0  0  0
  4 33  1  0  0  0  0
  5 34  1  0  0  0  0
  6 35  1  0  0  0  0
  7 36  1  0  0  0  0
  8 37  1  0  0  0  0
 16 38  1  0  0  0  0
 16 39  1  0  0  0  0
 17 40  1  0  0  0  0
 17 41  1  0  0  0  0
 18 42  1  0  0  0  0
 18 43  1  0  0  0  0
 19 44  1  0  0  0  0
 19 45  1  0  0  0  0
 20 46  1  0  0  0  0
 20 47  1  0  0  0  0
 21 48  1  0  0  0  0
 22 49  1  0  0  0  0
 22 50  1  0  0  0  0
 24 51  1  0  0  0  0
 25 52  1  0  0  0  0
 26 53  1  0  0  0  0
 27 54  1  0  0  0  0
M  END
> <Chemgauss4 Score>
-7.42735242843628

> <Number of Confs>
144

$$$$
CHR-SOS-6c4-4
  -OEChem-03242005443D

 44 46  0     0  0  0  0  0  0999 V2000
   10.1647   -3.3187   24.6043 C   0  0  0  0  0  0  0  0  0  0  0  0
   10.7935   -2.6392   23.8391 C   0  0  0  0  0  0  0  0  0  0  0  0
    8.3182   -6.1461   26.1288 C   0  0  0  0  0  0  0  0  0  0  0  0
    7.9924   -5.5635   27.3485 C   0  0  0  0  0  0  0  0  0  0  0  0
    9.0442   -5.4212   25.1902 C   0  0  0  0  0  0  0  0  0  0  0  0
    6.0863    0.7303   18.6790 C   0  0  0  0  0  0  0  0  0  0  0  0
    8.4128   -4.2635   27.5791 C   0  0  0  0  0  0  0  0  0  0  0  0
    5.3819    1.2687   19.7438 C   0  0  0  0  0  0  0  0  0  0  0  0
    6.9639    0.5738   21.2578 C   0  0  0  0  0  0  0  0  0  0  0  0
    9.4173   -4.1275   25.5174 C   0  0  0  0  0  0  0  0  0  0  0  0
    7.2882    0.0868   18.9526 C   0  0  0  0  0  0  0  0  0  0  0  0
    7.7424    0.0026   20.2641 C   0  0  0  0  0  0  0  0  0  0  0  0
    9.5304   -0.7982   21.8586 C   0  0  0  0  0  0  0  0  0  0  0  0
   13.2632   -0.0937   22.7081 C   0  0  0  0  0  0  0  0  0  0  0  0
   13.7658   -1.3533   22.0032 C   0  0  0  0  0  0  0  0  0  0  0  0
   12.0838   -0.5338   23.5737 C   0  0  0  0  0  0  0  0  0  0  0  0
   12.8631   -2.4925   22.4740 C   0  0  0  0  0  0  0  0  0  0  0  0
   11.5625   -1.8088   22.9049 C   0  0  0  0  0  0  0  0  0  0  0  0
    8.0679   -0.5032   17.8237 C   0  0  0  0  0  0  0  0  0  0  0  0
    5.7912    1.2068   21.0307 N   0  0  0  0  0  0  0  0  0  0  0  0
    9.1194   -3.5279   26.6919 N   0  0  0  0  0  0  0  0  0  0  0  0
    8.9582   -0.6410   20.5931 N   0  0  0  0  0  0  0  0  0  0  0  0
   10.7380   -1.4935   21.7585 N   0  0  0  0  0  0  0  0  0  0  0  0
    9.0700   -0.3986   22.9254 O   0  0  0  0  0  0  0  0  0  0  0  0
    8.0066   -7.1630   25.9099 H   0  0  0  0  0  0  0  0  0  0  0  0
    7.4273   -6.1097   28.0950 H   0  0  0  0  0  0  0  0  0  0  0  0
    9.3028   -5.8674   24.2353 H   0  0  0  0  0  0  0  0  0  0  0  0
    5.7041    0.8129   17.6673 H   0  0  0  0  0  0  0  0  0  0  0  0
    8.1841   -3.7638   28.5147 H   0  0  0  0  0  0  0  0  0  0  0  0
    4.4387    1.7806   19.5836 H   0  0  0  0  0  0  0  0  0  0  0  0
    7.2654    0.5411   22.3007 H   0  0  0  0  0  0  0  0  0  0  0  0
   14.0465    0.3741   23.3132 H   0  0  0  0  0  0  0  0  0  0  0  0
   12.9385    0.6442   21.9654 H   0  0  0  0  0  0  0  0  0  0  0  0
   13.6911   -1.2281   20.9169 H   0  0  0  0  0  0  0  0  0  0  0  0
   14.8158   -1.5575   22.2363 H   0  0  0  0  0  0  0  0  0  0  0  0
   12.4425   -0.7455   24.5902 H   0  0  0  0  0  0  0  0  0  0  0  0
   11.3231    0.2500   23.6635 H   0  0  0  0  0  0  0  0  0  0  0  0
   12.7161   -3.2501   21.6959 H   0  0  0  0  0  0  0  0  0  0  0  0
   13.3379   -2.9999   23.3248 H   0  0  0  0  0  0  0  0  0  0  0  0
    8.7690    0.2359   17.4191 H   0  0  0  0  0  0  0  0  0  0  0  0
    8.6368   -1.3819   18.1516 H   0  0  0  0  0  0  0  0  0  0  0  0
    7.4049   -0.8356   17.0153 H   0  0  0  0  0  0  0  0  0  0  0  0
    9.4745   -1.0360   19.8111 H   0  0  0  0  0  0  0  0  0  0  0  0
   11.0508   -1.7905   20.8411 H   0  0  0  0  0  0  0  0  0  0  0  0
  1  2  3  0  0  0  0
  1 10  1  0  0  0  0
  2 18  1  0  0  0  0
  3  4  1  0  0  0  0
  3  5  2  0  0  0  0
  4  7  2  0  0  0  0
  5 10  1  0  0  0  0
  6  8  2  0  0  0  0
  6 11  1  0  0  0  0
  7 21  1  0  0  0  0
  8 20  1  0  0  0  0
  9 12  1  0  0  0  0
  9 20  2  0  0  0  0
 10 21  2  0  0  0  0
 11 12  2  0  0  0  0
 11 19  1  0  0  0  0
 12 22  1  0  0  0  0
 13 22  1  0  0  0  0
 13 23  1  0  0  0  0
 13 24  2  0  0  0  0
 14 15  1  0  0  0  0
 14 16  1  0  0  0  0
 15 17  1  0  0  0  0
 16 18  1  0  0  0  0
 17 18  1  0  0  0  0
 18 23  1  0  0  0  0
  3 25  1  0  0  0  0
  4 26  1  0  0  0  0
  5 27  1  0  0  0  0
  6 28  1  0  0  0  0
  7 29  1  0  0  0  0
  8 30  1  0  0  0  0
  9 31  1  0  0  0  0
 14 32  1  0  0  0  0
 14 33  1  0  0  0  0
 15 34  1  0  0  0  0
 15 35  1  0  0  0  0
 16 36  1  0  0  0  0
 16 37  1  0  0  0  0
 17 38  1  0  0  0  0
 17 39  1  0  0  0  0
 19 40  1  0  0  0  0
 19 41  1  0  0  0  0
 19 42  1  0  0  0  0
 22 43  1  0  0  0  0
 23 44  1  0  0  0  0
M  END
> <Chemgauss4 Score>
-7.40942811965942

> <Number of Confs>
7

$$$$
AGN-NEW-891-7
  -OEChem-03242005443D

 38 40  0     0  0  0  0  0  0999 V2000
   12.0484   -2.3165   23.2030 C   0  0  0  0  0  0  0  0  0  0  0  0
    5.0859   -0.2600   19.4528 C   0  0  0  0  0  0  0  0  0  0  0  0
   11.1686   -3.0068   24.0366 C   0  0  0  0  0  0  0  0  0  0  0  0
    9.5878   -4.0818   26.2234 C   0  0  0  0  0  0  0  0  0  0  0  0
    5.9217   -0.0101   20.5355 C   0  0  0  0  0  0  0  0  0  0  0  0
    8.7129   -4.7747   27.0601 C   0  0  0  0  0  0  0  0  0  0  0  0
   11.7698   -1.0014   22.8309 C   0  0  0  0  0  0  0  0  0  0  0  0
    9.7312   -1.0669   24.1259 C   0  0  0  0  0  0  0  0  0  0  0  0
    6.8594   -3.5016   26.1763 C   0  0  0  0  0  0  0  0  0  0  0  0
    5.6654   -0.3781   18.1998 C   0  0  0  0  0  0  0  0  0  0  0  0
    7.7730   -0.0228   19.0426 C   0  0  0  0  0  0  0  0  0  0  0  0
   10.0100   -2.3820   24.4980 C   0  0  0  0  0  0  0  0  0  0  0  0
    9.0985   -3.0987   25.3633 C   0  0  0  0  0  0  0  0  0  0  0  0
    7.2922    0.1122   20.3350 C   0  0  0  0  0  0  0  0  0  0  0  0
    7.3488   -4.4847   27.0365 C   0  0  0  0  0  0  0  0  0  0  0  0
    7.7344   -2.8086   25.3397 C   0  0  0  0  0  0  0  0  0  0  0  0
   10.6112   -0.3766   23.2923 C   0  0  0  0  0  0  0  0  0  0  0  0
    8.2041    0.3773   21.4613 C   0  0  0  0  0  0  0  0  0  0  0  0
    9.3474    1.0679   21.3714 C   0  0  0  0  0  0  0  0  0  0  0  0
    6.9922   -0.2655   17.9660 N   0  0  0  0  0  0  0  0  0  0  0  0
    9.3987    1.8643   23.8397 O   0  0  0  0  0  0  0  0  0  0  0  0
   11.5304    1.9185   22.5084 O   0  0  0  0  0  0  0  0  0  0  0  0
    6.5089   -5.1513   27.8391 F   0  0  0  0  0  0  0  0  0  0  0  0
    7.2485   -1.8657   24.5189 F   0  0  0  0  0  0  0  0  0  0  0  0
   10.2643    1.2705   22.8279 S   0  0  0  0  0  0  0  0  0  0  0  0
   12.9508   -2.8028   22.8439 H   0  0  0  0  0  0  0  0  0  0  0  0
    4.0147   -0.3593   19.5855 H   0  0  0  0  0  0  0  0  0  0  0  0
   11.3997   -4.0316   24.3174 H   0  0  0  0  0  0  0  0  0  0  0  0
   10.6487   -4.3189   26.2542 H   0  0  0  0  0  0  0  0  0  0  0  0
    5.4911    0.0869   21.5290 H   0  0  0  0  0  0  0  0  0  0  0  0
    9.0935   -5.5392   27.7310 H   0  0  0  0  0  0  0  0  0  0  0  0
   12.4617   -0.4727   22.1811 H   0  0  0  0  0  0  0  0  0  0  0  0
    8.8287   -0.5749   24.4825 H   0  0  0  0  0  0  0  0  0  0  0  0
    5.7975   -3.2761   26.1579 H   0  0  0  0  0  0  0  0  0  0  0  0
    5.0563   -0.5720   17.3232 H   0  0  0  0  0  0  0  0  0  0  0  0
    8.8327    0.0617   18.8191 H   0  0  0  0  0  0  0  0  0  0  0  0
    7.8845   -0.0173   22.4238 H   0  0  0  0  0  0  0  0  0  0  0  0
    9.7191    1.5074   20.4548 H   0  0  0  0  0  0  0  0  0  0  0  0
  1  3  1  0  0  0  0
  1  7  2  0  0  0  0
  2  5  2  0  0  0  0
  2 10  1  0  0  0  0
  3 12  2  0  0  0  0
  4  6  2  0  0  0  0
  4 13  1  0  0  0  0
  5 14  1  0  0  0  0
  6 15  1  0  0  0  0
  7 17  1  0  0  0  0
  8 12  1  0  0  0  0
  8 17  2  0  0  0  0
  9 15  2  0  0  0  0
  9 16  1  0  0  0  0
 10 20  2  0  0  0  0
 11 14  2  0  0  0  0
 11 20  1  0  0  0  0
 12 13  1  0  0  0  0
 13 16  2  0  0  0  0
 14 18  1  0  0  0  0
 15 23  1  0  0  0  0
 16 24  1  0  0  0  0
 17 25  1  0  0  0  0
 18 19  2  0  0  0  0
 19 25  1  0  0  0  0
 21 25  2  0  0  0  0
 22 25  2  0  0  0  0
  1 26  1  0  0  0  0
  2 27  1  0  0  0  0
  3 28  1  0  0  0  0
  4 29  1  0  0  0  0
  5 30  1  0  0  0  0
  6 31  1  0  0  0  0
  7 32  1  0  0  0  0
  8 33  1  0  0  0  0
  9 34  1  0  0  0  0
 10 35  1  0  0  0  0
 11 36  1  0  0  0  0
 18 37  1  0  0  0  0
 19 38  1  0  0  0  0
M  END
> <Chemgauss4 Score>
-7.39884519577026

> <Number of Confs>
200

$$$$
CHR-SOS-6c4-6
  -OEChem-03242005443D

 43 45  0     0  0  0  0  0  0999 V2000
   10.5606   -3.1540   24.8669 C   0  0  0  0  0  0  0  0  0  0  0  0
   11.1449   -2.4821   24.0607 C   0  0  0  0  0  0  0  0  0  0  0  0
    6.2554    0.1597   18.6523 C   0  0  0  0  0  0  0  0  0  0  0  0
    5.5000    0.7138   19.6732 C   0  0  0  0  0  0  0  0  0  0  0  0
    9.6503   -3.5251   27.1225 C   0  0  0  0  0  0  0  0  0  0  0  0
    9.3694   -5.2042   25.5231 C   0  0  0  0  0  0  0  0  0  0  0  0
    7.1128    0.2463   21.2412 C   0  0  0  0  0  0  0  0  0  0  0  0
    8.5639   -5.4552   27.6339 C   0  0  0  0  0  0  0  0  0  0  0  0
    9.8663   -3.9536   25.8287 C   0  0  0  0  0  0  0  0  0  0  0  0
    7.4993   -0.3701   18.9769 C   0  0  0  0  0  0  0  0  0  0  0  0
    7.9436   -0.3300   20.2938 C   0  0  0  0  0  0  0  0  0  0  0  0
    9.7687   -0.8818   21.9507 C   0  0  0  0  0  0  0  0  0  0  0  0
   13.4275    0.1617   22.7730 C   0  0  0  0  0  0  0  0  0  0  0  0
   14.0321   -1.1008   22.1594 C   0  0  0  0  0  0  0  0  0  0  0  0
   12.2750   -0.3073   23.6594 C   0  0  0  0  0  0  0  0  0  0  0  0
   13.2129   -2.2709   22.7016 C   0  0  0  0  0  0  0  0  0  0  0  0
   11.8594   -1.6609   23.0765 C   0  0  0  0  0  0  0  0  0  0  0  0
    8.3343   -0.9743   17.8960 C   0  0  0  0  0  0  0  0  0  0  0  0
    5.8981    0.7710   20.9639 N   0  0  0  0  0  0  0  0  0  0  0  0
    9.0006   -4.2528   28.0545 N   0  0  0  0  0  0  0  0  0  0  0  0
    8.7110   -5.9851   26.4046 N   0  0  0  0  0  0  0  0  0  0  0  0
    9.2008   -0.8550   20.6739 N   0  0  0  0  0  0  0  0  0  0  0  0
   11.0266   -1.4880   21.9061 N   0  0  0  0  0  0  0  0  0  0  0  0
    9.2673   -0.4469   22.9847 O   0  0  0  0  0  0  0  0  0  0  0  0
    5.8796    0.1439   17.6349 H   0  0  0  0  0  0  0  0  0  0  0  0
    4.5227    1.1402   19.4724 H   0  0  0  0  0  0  0  0  0  0  0  0
    9.9978   -2.5555   27.4675 H   0  0  0  0  0  0  0  0  0  0  0  0
    9.4849   -5.6372   24.5338 H   0  0  0  0  0  0  0  0  0  0  0  0
    7.4039    0.3077   22.2857 H   0  0  0  0  0  0  0  0  0  0  0  0
    8.0381   -6.0609   28.3618 H   0  0  0  0  0  0  0  0  0  0  0  0
   14.1662    0.7280   23.3494 H   0  0  0  0  0  0  0  0  0  0  0  0
   13.0564    0.8205   21.9794 H   0  0  0  0  0  0  0  0  0  0  0  0
   13.9605   -1.0559   21.0666 H   0  0  0  0  0  0  0  0  0  0  0  0
   15.0918   -1.2079   22.4125 H   0  0  0  0  0  0  0  0  0  0  0  0
   12.6370   -0.4214   24.6902 H   0  0  0  0  0  0  0  0  0  0  0  0
   11.4562    0.4205   23.6905 H   0  0  0  0  0  0  0  0  0  0  0  0
   13.1326   -3.0887   21.9765 H   0  0  0  0  0  0  0  0  0  0  0  0
   13.7150   -2.6817   23.5882 H   0  0  0  0  0  0  0  0  0  0  0  0
    8.9820   -0.2130   17.4461 H   0  0  0  0  0  0  0  0  0  0  0  0
    8.9643   -1.7827   18.2870 H   0  0  0  0  0  0  0  0  0  0  0  0
    7.7077   -1.4104   17.1082 H   0  0  0  0  0  0  0  0  0  0  0  0
    9.7544   -1.2617   19.9240 H   0  0  0  0  0  0  0  0  0  0  0  0
   11.3715   -1.8220   21.0132 H   0  0  0  0  0  0  0  0  0  0  0  0
  1  2  3  0  0  0  0
  1  9  1  0  0  0  0
  2 17  1  0  0  0  0
  3  4  2  0  0  0  0
  3 10  1  0  0  0  0
  4 19  1  0  0  0  0
  5  9  1  0  0  0  0
  5 20  2  0  0  0  0
  6  9  2  0  0  0  0
  6 21  1  0  0  0  0
  7 11  1  0  0  0  0
  7 19  2  0  0  0  0
  8 20  1  0  0  0  0
  8 21  2  0  0  0  0
 10 11  2  0  0  0  0
 10 18  1  0  0  0  0
 11 22  1  0  0  0  0
 12 22  1  0  0  0  0
 12 23  1  0  0  0  0
 12 24  2  0  0  0  0
 13 14  1  0  0  0  0
 13 15  1  0  0  0  0
 14 16  1  0  0  0  0
 15 17  1  0  0  0  0
 16 17  1  0  0  0  0
 17 23  1  0  0  0  0
  3 25  1  0  0  0  0
  4 26  1  0  0  0  0
  5 27  1  0  0  0  0
  6 28  1  0  0  0  0
  7 29  1  0  0  0  0
  8 30  1  0  0  0  0
 13 31  1  0  0  0  0
 13 32  1  0  0  0  0
 14 33  1  0  0  0  0
 14 34  1  0  0  0  0
 15 35  1  0  0  0  0
 15 36  1  0  0  0  0
 16 37  1  0  0  0  0
 16 38  1  0  0  0  0
 18 39  1  0  0  0  0
 18 40  1  0  0  0  0
 18 41  1  0  0  0  0
 22 42  1  0  0  0  0
 23 43  1  0  0  0  0
M  END
> <Chemgauss4 Score>
-7.37414741516113

> <Number of Confs>
5

$$$$
JOR-UNI-2fc-2
  -OEChem-03242005443D

 38 39  0     0  0  0  0  0  0999 V2000
    5.3641   -4.4748   22.6072 C   0  0  0  0  0  0  0  0  0  0  0  0
   13.3443   -0.3428   22.6418 C   0  0  0  0  0  0  0  0  0  0  0  0
    6.6860   -4.0630   22.7762 C   0  0  0  0  0  0  0  0  0  0  0  0
   12.5210   -1.4558   22.5122 C   0  0  0  0  0  0  0  0  0  0  0  0
    4.7975   -5.3847   23.4999 C   0  0  0  0  0  0  0  0  0  0  0  0
    6.8747   -5.4709   24.7305 C   0  0  0  0  0  0  0  0  0  0  0  0
   13.0443    0.5735   23.6368 C   0  0  0  0  0  0  0  0  0  0  0  0
   11.2236   -0.6429   24.3321 C   0  0  0  0  0  0  0  0  0  0  0  0
    7.4413   -4.5610   23.8378 C   0  0  0  0  0  0  0  0  0  0  0  0
   11.4381   -1.6161   23.3695 C   0  0  0  0  0  0  0  0  0  0  0  0
    5.5528   -5.8827   24.5615 C   0  0  0  0  0  0  0  0  0  0  0  0
    9.1277   -4.1418   26.9684 C   0  0  0  0  0  0  0  0  0  0  0  0
    9.2191   -2.8075   23.5777 C   0  0  0  0  0  0  0  0  0  0  0  0
   10.2618   -4.4079   25.9954 C   0  0  0  0  0  0  0  0  0  0  0  0
    9.7467   -5.0053   24.6927 C   0  0  0  0  0  0  0  0  0  0  0  0
   12.0014    0.4517   24.4884 N   0  0  0  0  0  0  0  0  0  0  0  0
    8.5828   -2.9642   26.9611 N   0  0  0  0  0  0  0  0  0  0  0  0
    8.7399   -5.1701   27.7867 N   0  0  0  0  0  0  0  0  0  0  0  0
   10.5818   -2.7387   23.2619 N   0  0  0  0  0  0  0  0  0  0  0  0
    8.8310   -4.1281   24.0137 N   0  0  0  0  0  0  0  0  0  0  0  0
    8.4467   -1.8516   23.4918 O   0  0  0  0  0  0  0  0  0  0  0  0
    4.8538   -7.0052   25.6630 Cl  0  0  0  0  0  0  0  0  0  0  0  0
    4.7760   -4.0870   21.7804 H   0  0  0  0  0  0  0  0  0  0  0  0
   14.1941   -0.1974   21.9846 H   0  0  0  0  0  0  0  0  0  0  0  0
    7.1169   -3.3535   22.0740 H   0  0  0  0  0  0  0  0  0  0  0  0
   12.7321   -2.1913   21.7405 H   0  0  0  0  0  0  0  0  0  0  0  0
    3.7662   -5.6960   23.3555 H   0  0  0  0  0  0  0  0  0  0  0  0
    7.4666   -5.8570   25.5576 H   0  0  0  0  0  0  0  0  0  0  0  0
   13.6554    1.4588   23.7785 H   0  0  0  0  0  0  0  0  0  0  0  0
   10.3948   -0.7126   25.0304 H   0  0  0  0  0  0  0  0  0  0  0  0
   10.8024   -3.4727   25.8075 H   0  0  0  0  0  0  0  0  0  0  0  0
   10.9618   -5.1068   26.4676 H   0  0  0  0  0  0  0  0  0  0  0  0
   10.5793   -5.1889   24.0067 H   0  0  0  0  0  0  0  0  0  0  0  0
    9.2253   -5.9520   24.8650 H   0  0  0  0  0  0  0  0  0  0  0  0
    7.8352   -2.9428   27.6634 H   0  0  0  0  0  0  0  0  0  0  0  0
    9.1965   -6.0748   27.7449 H   0  0  0  0  0  0  0  0  0  0  0  0
    7.9910   -5.0624   28.4627 H   0  0  0  0  0  0  0  0  0  0  0  0
   11.0056   -3.5946   22.9149 H   0  0  0  0  0  0  0  0  0  0  0  0
  1  3  2  0  0  0  0
  1  5  1  0  0  0  0
  2  4  2  0  0  0  0
  2  7  1  0  0  0  0
  3  9  1  0  0  0  0
  4 10  1  0  0  0  0
  5 11  2  0  0  0  0
  6  9  2  0  0  0  0
  6 11  1  0  0  0  0
  7 16  2  0  0  0  0
  8 10  2  0  0  0  0
  8 16  1  0  0  0  0
  9 20  1  0  0  0  0
 10 19  1  0  0  0  0
 11 22  1  0  0  0  0
 12 14  1  0  0  0  0
 12 17  2  0  0  0  0
 12 18  1  0  0  0  0
 13 19  1  0  0  0  0
 13 20  1  0  0  0  0
 13 21  2  0  0  0  0
 14 15  1  0  0  0  0
 15 20  1  0  0  0  0
  1 23  1  0  0  0  0
  2 24  1  0  0  0  0
  3 25  1  0  0  0  0
  4 26  1  0  0  0  0
  5 27  1  0  0  0  0
  6 28  1  0  0  0  0
  7 29  1  0  0  0  0
  8 30  1  0  0  0  0
 14 31  1  0  0  0  0
 14 32  1  0  0  0  0
 15 33  1  0  0  0  0
 15 34  1  0  0  0  0
 17 35  1  0  0  0  0
 18 36  1  0  0  0  0
 18 37  1  0  0  0  0
 19 38  1  0  0  0  0
M  END
> <Chemgauss4 Score>
-7.37377023696899

> <Number of Confs>
200

$$$$
JOR-UNI-2fc-2
  -OEChem-03242005443D

 38 39  0     0  0  0  0  0  0999 V2000
    5.3641   -4.4748   22.6072 C   0  0  0  0  0  0  0  0  0  0  0  0
   13.3443   -0.3428   22.6418 C   0  0  0  0  0  0  0  0  0  0  0  0
    6.6860   -4.0630   22.7762 C   0  0  0  0  0  0  0  0  0  0  0  0
   12.5210   -1.4558   22.5122 C   0  0  0  0  0  0  0  0  0  0  0  0
    4.7975   -5.3847   23.4999 C   0  0  0  0  0  0  0  0  0  0  0  0
    6.8747   -5.4709   24.7305 C   0  0  0  0  0  0  0  0  0  0  0  0
   13.0443    0.5735   23.6368 C   0  0  0  0  0  0  0  0  0  0  0  0
   11.2236   -0.6429   24.3321 C   0  0  0  0  0  0  0  0  0  0  0  0
    7.4413   -4.5610   23.8378 C   0  0  0  0  0  0  0  0  0  0  0  0
   11.4381   -1.6161   23.3695 C   0  0  0  0  0  0  0  0  0  0  0  0
    5.5528   -5.8827   24.5615 C   0  0  0  0  0  0  0  0  0  0  0  0
    9.1277   -4.1418   26.9684 C   0  0  0  0  0  0  0  0  0  0  0  0
    9.2191   -2.8075   23.5777 C   0  0  0  0  0  0  0  0  0  0  0  0
   10.2618   -4.4079   25.9954 C   0  0  0  0  0  0  0  0  0  0  0  0
    9.7467   -5.0053   24.6927 C   0  0  0  0  0  0  0  0  0  0  0  0
   12.0014    0.4517   24.4884 N   0  0  0  0  0  0  0  0  0  0  0  0
    8.5828   -2.9642   26.9611 N   0  0  0  0  0  0  0  0  0  0  0  0
    8.7399   -5.1701   27.7867 N   0  0  0  0  0  0  0  0  0  0  0  0
   10.5818   -2.7387   23.2619 N   0  0  0  0  0  0  0  0  0  0  0  0
    8.8310   -4.1281   24.0137 N   0  0  0  0  0  0  0  0  0  0  0  0
    8.4467   -1.8516   23.4918 O   0  0  0  0  0  0  0  0  0  0  0  0
    4.8538   -7.0052   25.6630 Cl  0  0  0  0  0  0  0  0  0  0  0  0
    4.7760   -4.0870   21.7804 H   0  0  0  0  0  0  0  0  0  0  0  0
   14.1941   -0.1974   21.9846 H   0  0  0  0  0  0  0  0  0  0  0  0
    7.1169   -3.3535   22.0740 H   0  0  0  0  0  0  0  0  0  0  0  0
   12.7321   -2.1913   21.7405 H   0  0  0  0  0  0  0  0  0  0  0  0
    3.7662   -5.6960   23.3555 H   0  0  0  0  0  0  0  0  0  0  0  0
    7.4666   -5.8570   25.5576 H   0  0  0  0  0  0  0  0  0  0  0  0
   13.6554    1.4588   23.7785 H   0  0  0  0  0  0  0  0  0  0  0  0
   10.3948   -0.7126   25.0304 H   0  0  0  0  0  0  0  0  0  0  0  0
   10.8024   -3.4727   25.8075 H   0  0  0  0  0  0  0  0  0  0  0  0
   10.9618   -5.1068   26.4676 H   0  0  0  0  0  0  0  0  0  0  0  0
   10.5793   -5.1889   24.0067 H   0  0  0  0  0  0  0  0  0  0  0  0
    9.2253   -5.9520   24.8650 H   0  0  0  0  0  0  0  0  0  0  0  0
    9.0497   -2.3895   26.2510 H   0  0  0  0  0  0  0  0  0  0  0  0
    9.1965   -6.0748   27.7449 H   0  0  0  0  0  0  0  0  0  0  0  0
    7.9910   -5.0624   28.4627 H   0  0  0  0  0  0  0  0  0  0  0  0
   11.0056   -3.5946   22.9149 H   0  0  0  0  0  0  0  0  0  0  0  0
  1  3  2  0  0  0  0
  1  5  1  0  0  0  0
  2  4  2  0  0  0  0
  2  7  1  0  0  0  0
  3  9  1  0  0  0  0
  4 10  1  0  0  0  0
  5 11  2  0  0  0  0
  6  9  2  0  0  0  0
  6 11  1  0  0  0  0
  7 16  2  0  0  0  0
  8 10  2  0  0  0  0
  8 16  1  0  0  0  0
  9 20  1  0  0  0  0
 10 19  1  0  0  0  0
 11 22  1  0  0  0  0
 12 14  1  0  0  0  0
 12 17  2  0  0  0  0
 12 18  1  0  0  0  0
 13 19  1  0  0  0  0
 13 20  1  0  0  0  0
 13 21  2  0  0  0  0
 14 15  1  0  0  0  0
 15 20  1  0  0  0  0
  1 23  1  0  0  0  0
  2 24  1  0  0  0  0
  3 25  1  0  0  0  0
  4 26  1  0  0  0  0
  5 27  1  0  0  0  0
  6 28  1  0  0  0  0
  7 29  1  0  0  0  0
  8 30  1  0  0  0  0
 14 31  1  0  0  0  0
 14 32  1  0  0  0  0
 15 33  1  0  0  0  0
 15 34  1  0  0  0  0
 17 35  1  0  0  0  0
 18 36  1  0  0  0  0
 18 37  1  0  0  0  0
 19 38  1  0  0  0  0
M  END
> <Chemgauss4 Score>
-7.37377023696899

> <Number of Confs>
200

$$$$
SAL-INS-1c7-10
  -OEChem-03242005443D

 40 42  0     1  0  0  0  0  0999 V2000
    8.1515   -2.7950   23.2814 C   0  0  0  0  0  0  0  0  0  0  0  0
    7.6931   -3.8818   22.5368 C   0  0  0  0  0  0  0  0  0  0  0  0
    8.6707   -5.3963   24.1455 C   0  0  0  0  0  0  0  0  0  0  0  0
    8.8104   -3.7192   28.3513 C   0  0  0  0  0  0  0  0  0  0  0  0
    7.6939   -5.5710   28.7764 C   0  0  0  0  0  0  0  0  0  0  0  0
    9.1292   -4.3095   24.8900 C   0  0  0  0  0  0  0  0  0  0  0  0
    8.8697   -3.0089   24.4580 C   0  0  0  0  0  0  0  0  0  0  0  0
    7.9526   -5.1824   22.9689 C   0  0  0  0  0  0  0  0  0  0  0  0
    9.0272   -4.6707   27.3828 C   0  0  0  0  0  0  0  0  0  0  0  0
   11.4328   -2.0926   23.9746 C   0  0  0  0  0  0  0  0  0  0  0  0
   11.6793   -1.4639   22.8209 C   0  0  0  0  0  0  0  0  0  0  0  0
    8.4492   -1.3608   26.2187 C   0  0  0  0  0  0  0  0  0  0  0  0
   10.6487    0.1292   24.5908 C   0  0  0  0  0  0  0  0  0  0  0  0
   10.6853   -1.3367   25.0375 C   0  0  1  0  0  0  0  0  0  0  0  0
    9.8955   -4.5687   26.1464 C   0  0  0  0  0  0  0  0  0  0  0  0
    7.0765   -2.0099   26.2178 C   0  0  0  0  0  0  0  0  0  0  0  0
    8.3291   -5.8210   27.6530 N   0  0  0  0  0  0  0  0  0  0  0  0
    7.9540   -4.3103   29.2370 N   0  0  0  0  0  0  0  0  0  0  0  0
    9.3362   -1.8677   25.2163 N   0  0  0  0  0  0  0  0  0  0  0  0
    8.7054   -0.4553   27.0163 O   0  0  0  0  0  0  0  0  0  0  0  0
   12.0496    1.1053   22.5772 O   0  0  0  0  0  0  0  0  0  0  0  0
    9.7576    0.1369   22.1081 O   0  0  0  0  0  0  0  0  0  0  0  0
    7.5118   -6.2259   22.2541 F   0  0  0  0  0  0  0  0  0  0  0  0
   11.0111    0.1288   22.8354 S   0  0  0  0  0  0  0  0  0  0  0  0
    5.9860   -1.1290   25.1268 Cl  0  0  0  0  0  0  0  0  0  0  0  0
    7.9433   -1.7859   22.9344 H   0  0  0  0  0  0  0  0  0  0  0  0
    7.1341   -3.7156   21.6207 H   0  0  0  0  0  0  0  0  0  0  0  0
    8.8660   -6.4138   24.4737 H   0  0  0  0  0  0  0  0  0  0  0  0
    9.1722   -2.7104   28.4893 H   0  0  0  0  0  0  0  0  0  0  0  0
    7.0385   -6.2509   29.3023 H   0  0  0  0  0  0  0  0  0  0  0  0
   11.7635   -3.1102   24.1472 H   0  0  0  0  0  0  0  0  0  0  0  0
   12.2058   -1.8816   21.9752 H   0  0  0  0  0  0  0  0  0  0  0  0
    9.6929    0.6283   24.7706 H   0  0  0  0  0  0  0  0  0  0  0  0
   11.4457    0.6951   25.0854 H   0  0  0  0  0  0  0  0  0  0  0  0
   11.1854   -1.4131   26.0202 H   0  0  0  0  0  0  0  0  0  0  0  0
   10.4914   -5.4921   26.0489 H   0  0  0  0  0  0  0  0  0  0  0  0
   10.6529   -3.7820   26.3037 H   0  0  0  0  0  0  0  0  0  0  0  0
    7.1531   -3.0410   25.8639 H   0  0  0  0  0  0  0  0  0  0  0  0
    6.6224   -1.9739   27.2109 H   0  0  0  0  0  0  0  0  0  0  0  0
    7.5815   -3.8924   30.0791 H   0  0  0  0  0  0  0  0  0  0  0  0
  1  2  2  0  0  0  0
  1  7  1  0  0  0  0
  2  8  1  0  0  0  0
  3  6  1  0  0  0  0
  3  8  2  0  0  0  0
  4  9  2  0  0  0  0
  4 18  1  0  0  0  0
  5 17  2  0  0  0  0
  5 18  1  0  0  0  0
  6  7  2  0  0  0  0
  6 15  1  0  0  0  0
  7 19  1  0  0  0  0
  8 23  1  0  0  0  0
  9 15  1  0  0  0  0
  9 17  1  0  0  0  0
 10 11  2  0  0  0  0
 10 14  1  0  0  0  0
 11 24  1  0  0  0  0
 12 16  1  0  0  0  0
 12 19  1  0  0  0  0
 12 20  2  0  0  0  0
 13 14  1  0  0  0  0
 13 24  1  0  0  0  0
 14 19  1  6  0  0  0
 16 25  1  0  0  0  0
 21 24  2  0  0  0  0
 22 24  2  0  0  0  0
  1 26  1  0  0  0  0
  2 27  1  0  0  0  0
  3 28  1  0  0  0  0
  4 29  1  0  0  0  0
  5 30  1  0  0  0  0
 10 31  1  0  0  0  0
 11 32  1  0  0  0  0
 13 33  1  0  0  0  0
 13 34  1  0  0  0  0
 14 35  1  0  0  0  0
 15 36  1  0  0  0  0
 15 37  1  0  0  0  0
 16 38  1  0  0  0  0
 16 39  1  0  0  0  0
 18 40  1  0  0  0  0
M  END
> <Chemgauss4 Score>
-7.37181186676025

> <Number of Confs>
200

$$$$
BAR-COM-21d-4
  -OEChem-03242005443D

 44 46  0     0  0  0  0  0  0999 V2000
   11.8438   -2.7691   23.5876 C   0  0  0  0  0  0  0  0  0  0  0  0
    5.3165    2.0344   18.9882 C   0  0  0  0  0  0  0  0  0  0  0  0
   11.5754   -3.3421   24.8307 C   0  0  0  0  0  0  0  0  0  0  0  0
   10.8918   -1.9542   22.9750 C   0  0  0  0  0  0  0  0  0  0  0  0
    5.8297    1.5877   20.2008 C   0  0  0  0  0  0  0  0  0  0  0  0
    9.4027   -2.2856   24.8485 C   0  0  0  0  0  0  0  0  0  0  0  0
    5.8916    1.5521   17.8235 C   0  0  0  0  0  0  0  0  0  0  0  0
    7.3920    0.2631   18.9922 C   0  0  0  0  0  0  0  0  0  0  0  0
   10.3548   -3.1004   25.4611 C   0  0  0  0  0  0  0  0  0  0  0  0
    9.6712   -1.7125   23.6055 C   0  0  0  0  0  0  0  0  0  0  0  0
    6.8873    0.6852   20.2116 C   0  0  0  0  0  0  0  0  0  0  0  0
    8.4900   -0.6910   21.6104 C   0  0  0  0  0  0  0  0  0  0  0  0
    8.0436   -4.9592   24.4763 C   0  0  0  0  0  0  0  0  0  0  0  0
    7.5976   -6.2057   25.1859 C   0  0  0  0  0  0  0  0  0  0  0  0
    8.0603   -5.0106   25.9862 C   0  0  0  0  0  0  0  0  0  0  0  0
   10.0651   -3.7202   26.8048 C   0  0  0  0  0  0  0  0  0  0  0  0
    9.3950   -5.0964   26.6741 C   0  0  0  0  0  0  0  0  0  0  0  0
    7.0228   -4.2159   26.7304 C   0  0  0  0  0  0  0  0  0  0  0  0
    6.9198    0.6749   17.7942 N   0  0  0  0  0  0  0  0  0  0  0  0
    8.7194   -0.8968   22.9927 N   0  0  0  0  0  0  0  0  0  0  0  0
    7.4308    0.2129   21.4296 N   0  0  0  0  0  0  0  0  0  0  0  0
    9.1269   -1.2270   20.7093 O   0  0  0  0  0  0  0  0  0  0  0  0
    5.7777   -4.3083   26.0478 O   0  0  0  0  0  0  0  0  0  0  0  0
   12.7944   -2.9569   23.0969 H   0  0  0  0  0  0  0  0  0  0  0  0
    4.4924    2.7379   18.9559 H   0  0  0  0  0  0  0  0  0  0  0  0
   12.3229   -3.9759   25.2996 H   0  0  0  0  0  0  0  0  0  0  0  0
   11.1117   -1.5129   22.0062 H   0  0  0  0  0  0  0  0  0  0  0  0
    5.3983    1.9491   21.1306 H   0  0  0  0  0  0  0  0  0  0  0  0
    8.4512   -2.0992   25.3418 H   0  0  0  0  0  0  0  0  0  0  0  0
    5.5281    1.8705   16.8521 H   0  0  0  0  0  0  0  0  0  0  0  0
    8.2170   -0.4407   18.9358 H   0  0  0  0  0  0  0  0  0  0  0  0
    8.9875   -4.9933   23.9452 H   0  0  0  0  0  0  0  0  0  0  0  0
    7.2850   -4.3612   23.9854 H   0  0  0  0  0  0  0  0  0  0  0  0
    6.5403   -6.4422   25.1702 H   0  0  0  0  0  0  0  0  0  0  0  0
    8.2428   -7.0744   25.1300 H   0  0  0  0  0  0  0  0  0  0  0  0
   10.9973   -3.8194   27.3760 H   0  0  0  0  0  0  0  0  0  0  0  0
    9.4193   -3.0525   27.3898 H   0  0  0  0  0  0  0  0  0  0  0  0
   10.0609   -5.7764   26.1180 H   0  0  0  0  0  0  0  0  0  0  0  0
    9.2734   -5.5412   27.6753 H   0  0  0  0  0  0  0  0  0  0  0  0
    7.3063   -3.1573   26.7908 H   0  0  0  0  0  0  0  0  0  0  0  0
    6.8878   -4.6010   27.7493 H   0  0  0  0  0  0  0  0  0  0  0  0
    8.1041   -0.3773   23.6277 H   0  0  0  0  0  0  0  0  0  0  0  0
    6.9969    0.5773   22.2740 H   0  0  0  0  0  0  0  0  0  0  0  0
    5.1405   -3.7844   26.5588 H   0  0  0  0  0  0  0  0  0  0  0  0
  1  3  1  0  0  0  0
  1  4  2  0  0  0  0
  2  5  2  0  0  0  0
  2  7  1  0  0  0  0
  3  9  2  0  0  0  0
  4 10  1  0  0  0  0
  5 11  1  0  0  0  0
  6  9  1  0  0  0  0
  6 10  2  0  0  0  0
  7 19  2  0  0  0  0
  8 11  2  0  0  0  0
  8 19  1  0  0  0  0
  9 16  1  0  0  0  0
 10 20  1  0  0  0  0
 11 21  1  0  0  0  0
 12 20  1  0  0  0  0
 12 21  1  0  0  0  0
 12 22  2  0  0  0  0
 13 14  1  0  0  0  0
 13 15  1  0  0  0  0
 14 15  1  0  0  0  0
 15 17  1  0  0  0  0
 15 18  1  0  0  0  0
 16 17  1  0  0  0  0
 18 23  1  0  0  0  0
  1 24  1  0  0  0  0
  2 25  1  0  0  0  0
  3 26  1  0  0  0  0
  4 27  1  0  0  0  0
  5 28  1  0  0  0  0
  6 29  1  0  0  0  0
  7 30  1  0  0  0  0
  8 31  1  0  0  0  0
 13 32  1  0  0  0  0
 13 33  1  0  0  0  0
 14 34  1  0  0  0  0
 14 35  1  0  0  0  0
 16 36  1  0  0  0  0
 16 37  1  0  0  0  0
 17 38  1  0  0  0  0
 17 39  1  0  0  0  0
 18 40  1  0  0  0  0
 18 41  1  0  0  0  0
 20 42  1  0  0  0  0
 21 43  1  0  0  0  0
 23 44  1  0  0  0  0
M  END
> <Chemgauss4 Score>
-7.26143169403076

> <Number of Confs>
200

$$$$
JAV-UNI-450-1
  -OEChem-03242005443D

 48 51  0     1  0  0  0  0  0999 V2000
    6.4416   -1.9737   20.9420 C   0  0  0  0  0  0  0  0  0  0  0  0
    6.8179   -3.2993   21.1583 C   0  0  0  0  0  0  0  0  0  0  0  0
    7.0987   -0.9435   21.6146 C   0  0  0  0  0  0  0  0  0  0  0  0
   12.8625   -0.0175   23.5027 C   0  0  0  0  0  0  0  0  0  0  0  0
   12.6991   -0.9544   22.4874 C   0  0  0  0  0  0  0  0  0  0  0  0
    7.9358   -6.4174   28.0260 C   0  0  0  0  0  0  0  0  0  0  0  0
    7.8514   -3.5947   22.0473 C   0  0  0  0  0  0  0  0  0  0  0  0
    8.1322   -1.2389   22.5036 C   0  0  0  0  0  0  0  0  0  0  0  0
   11.9828   -0.0034   24.5845 C   0  0  0  0  0  0  0  0  0  0  0  0
   11.6578   -1.8786   22.5556 C   0  0  0  0  0  0  0  0  0  0  0  0
    8.6199   -5.8616   26.9507 C   0  0  0  0  0  0  0  0  0  0  0  0
    7.9284   -5.7174   29.2218 C   0  0  0  0  0  0  0  0  0  0  0  0
    9.1996   -4.0195   28.3389 C   0  0  0  0  0  0  0  0  0  0  0  0
    8.5086   -2.5645   22.7200 C   0  0  0  0  0  0  0  0  0  0  0  0
   10.9276   -0.9257   24.6633 C   0  0  0  0  0  0  0  0  0  0  0  0
   10.7677   -1.8757   23.6425 C   0  0  0  0  0  0  0  0  0  0  0  0
    9.2667   -4.6401   27.1018 C   0  0  0  0  0  0  0  0  0  0  0  0
    7.7237   -1.6550   26.5946 C   0  0  0  0  0  0  0  0  0  0  0  0
   10.0034   -0.8672   25.8511 C   0  0  0  0  0  0  0  0  0  0  0  0
    9.6392   -2.8869   23.6929 C   0  0  1  0  0  0  0  0  0  0  0  0
    9.0994   -3.1006   25.1293 C   0  0  1  0  0  0  0  0  0  0  0  0
    7.6586   -0.4171   27.4556 C   0  0  0  0  0  0  0  0  0  0  0  0
   10.0131   -4.0138   25.9601 C   0  0  0  0  0  0  0  0  0  0  0  0
    8.5449   -4.5285   29.4066 N   0  0  0  0  0  0  0  0  0  0  0  0
    8.8858   -1.8221   25.8297 N   0  0  0  0  0  0  0  0  0  0  0  0
    6.7730   -2.4409   26.5942 O   0  0  0  0  0  0  0  0  0  0  0  0
    5.6377   -1.7438   20.2487 H   0  0  0  0  0  0  0  0  0  0  0  0
    6.3071   -4.1016   20.6338 H   0  0  0  0  0  0  0  0  0  0  0  0
    6.8067    0.0887   21.4456 H   0  0  0  0  0  0  0  0  0  0  0  0
   13.6738    0.7027   23.4531 H   0  0  0  0  0  0  0  0  0  0  0  0
   13.3823   -0.9669   21.6434 H   0  0  0  0  0  0  0  0  0  0  0  0
    7.4242   -7.3684   27.9311 H   0  0  0  0  0  0  0  0  0  0  0  0
    8.1377   -4.6305   22.2098 H   0  0  0  0  0  0  0  0  0  0  0  0
    8.6385   -0.4297   23.0233 H   0  0  0  0  0  0  0  0  0  0  0  0
   12.1224    0.7355   25.3701 H   0  0  0  0  0  0  0  0  0  0  0  0
   11.5435   -2.6059   21.7554 H   0  0  0  0  0  0  0  0  0  0  0  0
    8.6437   -6.3867   25.9997 H   0  0  0  0  0  0  0  0  0  0  0  0
    7.4091   -6.1087   30.0904 H   0  0  0  0  0  0  0  0  0  0  0  0
    9.6848   -3.0647   28.5165 H   0  0  0  0  0  0  0  0  0  0  0  0
   10.5756   -1.0754   26.7633 H   0  0  0  0  0  0  0  0  0  0  0  0
    9.6031    0.1486   25.9252 H   0  0  0  0  0  0  0  0  0  0  0  0
   10.0553   -3.8746   23.3472 H   0  0  0  0  0  0  0  0  0  0  0  0
    8.1363   -3.6244   25.0615 H   0  0  0  0  0  0  0  0  0  0  0  0
    7.2087    0.3874   26.8843 H   0  0  0  0  0  0  0  0  0  0  0  0
    8.6638   -0.1424   27.7570 H   0  0  0  0  0  0  0  0  0  0  0  0
    7.0599   -0.6293   28.3349 H   0  0  0  0  0  0  0  0  0  0  0  0
   10.8565   -3.4292   26.3334 H   0  0  0  0  0  0  0  0  0  0  0  0
   10.4303   -4.7863   25.3105 H   0  0  0  0  0  0  0  0  0  0  0  0
  1  2  1  0  0  0  0
  1  3  2  0  0  0  0
  2  7  2  0  0  0  0
  3  8  1  0  0  0  0
  4  5  1  0  0  0  0
  4  9  2  0  0  0  0
  5 10  2  0  0  0  0
  6 11  2  0  0  0  0
  6 12  1  0  0  0  0
  7 14  1  0  0  0  0
  8 14  2  0  0  0  0
  9 15  1  0  0  0  0
 10 16  1  0  0  0  0
 11 17  1  0  0  0  0
 12 24  2  0  0  0  0
 13 17  2  0  0  0  0
 13 24  1  0  0  0  0
 14 20  1  0  0  0  0
 15 16  2  0  0  0  0
 15 19  1  0  0  0  0
 16 20  1  0  0  0  0
 17 23  1  0  0  0  0
 18 22  1  0  0  0  0
 18 25  1  0  0  0  0
 18 26  2  0  0  0  0
 19 25  1  0  0  0  0
 20 21  1  0  0  0  0
 21 23  1  0  0  0  0
 21 25  1  0  0  0  0
  1 27  1  0  0  0  0
  2 28  1  0  0  0  0
  3 29  1  0  0  0  0
  4 30  1  0  0  0  0
  5 31  1  0  0  0  0
  6 32  1  0  0  0  0
  7 33  1  0  0  0  0
  8 34  1  0  0  0  0
  9 35  1  0  0  0  0
 10 36  1  0  0  0  0
 11 37  1  0  0  0  0
 12 38  1  0  0  0  0
 13 39  1  0  0  0  0
 19 40  1  0  0  0  0
 19 41  1  0  0  0  0
 20 42  1  1  0  0  0
 21 43  1  6  0  0  0
 22 44  1  0  0  0  0
 22 45  1  0  0  0  0
 22 46  1  0  0  0  0
 23 47  1  0  0  0  0
 23 48  1  0  0  0  0
M  END
> <Chemgauss4 Score>
-7.24855089187622

> <Number of Confs>
14

$$$$
ANN-UNI-263-7
  -OEChem-03242005443D

 37 39  0     1  0  0  0  0  0999 V2000
   12.0184   -0.4409   23.7032 C   0  0  0  0  0  0  0  0  0  0  0  0
   12.6532   -1.9486   21.9402 C   0  0  0  0  0  0  0  0  0  0  0  0
    6.4035   -3.9309   25.9690 C   0  0  0  0  0  0  0  0  0  0  0  0
   13.3237    0.0241   23.7022 C   0  0  0  0  0  0  0  0  0  0  0  0
   13.9300   -1.4160   22.0180 C   0  0  0  0  0  0  0  0  0  0  0  0
    5.2510   -4.6780   26.0739 C   0  0  0  0  0  0  0  0  0  0  0  0
    6.4341   -5.0967   23.9585 C   0  0  0  0  0  0  0  0  0  0  0  0
    7.0889   -4.1732   24.7436 C   0  0  0  0  0  0  0  0  0  0  0  0
   11.6850   -1.4462   22.8024 C   0  0  0  0  0  0  0  0  0  0  0  0
    9.4931   -5.0967   26.0022 C   0  0  0  0  0  0  0  0  0  0  0  0
    8.8862   -3.9582   22.9986 C   0  0  0  0  0  0  0  0  0  0  0  0
   10.7805   -3.7538   24.3585 C   0  0  0  0  0  0  0  0  0  0  0  0
    8.3526   -3.5120   24.3625 C   0  0  2  0  0  0  0  0  0  0  0  0
    9.5580   -3.7769   25.2875 C   0  0  1  0  0  0  0  0  0  0  0  0
   10.2852   -1.9875   22.7613 C   0  0  0  0  0  0  0  0  0  0  0  0
   14.2915   -0.4392   22.8799 N   0  0  0  0  0  0  0  0  0  0  0  0
   10.2455   -3.4157   23.0353 N   0  0  2  0  0  0  0  0  0  0  0  0
   10.1367   -5.1016   27.2171 N   0  0  0  0  0  0  0  0  0  0  0  0
    8.8992   -6.0645   25.5332 O   0  0  0  0  0  0  0  0  0  0  0  0
    4.9991   -5.6669   24.6987 S   0  0  0  0  0  0  0  0  0  0  0  0
   11.2866   -0.0284   24.3895 H   0  0  0  0  0  0  0  0  0  0  0  0
   12.4238   -2.7323   21.2265 H   0  0  0  0  0  0  0  0  0  0  0  0
    6.7357   -3.2445   26.7377 H   0  0  0  0  0  0  0  0  0  0  0  0
   13.6349    0.8066   24.3865 H   0  0  0  0  0  0  0  0  0  0  0  0
   14.7210   -1.7737   21.3672 H   0  0  0  0  0  0  0  0  0  0  0  0
    4.5452   -4.6911   26.8924 H   0  0  0  0  0  0  0  0  0  0  0  0
    6.7268   -5.4673   22.9859 H   0  0  0  0  0  0  0  0  0  0  0  0
    8.8788   -5.0522   22.9006 H   0  0  0  0  0  0  0  0  0  0  0  0
    8.2997   -3.5297   22.1786 H   0  0  0  0  0  0  0  0  0  0  0  0
   11.4965   -2.9882   24.6768 H   0  0  0  0  0  0  0  0  0  0  0  0
   11.3006   -4.7204   24.3575 H   0  0  0  0  0  0  0  0  0  0  0  0
    8.1696   -2.4287   24.3329 H   0  0  0  0  0  0  0  0  0  0  0  0
    9.6261   -2.9923   26.0501 H   0  0  0  0  0  0  0  0  0  0  0  0
    9.6547   -1.4842   23.5024 H   0  0  0  0  0  0  0  0  0  0  0  0
    9.8286   -1.8221   21.7798 H   0  0  0  0  0  0  0  0  0  0  0  0
   10.5903   -4.2501   27.5313 H   0  0  0  0  0  0  0  0  0  0  0  0
   10.1763   -5.9227   27.8122 H   0  0  0  0  0  0  0  0  0  0  0  0
  1  4  2  0  0  0  0
  1  9  1  0  0  0  0
  2  5  1  0  0  0  0
  2  9  2  0  0  0  0
  3  6  2  0  0  0  0
  3  8  1  0  0  0  0
  4 16  1  0  0  0  0
  5 16  2  0  0  0  0
  6 20  1  0  0  0  0
  7  8  2  0  0  0  0
  7 20  1  0  0  0  0
  8 13  1  0  0  0  0
  9 15  1  0  0  0  0
 10 14  1  0  0  0  0
 10 18  1  0  0  0  0
 10 19  2  0  0  0  0
 11 13  1  0  0  0  0
 11 17  1  0  0  0  0
 12 14  1  0  0  0  0
 12 17  1  0  0  0  0
 13 14  1  0  0  0  0
 15 17  1  1  0  0  0
  1 21  1  0  0  0  0
  2 22  1  0  0  0  0
  3 23  1  0  0  0  0
  4 24  1  0  0  0  0
  5 25  1  0  0  0  0
  6 26  1  0  0  0  0
  7 27  1  0  0  0  0
 11 28  1  0  0  0  0
 11 29  1  0  0  0  0
 12 30  1  0  0  0  0
 12 31  1  0  0  0  0
 13 32  1  6  0  0  0
 14 33  1  1  0  0  0
 15 34  1  0  0  0  0
 15 35  1  0  0  0  0
 18 36  1  0  0  0  0
 18 37  1  0  0  0  0
M  END
> <Chemgauss4 Score>
-7.20338249206543

> <Number of Confs>
32

$$$$
SAL-INS-1c7-9
  -OEChem-03242005443D

 43 45  0     1  0  0  0  0  0999 V2000
    7.6099   -3.8045   22.4992 C   0  0  0  0  0  0  0  0  0  0  0  0
    8.0603   -2.7040   23.2282 C   0  0  0  0  0  0  0  0  0  0  0  0
    8.6323   -5.2888   24.1081 C   0  0  0  0  0  0  0  0  0  0  0  0
    8.8053   -3.5746   28.2980 C   0  0  0  0  0  0  0  0  0  0  0  0
    7.7277   -5.4419   28.7545 C   0  0  0  0  0  0  0  0  0  0  0  0
    7.8958   -5.0970   22.9392 C   0  0  0  0  0  0  0  0  0  0  0  0
    9.0829   -4.1883   24.8371 C   0  0  0  0  0  0  0  0  0  0  0  0
    8.7968   -2.8958   24.3971 C   0  0  0  0  0  0  0  0  0  0  0  0
    9.0244   -4.5302   27.3340 C   0  0  0  0  0  0  0  0  0  0  0  0
   11.3787   -1.8900   23.8626 C   0  0  0  0  0  0  0  0  0  0  0  0
   12.1006   -1.1211   23.0399 C   0  0  0  0  0  0  0  0  0  0  0  0
    8.3734   -1.2386   26.1485 C   0  0  0  0  0  0  0  0  0  0  0  0
   10.5071    0.2797   24.5208 C   0  0  0  0  0  0  0  0  0  0  0  0
   10.5898   -1.1917   24.9385 C   0  0  1  0  0  0  0  0  0  0  0  0
    7.4161   -6.2737   22.1582 C   0  0  0  0  0  0  0  0  0  0  0  0
    9.8723   -4.4235   26.0840 C   0  0  0  0  0  0  0  0  0  0  0  0
    7.0111   -1.9090   26.1714 C   0  0  0  0  0  0  0  0  0  0  0  0
    8.3505   -5.6902   27.6239 N   0  0  0  0  0  0  0  0  0  0  0  0
    7.9725   -4.1730   29.2010 N   0  0  0  0  0  0  0  0  0  0  0  0
    9.2552   -1.7407   25.1391 N   0  0  0  0  0  0  0  0  0  0  0  0
    8.6256   -0.3220   26.9347 O   0  0  0  0  0  0  0  0  0  0  0  0
   13.0401    0.9763   24.2634 O   0  0  0  0  0  0  0  0  0  0  0  0
   11.4860    1.3025   22.2903 O   0  0  0  0  0  0  0  0  0  0  0  0
   11.9198    0.5494   23.4492 S   0  0  0  0  0  0  0  0  0  0  0  0
    5.8929   -1.0552   25.0869 Cl  0  0  0  0  0  0  0  0  0  0  0  0
    7.0367   -3.6455   21.5897 H   0  0  0  0  0  0  0  0  0  0  0  0
    7.8303   -1.7014   22.8761 H   0  0  0  0  0  0  0  0  0  0  0  0
    8.8561   -6.2971   24.4487 H   0  0  0  0  0  0  0  0  0  0  0  0
    9.1515   -2.5586   28.4223 H   0  0  0  0  0  0  0  0  0  0  0  0
    7.0921   -6.1286   29.2956 H   0  0  0  0  0  0  0  0  0  0  0  0
   11.3620   -2.9647   23.7706 H   0  0  0  0  0  0  0  0  0  0  0  0
   12.7044   -1.4705   22.2169 H   0  0  0  0  0  0  0  0  0  0  0  0
    9.5910    0.5470   23.9964 H   0  0  0  0  0  0  0  0  0  0  0  0
   10.6345    0.9280   25.3899 H   0  0  0  0  0  0  0  0  0  0  0  0
   11.1049   -1.2534   25.9246 H   0  0  0  0  0  0  0  0  0  0  0  0
    8.1646   -6.5679   21.4125 H   0  0  0  0  0  0  0  0  0  0  0  0
    7.2202   -7.1330   22.8125 H   0  0  0  0  0  0  0  0  0  0  0  0
    6.4757   -6.0498   21.6379 H   0  0  0  0  0  0  0  0  0  0  0  0
   10.4828   -5.3371   25.9850 H   0  0  0  0  0  0  0  0  0  0  0  0
   10.6179   -3.6224   26.2234 H   0  0  0  0  0  0  0  0  0  0  0  0
    7.0994   -2.9420   25.8256 H   0  0  0  0  0  0  0  0  0  0  0  0
    6.5694   -1.8711   27.1699 H   0  0  0  0  0  0  0  0  0  0  0  0
    7.6052   -3.7547   30.0452 H   0  0  0  0  0  0  0  0  0  0  0  0
  1  2  2  0  0  0  0
  1  6  1  0  0  0  0
  2  8  1  0  0  0  0
  3  6  2  0  0  0  0
  3  7  1  0  0  0  0
  4  9  2  0  0  0  0
  4 19  1  0  0  0  0
  5 18  2  0  0  0  0
  5 19  1  0  0  0  0
  6 15  1  0  0  0  0
  7  8  2  0  0  0  0
  7 16  1  0  0  0  0
  8 20  1  0  0  0  0
  9 16  1  0  0  0  0
  9 18  1  0  0  0  0
 10 11  2  0  0  0  0
 10 14  1  0  0  0  0
 11 24  1  0  0  0  0
 12 17  1  0  0  0  0
 12 20  1  0  0  0  0
 12 21  2  0  0  0  0
 13 14  1  0  0  0  0
 13 24  1  0  0  0  0
 14 20  1  6  0  0  0
 17 25  1  0  0  0  0
 22 24  2  0  0  0  0
 23 24  2  0  0  0  0
  1 26  1  0  0  0  0
  2 27  1  0  0  0  0
  3 28  1  0  0  0  0
  4 29  1  0  0  0  0
  5 30  1  0  0  0  0
 10 31  1  0  0  0  0
 11 32  1  0  0  0  0
 13 33  1  0  0  0  0
 13 34  1  0  0  0  0
 14 35  1  0  0  0  0
 15 36  1  0  0  0  0
 15 37  1  0  0  0  0
 15 38  1  0  0  0  0
 16 39  1  0  0  0  0
 16 40  1  0  0  0  0
 17 41  1  0  0  0  0
 17 42  1  0  0  0  0
 19 43  1  0  0  0  0
M  END
> <Chemgauss4 Score>
-7.1807746887207

> <Number of Confs>
200

$$$$
SAL-INS-cba-7
  -OEChem-03242005443D

 40 43  0     0  0  0  0  0  0999 V2000
   10.6679   -3.5935   24.2463 C   0  0  0  0  0  0  0  0  0  0  0  0
    5.2322   -4.3759   26.3925 C   0  0  0  0  0  0  0  0  0  0  0  0
    5.5811   -5.5153   25.7066 C   0  0  0  0  0  0  0  0  0  0  0  0
   10.5088   -6.0833   26.8874 C   0  0  0  0  0  0  0  0  0  0  0  0
    7.4314   -0.4431   21.6751 C   0  0  0  0  0  0  0  0  0  0  0  0
    6.5110    1.5355   21.9829 C   0  0  0  0  0  0  0  0  0  0  0  0
    9.7317   -5.0501   27.3641 C   0  0  0  0  0  0  0  0  0  0  0  0
   10.5482   -4.5050   25.3278 C   0  0  0  0  0  0  0  0  0  0  0  0
    9.7689   -4.0490   26.3513 C   0  0  0  0  0  0  0  0  0  0  0  0
    8.3808    0.5203   21.9220 C   0  0  0  0  0  0  0  0  0  0  0  0
    9.9450   -2.4512   24.5167 C   0  0  0  0  0  0  0  0  0  0  0  0
    6.6931   -5.3428   27.6014 C   0  0  0  0  0  0  0  0  0  0  0  0
   10.3125   -1.0164   22.4792 C   0  0  0  0  0  0  0  0  0  0  0  0
    8.9920   -4.9219   28.6231 C   0  0  0  0  0  0  0  0  0  0  0  0
    9.8765    0.3579   21.9961 C   0  0  0  0  0  0  0  0  0  0  0  0
    7.6672   -5.7279   28.6880 C   0  0  0  0  0  0  0  0  0  0  0  0
    5.9281   -4.2742   27.5711 N   0  0  0  0  0  0  0  0  0  0  0  0
    7.8015    1.7497   22.1130 N   0  0  0  0  0  0  0  0  0  0  0  0
    6.2386    0.2221   21.7178 N   0  0  0  0  0  0  0  0  0  0  0  0
   11.0058   -5.7578   25.6539 N   0  0  0  0  0  0  0  0  0  0  0  0
    6.5181   -6.1241   26.4931 N   0  0  0  0  0  0  0  0  0  0  0  0
    9.7793   -1.3216   23.7605 N   0  0  0  0  0  0  0  0  0  0  0  0
   11.0407   -1.7450   21.8128 O   0  0  0  0  0  0  0  0  0  0  0  0
    9.1375   -2.4665   26.0372 S   0  0  0  0  0  0  0  0  0  0  0  0
   11.2379   -3.7612   23.3415 H   0  0  0  0  0  0  0  0  0  0  0  0
    4.5165   -3.6229   26.0970 H   0  0  0  0  0  0  0  0  0  0  0  0
    5.2602   -5.9351   24.7644 H   0  0  0  0  0  0  0  0  0  0  0  0
   10.7548   -7.0393   27.3283 H   0  0  0  0  0  0  0  0  0  0  0  0
    7.4898   -1.5043   21.4801 H   0  0  0  0  0  0  0  0  0  0  0  0
    5.7304    2.2783   22.0676 H   0  0  0  0  0  0  0  0  0  0  0  0
    9.6202   -5.2590   29.4767 H   0  0  0  0  0  0  0  0  0  0  0  0
    8.7670   -3.8594   28.8670 H   0  0  0  0  0  0  0  0  0  0  0  0
   10.3160    0.5385   21.0068 H   0  0  0  0  0  0  0  0  0  0  0  0
   10.2952    1.1176   22.6683 H   0  0  0  0  0  0  0  0  0  0  0  0
    7.1752   -5.5798   29.6583 H   0  0  0  0  0  0  0  0  0  0  0  0
    7.8858   -6.8018   28.6287 H   0  0  0  0  0  0  0  0  0  0  0  0
    5.3223   -0.1823   21.5780 H   0  0  0  0  0  0  0  0  0  0  0  0
   11.6058   -6.3162   25.0598 H   0  0  0  0  0  0  0  0  0  0  0  0
    6.9921   -6.9948   26.2923 H   0  0  0  0  0  0  0  0  0  0  0  0
    9.1806   -0.5854   24.1822 H   0  0  0  0  0  0  0  0  0  0  0  0
  1  8  1  0  0  0  0
  1 11  2  0  0  0  0
  2  3  2  0  0  0  0
  2 17  1  0  0  0  0
  3 21  1  0  0  0  0
  4  7  2  0  0  0  0
  4 20  1  0  0  0  0
  5 10  2  0  0  0  0
  5 19  1  0  0  0  0
  6 18  2  0  0  0  0
  6 19  1  0  0  0  0
  7  9  1  0  0  0  0
  7 14  1  0  0  0  0
  8  9  2  0  0  0  0
  8 20  1  0  0  0  0
  9 24  1  0  0  0  0
 10 15  1  0  0  0  0
 10 18  1  0  0  0  0
 11 22  1  0  0  0  0
 11 24  1  0  0  0  0
 12 16  1  0  0  0  0
 12 17  2  0  0  0  0
 12 21  1  0  0  0  0
 13 15  1  0  0  0  0
 13 22  1  0  0  0  0
 13 23  2  0  0  0  0
 14 16  1  0  0  0  0
  1 25  1  0  0  0  0
  2 26  1  0  0  0  0
  3 27  1  0  0  0  0
  4 28  1  0  0  0  0
  5 29  1  0  0  0  0
  6 30  1  0  0  0  0
 14 31  1  0  0  0  0
 14 32  1  0  0  0  0
 15 33  1  0  0  0  0
 15 34  1  0  0  0  0
 16 35  1  0  0  0  0
 16 36  1  0  0  0  0
 19 37  1  0  0  0  0
 20 38  1  0  0  0  0
 21 39  1  0  0  0  0
 22 40  1  0  0  0  0
M  END
> <Chemgauss4 Score>
-7.10677528381348

> <Number of Confs>
200

$$$$
DAR-DIA-43a-5
  -OEChem-03242005443D

 40 42  0     1  0  0  0  0  0999 V2000
    5.5048   -5.4610   27.1730 C   0  0  0  0  0  0  0  0  0  0  0  0
   12.7964   -1.0066   21.9779 C   0  0  0  0  0  0  0  0  0  0  0  0
    6.6070   -4.6400   27.4112 C   0  0  0  0  0  0  0  0  0  0  0  0
   11.4781   -1.1522   22.3954 C   0  0  0  0  0  0  0  0  0  0  0  0
    5.1846   -5.8377   25.8687 C   0  0  0  0  0  0  0  0  0  0  0  0
    7.0688   -4.5723   25.0407 C   0  0  0  0  0  0  0  0  0  0  0  0
   13.6447   -0.2425   22.7630 C   0  0  0  0  0  0  0  0  0  0  0  0
   11.9808    0.2052   24.2825 C   0  0  0  0  0  0  0  0  0  0  0  0
    7.3890   -4.1956   26.3451 C   0  0  0  0  0  0  0  0  0  0  0  0
   11.0544   -0.5378   23.5686 C   0  0  0  0  0  0  0  0  0  0  0  0
    5.9666   -5.3933   24.8025 C   0  0  0  0  0  0  0  0  0  0  0  0
    8.5168   -1.9684   25.9112 C   0  0  0  0  0  0  0  0  0  0  0  0
    9.4350   -1.8480   24.9426 C   0  0  0  0  0  0  0  0  0  0  0  0
   10.0791   -5.3208   26.0437 C   0  0  0  0  0  0  0  0  0  0  0  0
    8.5857   -3.3025   26.6045 C   0  0  2  0  0  0  0  0  0  0  0  0
   10.2799   -3.0821   24.8184 C   0  0  1  0  0  0  0  0  0  0  0  0
    9.9608   -3.8280   26.1254 C   0  0  2  0  0  0  0  0  0  0  0  0
    9.6316   -0.6771   24.0484 C   0  0  0  0  0  0  0  0  0  0  0  0
   13.2695    0.3694   23.9086 N   0  0  0  0  0  0  0  0  0  0  0  0
   11.3304   -5.7588   25.6796 N   0  0  0  0  0  0  0  0  0  0  0  0
    9.1360   -6.0654   26.2998 O   0  0  0  0  0  0  0  0  0  0  0  0
    9.8999   -3.8142   23.6651 O   0  0  0  0  0  0  0  0  0  0  0  0
    5.5704   -5.8575   23.1934 Cl  0  0  0  0  0  0  0  0  0  0  0  0
    4.8960   -5.8067   28.0035 H   0  0  0  0  0  0  0  0  0  0  0  0
   13.1488   -1.4767   21.0669 H   0  0  0  0  0  0  0  0  0  0  0  0
    6.8490   -4.3514   28.4308 H   0  0  0  0  0  0  0  0  0  0  0  0
   10.7888   -1.7456   21.8010 H   0  0  0  0  0  0  0  0  0  0  0  0
    4.3225   -6.4778   25.6980 H   0  0  0  0  0  0  0  0  0  0  0  0
    7.6819   -4.2236   24.2129 H   0  0  0  0  0  0  0  0  0  0  0  0
   14.6823   -0.0982   22.4803 H   0  0  0  0  0  0  0  0  0  0  0  0
   11.7082    0.7074   25.2056 H   0  0  0  0  0  0  0  0  0  0  0  0
    7.7938   -1.2048   26.1648 H   0  0  0  0  0  0  0  0  0  0  0  0
    8.6384   -3.1386   27.7216 H   0  0  0  0  0  0  0  0  0  0  0  0
   11.3539   -2.8386   24.7580 H   0  0  0  0  0  0  0  0  0  0  0  0
   10.7005   -3.5139   26.8689 H   0  0  0  0  0  0  0  0  0  0  0  0
    9.3358    0.2416   24.5728 H   0  0  0  0  0  0  0  0  0  0  0  0
    8.9549   -0.7566   23.1873 H   0  0  0  0  0  0  0  0  0  0  0  0
   12.0540   -5.0706   25.4997 H   0  0  0  0  0  0  0  0  0  0  0  0
   11.5594   -6.7428   25.5836 H   0  0  0  0  0  0  0  0  0  0  0  0
   10.0369   -3.2293   22.9015 H   0  0  0  0  0  0  0  0  0  0  0  0
  1  3  2  0  0  0  0
  1  5  1  0  0  0  0
  2  4  2  0  0  0  0
  2  7  1  0  0  0  0
  3  9  1  0  0  0  0
  4 10  1  0  0  0  0
  5 11  2  0  0  0  0
  6  9  2  0  0  0  0
  6 11  1  0  0  0  0
  7 19  2  0  0  0  0
  8 10  2  0  0  0  0
  8 19  1  0  0  0  0
  9 15  1  0  0  0  0
 10 18  1  0  0  0  0
 11 23  1  0  0  0  0
 12 13  2  0  0  0  0
 12 15  1  0  0  0  0
 13 16  1  0  0  0  0
 13 18  1  0  0  0  0
 14 17  1  0  0  0  0
 14 20  1  0  0  0  0
 14 21  2  0  0  0  0
 15 17  1  0  0  0  0
 16 17  1  0  0  0  0
 16 22  1  1  0  0  0
  1 24  1  0  0  0  0
  2 25  1  0  0  0  0
  3 26  1  0  0  0  0
  4 27  1  0  0  0  0
  5 28  1  0  0  0  0
  6 29  1  0  0  0  0
  7 30  1  0  0  0  0
  8 31  1  0  0  0  0
 12 32  1  0  0  0  0
 15 33  1  6  0  0  0
 16 34  1  0  0  0  0
 17 35  1  1  0  0  0
 18 36  1  0  0  0  0
 18 37  1  0  0  0  0
 20 38  1  0  0  0  0
 20 39  1  0  0  0  0
 22 40  1  0  0  0  0
M  END
> <Chemgauss4 Score>
-7.02036905288696

> <Number of Confs>
200

$$$$
CHR-SOS-70e-8
  -OEChem-03242005443D

 39 41  0     0  0  0  0  0  0999 V2000
   13.2031   -0.3225   23.0762 C   0  0  0  0  0  0  0  0  0  0  0  0
   11.9766    0.0368   23.6349 C   0  0  0  0  0  0  0  0  0  0  0  0
   13.2763   -1.3915   22.1830 C   0  0  0  0  0  0  0  0  0  0  0  0
    7.6209   -6.3403   28.6941 C   0  0  0  0  0  0  0  0  0  0  0  0
    8.1807   -5.8865   27.5050 C   0  0  0  0  0  0  0  0  0  0  0  0
   10.8232   -0.6729   23.3005 C   0  0  0  0  0  0  0  0  0  0  0  0
   12.1229   -2.1012   21.8487 C   0  0  0  0  0  0  0  0  0  0  0  0
    7.6006   -5.4726   29.7741 C   0  0  0  0  0  0  0  0  0  0  0  0
    8.6272   -3.8072   28.5696 C   0  0  0  0  0  0  0  0  0  0  0  0
    8.6958   -4.5970   27.4333 C   0  0  0  0  0  0  0  0  0  0  0  0
   10.8964   -1.7419   22.4074 C   0  0  0  0  0  0  0  0  0  0  0  0
    9.4103   -4.7775   25.0252 C   0  0  0  0  0  0  0  0  0  0  0  0
    7.0971   -3.2646   23.9938 C   0  0  0  0  0  0  0  0  0  0  0  0
    7.8074   -3.8593   22.7651 C   0  0  0  0  0  0  0  0  0  0  0  0
    8.1530   -2.1453   24.0006 C   0  0  0  0  0  0  0  0  0  0  0  0
    9.0861   -3.0779   23.1780 C   0  0  0  0  0  0  0  0  0  0  0  0
   10.0855   -3.8821   24.0001 C   0  0  0  0  0  0  0  0  0  0  0  0
    8.0911   -4.2132   29.7424 N   0  0  0  0  0  0  0  0  0  0  0  0
    9.2720   -4.1070   26.2371 N   0  0  0  0  0  0  0  0  0  0  0  0
    9.0583   -5.9227   24.7622 O   0  0  0  0  0  0  0  0  0  0  0  0
    9.7719   -2.4356   22.0822 O   0  0  0  0  0  0  0  0  0  0  0  0
   14.1012    0.2302   23.3358 H   0  0  0  0  0  0  0  0  0  0  0  0
   11.9194    0.8690   24.3305 H   0  0  0  0  0  0  0  0  0  0  0  0
   14.2317   -1.6706   21.7482 H   0  0  0  0  0  0  0  0  0  0  0  0
    7.2134   -7.3418   28.7729 H   0  0  0  0  0  0  0  0  0  0  0  0
    8.2104   -6.5453   26.6412 H   0  0  0  0  0  0  0  0  0  0  0  0
    9.8711   -0.3889   23.7404 H   0  0  0  0  0  0  0  0  0  0  0  0
   12.1862   -2.9342   21.1538 H   0  0  0  0  0  0  0  0  0  0  0  0
    7.1757   -5.7791   30.7242 H   0  0  0  0  0  0  0  0  0  0  0  0
    9.0123   -2.7918   28.5755 H   0  0  0  0  0  0  0  0  0  0  0  0
    6.0655   -2.9410   23.8335 H   0  0  0  0  0  0  0  0  0  0  0  0
    7.1325   -3.9095   24.8790 H   0  0  0  0  0  0  0  0  0  0  0  0
    7.8858   -4.9503   22.7572 H   0  0  0  0  0  0  0  0  0  0  0  0
    7.3786   -3.5337   21.8099 H   0  0  0  0  0  0  0  0  0  0  0  0
    7.8412   -1.2435   23.4605 H   0  0  0  0  0  0  0  0  0  0  0  0
    8.5124   -1.8515   24.9909 H   0  0  0  0  0  0  0  0  0  0  0  0
   10.7577   -3.1945   24.5227 H   0  0  0  0  0  0  0  0  0  0  0  0
   10.6848   -4.5053   23.3294 H   0  0  0  0  0  0  0  0  0  0  0  0
    9.6215   -3.1520   26.2821 H   0  0  0  0  0  0  0  0  0  0  0  0
  1  2  1  0  0  0  0
  1  3  2  0  0  0  0
  2  6  2  0  0  0  0
  3  7  1  0  0  0  0
  4  5  2  0  0  0  0
  4  8  1  0  0  0  0
  5 10  1  0  0  0  0
  6 11  1  0  0  0  0
  7 11  2  0  0  0  0
  8 18  2  0  0  0  0
  9 10  2  0  0  0  0
  9 18  1  0  0  0  0
 10 19  1  0  0  0  0
 11 21  1  0  0  0  0
 12 17  1  0  0  0  0
 12 19  1  0  0  0  0
 12 20  2  0  0  0  0
 13 14  1  0  0  0  0
 13 15  1  0  0  0  0
 14 16  1  0  0  0  0
 15 16  1  0  0  0  0
 16 17  1  0  0  0  0
 16 21  1  0  0  0  0
  1 22  1  0  0  0  0
  2 23  1  0  0  0  0
  3 24  1  0  0  0  0
  4 25  1  0  0  0  0
  5 26  1  0  0  0  0
  6 27  1  0  0  0  0
  7 28  1  0  0  0  0
  8 29  1  0  0  0  0
  9 30  1  0  0  0  0
 13 31  1  0  0  0  0
 13 32  1  0  0  0  0
 14 33  1  0  0  0  0
 14 34  1  0  0  0  0
 15 35  1  0  0  0  0
 15 36  1  0  0  0  0
 17 37  1  0  0  0  0
 17 38  1  0  0  0  0
 19 39  1  0  0  0  0
M  END
> <Chemgauss4 Score>
-6.98888111114502

> <Number of Confs>
194

$$$$
SAL-INS-1c7-2
  -OEChem-03242005443D

 50 53  0     1  0  0  0  0  0999 V2000
   13.8801    0.0866   23.3120 C   0  0  0  0  0  0  0  0  0  0  0  0
   13.8308   -0.7062   22.1655 C   0  0  0  0  0  0  0  0  0  0  0  0
   12.7694    0.1680   24.1520 C   0  0  0  0  0  0  0  0  0  0  0  0
    9.4884   -4.3042   25.3819 C   0  0  0  0  0  0  0  0  0  0  0  0
   12.6708   -1.4176   21.8588 C   0  0  0  0  0  0  0  0  0  0  0  0
   11.6095   -0.5434   23.8454 C   0  0  0  0  0  0  0  0  0  0  0  0
   10.1261   -3.7753   24.2606 C   0  0  0  0  0  0  0  0  0  0  0  0
    7.7529   -2.6409   25.1750 C   0  0  0  0  0  0  0  0  0  0  0  0
    5.5130   -6.7761   25.0962 C   0  0  0  0  0  0  0  0  0  0  0  0
    6.5487   -5.9623   23.3294 C   0  0  0  0  0  0  0  0  0  0  0  0
    8.3015   -3.7384   25.8377 C   0  0  0  0  0  0  0  0  0  0  0  0
   11.5601   -1.3362   22.6988 C   0  0  0  0  0  0  0  0  0  0  0  0
    9.5820   -2.6723   23.5826 C   0  0  0  0  0  0  0  0  0  0  0  0
    8.3873   -2.0941   24.0492 C   0  0  0  0  0  0  0  0  0  0  0  0
    6.4087   -5.7936   25.4466 C   0  0  0  0  0  0  0  0  0  0  0  0
    7.6337   -4.2911   27.0054 C   0  0  0  0  0  0  0  0  0  0  0  0
    8.5302    1.0132   21.9031 C   0  0  0  0  0  0  0  0  0  0  0  0
    7.7561   -0.9061   23.3652 C   0  0  0  0  0  0  0  0  0  0  0  0
    9.3379   -1.2844   21.4898 C   0  0  0  0  0  0  0  0  0  0  0  0
   10.2934   -2.1124   22.3645 C   0  0  1  0  0  0  0  0  0  0  0  0
    5.9458   -5.9100   27.9277 C   0  0  0  0  0  0  0  0  0  0  0  0
    7.5945    1.9064   22.6791 C   0  0  0  0  0  0  0  0  0  0  0  0
    7.0500   -5.2908   24.3422 N   0  0  0  0  0  0  0  0  0  0  0  0
    5.6136   -6.8727   23.7368 N   0  0  0  0  0  0  0  0  0  0  0  0
    8.5658   -0.3302   22.2842 N   0  0  0  0  0  0  0  0  0  0  0  0
    6.6722   -5.3219   26.7920 N   0  0  0  0  0  0  0  0  0  0  0  0
    7.8915   -3.8569   28.1366 O   0  0  0  0  0  0  0  0  0  0  0  0
    9.2113    1.4950   20.9946 O   0  0  0  0  0  0  0  0  0  0  0  0
    6.0573    1.8893   21.8227 Cl  0  0  0  0  0  0  0  0  0  0  0  0
   14.7838    0.6394   23.5514 H   0  0  0  0  0  0  0  0  0  0  0  0
   14.6958   -0.7705   21.5119 H   0  0  0  0  0  0  0  0  0  0  0  0
   12.8078    0.7843   25.0454 H   0  0  0  0  0  0  0  0  0  0  0  0
    9.9262   -5.1593   25.8905 H   0  0  0  0  0  0  0  0  0  0  0  0
   12.6414   -2.0326   20.9632 H   0  0  0  0  0  0  0  0  0  0  0  0
   10.7490   -0.4739   24.5056 H   0  0  0  0  0  0  0  0  0  0  0  0
   11.0510   -4.2301   23.9142 H   0  0  0  0  0  0  0  0  0  0  0  0
    6.8247   -2.2010   25.5347 H   0  0  0  0  0  0  0  0  0  0  0  0
    4.8353   -7.3961   25.6658 H   0  0  0  0  0  0  0  0  0  0  0  0
    6.8144   -5.8381   22.2893 H   0  0  0  0  0  0  0  0  0  0  0  0
    6.8054   -1.2142   22.9139 H   0  0  0  0  0  0  0  0  0  0  0  0
    7.5468   -0.1411   24.1181 H   0  0  0  0  0  0  0  0  0  0  0  0
    9.8861   -0.7758   20.6886 H   0  0  0  0  0  0  0  0  0  0  0  0
    8.6069   -1.9451   21.0051 H   0  0  0  0  0  0  0  0  0  0  0  0
   10.6223   -2.9837   21.7338 H   0  0  0  0  0  0  0  0  0  0  0  0
    6.5078   -6.7720   28.3163 H   0  0  0  0  0  0  0  0  0  0  0  0
    5.8349   -5.1567   28.7215 H   0  0  0  0  0  0  0  0  0  0  0  0
    4.9510   -6.2410   27.5947 H   0  0  0  0  0  0  0  0  0  0  0  0
    8.0013    2.9108   22.6948 H   0  0  0  0  0  0  0  0  0  0  0  0
    7.4702    1.5014   23.6765 H   0  0  0  0  0  0  0  0  0  0  0  0
    5.0930   -7.5030   23.1416 H   0  0  0  0  0  0  0  0  0  0  0  0
  1  2  1  0  0  0  0
  1  3  2  0  0  0  0
  2  5  2  0  0  0  0
  3  6  1  0  0  0  0
  4  7  2  0  0  0  0
  4 11  1  0  0  0  0
  5 12  1  0  0  0  0
  6 12  2  0  0  0  0
  7 13  1  0  0  0  0
  8 11  2  0  0  0  0
  8 14  1  0  0  0  0
  9 15  2  0  0  0  0
  9 24  1  0  0  0  0
 10 23  2  0  0  0  0
 10 24  1  0  0  0  0
 11 16  1  0  0  0  0
 12 20  1  1  0  0  0
 13 14  2  0  0  0  0
 13 20  1  0  0  0  0
 14 18  1  0  0  0  0
 15 23  1  0  0  0  0
 15 26  1  0  0  0  0
 16 26  1  0  0  0  0
 16 27  2  0  0  0  0
 17 22  1  0  0  0  0
 17 25  1  0  0  0  0
 17 28  2  0  0  0  0
 18 25  1  0  0  0  0
 19 20  1  0  0  0  0
 19 25  1  0  0  0  0
 21 26  1  0  0  0  0
 22 29  1  0  0  0  0
  1 30  1  0  0  0  0
  2 31  1  0  0  0  0
  3 32  1  0  0  0  0
  4 33  1  0  0  0  0
  5 34  1  0  0  0  0
  6 35  1  0  0  0  0
  7 36  1  0  0  0  0
  8 37  1  0  0  0  0
  9 38  1  0  0  0  0
 10 39  1  0  0  0  0
 18 40  1  0  0  0  0
 18 41  1  0  0  0  0
 19 42  1  0  0  0  0
 19 43  1  0  0  0  0
 20 44  1  0  0  0  0
 21 45  1  0  0  0  0
 21 46  1  0  0  0  0
 21 47  1  0  0  0  0
 22 48  1  0  0  0  0
 22 49  1  0  0  0  0
 24 50  1  0  0  0  0
M  END
> <Chemgauss4 Score>
-6.97402048110962

> <Number of Confs>
131

$$$$
DAR-DIA-43a-7
  -OEChem-03242005443D

 40 42  0     1  0  0  0  0  0999 V2000
   13.8182   -0.8634   22.5021 C   0  0  0  0  0  0  0  0  0  0  0  0
   13.4149   -0.1978   23.6596 C   0  0  0  0  0  0  0  0  0  0  0  0
   12.8704   -1.4840   21.6882 C   0  0  0  0  0  0  0  0  0  0  0  0
    5.6930   -6.4033   25.1728 C   0  0  0  0  0  0  0  0  0  0  0  0
    6.4351   -5.3970   25.7910 C   0  0  0  0  0  0  0  0  0  0  0  0
   12.0638   -0.1528   24.0033 C   0  0  0  0  0  0  0  0  0  0  0  0
   11.5193   -1.4389   22.0319 C   0  0  0  0  0  0  0  0  0  0  0  0
    5.6576   -6.4890   23.7809 C   0  0  0  0  0  0  0  0  0  0  0  0
    7.1064   -4.5618   23.6256 C   0  0  0  0  0  0  0  0  0  0  0  0
    7.1418   -4.4762   25.0174 C   0  0  0  0  0  0  0  0  0  0  0  0
   11.1160   -0.7733   23.1895 C   0  0  0  0  0  0  0  0  0  0  0  0
    6.3643   -5.5682   23.0074 C   0  0  0  0  0  0  0  0  0  0  0  0
    8.0059   -2.1166   24.8777 C   0  0  0  0  0  0  0  0  0  0  0  0
    9.2380   -1.8640   24.4185 C   0  0  0  0  0  0  0  0  0  0  0  0
    9.8175   -5.1156   26.0065 C   0  0  0  0  0  0  0  0  0  0  0  0
   10.2171   -2.9123   24.8465 C   0  0  0  0  0  0  0  0  0  0  0  0
    7.9470   -3.3821   25.6899 C   0  0  2  0  0  0  0  0  0  0  0  0
    9.4478   -3.6654   25.9386 C   0  0  1  0  0  0  0  0  0  0  0  0
    9.6548   -0.7252   23.5607 C   0  0  0  0  0  0  0  0  0  0  0  0
    9.7142   -5.6558   27.2666 N   0  0  0  0  0  0  0  0  0  0  0  0
   10.1622   -5.7487   25.0116 O   0  0  0  0  0  0  0  0  0  0  0  0
    6.3194   -5.6736   21.2902 Cl  0  0  0  0  0  0  0  0  0  0  0  0
   14.8701   -0.8973   22.2339 H   0  0  0  0  0  0  0  0  0  0  0  0
   14.1526    0.2863   24.2929 H   0  0  0  0  0  0  0  0  0  0  0  0
   13.1840   -2.0013   20.7864 H   0  0  0  0  0  0  0  0  0  0  0  0
    5.1428   -7.1201   25.7755 H   0  0  0  0  0  0  0  0  0  0  0  0
    6.4569   -5.3378   26.8760 H   0  0  0  0  0  0  0  0  0  0  0  0
   11.7587    0.3680   24.9072 H   0  0  0  0  0  0  0  0  0  0  0  0
   10.7880   -1.9253   21.3919 H   0  0  0  0  0  0  0  0  0  0  0  0
    5.0748   -7.2784   23.3127 H   0  0  0  0  0  0  0  0  0  0  0  0
    7.6595   -3.8418   23.0269 H   0  0  0  0  0  0  0  0  0  0  0  0
    7.1545   -1.4623   24.7231 H   0  0  0  0  0  0  0  0  0  0  0  0
   10.5048   -3.5605   24.0128 H   0  0  0  0  0  0  0  0  0  0  0  0
   11.1157   -2.4369   25.2535 H   0  0  0  0  0  0  0  0  0  0  0  0
    7.4453   -3.1470   26.6414 H   0  0  0  0  0  0  0  0  0  0  0  0
    9.7306   -3.2427   26.9540 H   0  0  0  0  0  0  0  0  0  0  0  0
    9.4447    0.2223   24.0758 H   0  0  0  0  0  0  0  0  0  0  0  0
    9.0409   -0.7080   22.6501 H   0  0  0  0  0  0  0  0  0  0  0  0
    9.4080   -5.0596   28.0284 H   0  0  0  0  0  0  0  0  0  0  0  0
    9.9318   -6.6269   27.4654 H   0  0  0  0  0  0  0  0  0  0  0  0
  1  2  1  0  0  0  0
  1  3  2  0  0  0  0
  2  6  2  0  0  0  0
  3  7  1  0  0  0  0
  4  5  2  0  0  0  0
  4  8  1  0  0  0  0
  5 10  1  0  0  0  0
  6 11  1  0  0  0  0
  7 11  2  0  0  0  0
  8 12  2  0  0  0  0
  9 10  2  0  0  0  0
  9 12  1  0  0  0  0
 10 17  1  0  0  0  0
 11 19  1  0  0  0  0
 12 22  1  0  0  0  0
 13 14  2  0  0  0  0
 13 17  1  0  0  0  0
 14 16  1  0  0  0  0
 14 19  1  0  0  0  0
 15 18  1  0  0  0  0
 15 20  1  0  0  0  0
 15 21  2  0  0  0  0
 16 18  1  0  0  0  0
 17 18  1  0  0  0  0
  1 23  1  0  0  0  0
  2 24  1  0  0  0  0
  3 25  1  0  0  0  0
  4 26  1  0  0  0  0
  5 27  1  0  0  0  0
  6 28  1  0  0  0  0
  7 29  1  0  0  0  0
  8 30  1  0  0  0  0
  9 31  1  0  0  0  0
 13 32  1  0  0  0  0
 16 33  1  0  0  0  0
 16 34  1  0  0  0  0
 17 35  1  6  0  0  0
 18 36  1  1  0  0  0
 19 37  1  0  0  0  0
 19 38  1  0  0  0  0
 20 39  1  0  0  0  0
 20 40  1  0  0  0  0
M  END
> <Chemgauss4 Score>
-6.95997047424316

> <Number of Confs>
146

$$$$
ADA-UNI-f8e-1
  -OEChem-03242005443D

 43 44  0     1  0  0  0  0  0999 V2000
   13.3734   -0.7415   22.5256 C   0  0  0  0  0  0  0  0  0  0  0  0
   12.5061    0.3269   22.7526 C   0  0  0  0  0  0  0  0  0  0  0  0
   12.8842   -2.0478   22.5190 C   0  0  0  0  0  0  0  0  0  0  0  0
    8.5485   -4.5044   28.4825 C   0  0  0  0  0  0  0  0  0  0  0  0
   11.1494    0.0892   22.9732 C   0  0  0  0  0  0  0  0  0  0  0  0
   11.5276   -2.2856   22.7395 C   0  0  0  0  0  0  0  0  0  0  0  0
    8.7378   -3.4701   27.5728 C   0  0  0  0  0  0  0  0  0  0  0  0
    8.3705   -5.7841   27.9818 C   0  0  0  0  0  0  0  0  0  0  0  0
    8.5570   -5.0569   25.8105 C   0  0  0  0  0  0  0  0  0  0  0  0
   10.6601   -1.2171   22.9666 C   0  0  0  0  0  0  0  0  0  0  0  0
    8.7434   -3.7432   26.2094 C   0  0  0  0  0  0  0  0  0  0  0  0
    8.9596   -2.8291   23.8734 C   0  0  0  0  0  0  0  0  0  0  0  0
    4.9305    1.1759   18.7945 C   0  0  0  0  0  0  0  0  0  0  0  0
    6.4402   -1.1887   20.7720 C   0  0  0  0  0  0  0  0  0  0  0  0
    7.1171   -1.2177   22.1301 C   0  0  0  0  0  0  0  0  0  0  0  0
    9.1906   -1.4754   23.2057 C   0  0  2  0  0  0  0  0  0  0  0  0
    8.3699   -6.0880   26.6646 N   0  0  0  0  0  0  0  0  0  0  0  0
    8.9335   -2.7117   25.2597 N   0  0  0  0  0  0  0  0  0  0  0  0
    6.9875   -0.0794   19.9704 N   0  0  0  0  0  0  0  0  0  0  0  0
    8.8357   -3.8546   23.2098 O   0  0  0  0  0  0  0  0  0  0  0  0
    5.9150   -1.0463   17.8235 O   0  0  0  0  0  0  0  0  0  0  0  0
    7.2917    1.0617   17.6913 O   0  0  0  0  0  0  0  0  0  0  0  0
    8.5110   -1.4399   21.9584 O   0  0  0  0  0  0  0  0  0  0  0  0
    6.3668    0.2024   18.4052 S   0  0  0  0  0  0  0  0  0  0  0  0
   14.4295   -0.5561   22.3526 H   0  0  0  0  0  0  0  0  0  0  0  0
   12.8866    1.3442   22.7567 H   0  0  0  0  0  0  0  0  0  0  0  0
   13.5591   -2.8798   22.3412 H   0  0  0  0  0  0  0  0  0  0  0  0
    8.5404   -4.3148   29.5498 H   0  0  0  0  0  0  0  0  0  0  0  0
   10.4810    0.9279   23.1494 H   0  0  0  0  0  0  0  0  0  0  0  0
   11.1554   -3.3066   22.7327 H   0  0  0  0  0  0  0  0  0  0  0  0
    8.8800   -2.4560   27.9367 H   0  0  0  0  0  0  0  0  0  0  0  0
    8.2181   -6.6252   28.6501 H   0  0  0  0  0  0  0  0  0  0  0  0
    8.5516   -5.3325   24.7601 H   0  0  0  0  0  0  0  0  0  0  0  0
    4.4254    1.4326   17.8621 H   0  0  0  0  0  0  0  0  0  0  0  0
    4.2751    0.5823   19.4336 H   0  0  0  0  0  0  0  0  0  0  0  0
    5.2567    2.0783   19.3138 H   0  0  0  0  0  0  0  0  0  0  0  0
    6.6074   -2.1221   20.2252 H   0  0  0  0  0  0  0  0  0  0  0  0
    5.3638   -1.0284   20.8862 H   0  0  0  0  0  0  0  0  0  0  0  0
    6.7156   -2.0393   22.7314 H   0  0  0  0  0  0  0  0  0  0  0  0
    6.9746   -0.2766   22.6712 H   0  0  0  0  0  0  0  0  0  0  0  0
    8.7569   -0.6859   23.8314 H   0  0  0  0  0  0  0  0  0  0  0  0
    9.0619   -1.7808   25.6505 H   0  0  0  0  0  0  0  0  0  0  0  0
    7.2455    0.7478   20.5241 H   0  0  0  0  0  0  0  0  0  0  0  0
  1  2  1  0  0  0  0
  1  3  2  0  0  0  0
  2  5  2  0  0  0  0
  3  6  1  0  0  0  0
  4  7  2  0  0  0  0
  4  8  1  0  0  0  0
  5 10  1  0  0  0  0
  6 10  2  0  0  0  0
  7 11  1  0  0  0  0
  8 17  2  0  0  0  0
  9 11  2  0  0  0  0
  9 17  1  0  0  0  0
 10 16  1  0  0  0  0
 11 18  1  0  0  0  0
 12 16  1  1  0  0  0
 12 18  1  0  0  0  0
 12 20  2  0  0  0  0
 13 24  1  0  0  0  0
 14 15  1  0  0  0  0
 14 19  1  0  0  0  0
 15 23  1  0  0  0  0
 16 23  1  0  0  0  0
 19 24  1  0  0  0  0
 21 24  2  0  0  0  0
 22 24  2  0  0  0  0
  1 25  1  0  0  0  0
  2 26  1  0  0  0  0
  3 27  1  0  0  0  0
  4 28  1  0  0  0  0
  5 29  1  0  0  0  0
  6 30  1  0  0  0  0
  7 31  1  0  0  0  0
  8 32  1  0  0  0  0
  9 33  1  0  0  0  0
 13 34  1  0  0  0  0
 13 35  1  0  0  0  0
 13 36  1  0  0  0  0
 14 37  1  0  0  0  0
 14 38  1  0  0  0  0
 15 39  1  0  0  0  0
 15 40  1  0  0  0  0
 16 41  1  0  0  0  0
 18 42  1  0  0  0  0
 19 43  1  0  0  0  0
M  END
> <Chemgauss4 Score>
-6.88978099822998

> <Number of Confs>
200

$$$$
SAL-INS-1c7-4
  -OEChem-03242005443D

 47 50  0     1  0  0  0  0  0999 V2000
   10.2993   -4.3202   25.7187 C   0  0  0  0  0  0  0  0  0  0  0  0
   10.7551   -3.7998   24.5083 C   0  0  0  0  0  0  0  0  0  0  0  0
    8.6329   -2.5794   25.8356 C   0  0  0  0  0  0  0  0  0  0  0  0
   12.3163   -0.2875   23.4917 C   0  0  0  0  0  0  0  0  0  0  0  0
    5.4591   -5.6577   26.4334 C   0  0  0  0  0  0  0  0  0  0  0  0
   14.0666   -1.0207   22.3713 C   0  0  0  0  0  0  0  0  0  0  0  0
    6.4970   -5.8280   24.4969 C   0  0  0  0  0  0  0  0  0  0  0  0
    9.2376   -3.7113   26.3811 C   0  0  0  0  0  0  0  0  0  0  0  0
   10.1523   -2.6622   23.9471 C   0  0  0  0  0  0  0  0  0  0  0  0
    9.0855   -2.0408   24.6215 C   0  0  0  0  0  0  0  0  0  0  0  0
   12.0052   -1.3983   22.7435 C   0  0  0  0  0  0  0  0  0  0  0  0
    6.7562   -5.2094   26.5169 C   0  0  0  0  0  0  0  0  0  0  0  0
    8.7591   -4.2553   27.6421 C   0  0  0  0  0  0  0  0  0  0  0  0
    8.9945    1.0949   22.5143 C   0  0  0  0  0  0  0  0  0  0  0  0
    8.4000   -0.8144   24.0704 C   0  0  0  0  0  0  0  0  0  0  0  0
    9.6108   -1.2281   21.9432 C   0  0  0  0  0  0  0  0  0  0  0  0
   10.6652   -2.1123   22.6287 C   0  0  2  0  0  0  0  0  0  0  0  0
    6.6503   -4.6000   28.9666 C   0  0  0  0  0  0  0  0  0  0  0  0
    8.2509    2.0142   23.4511 C   0  0  0  0  0  0  0  0  0  0  0  0
   13.0991   -1.8500   22.0485 N   0  0  0  0  0  0  0  0  0  0  0  0
    7.3969   -5.3178   25.3080 N   0  0  0  0  0  0  0  0  0  0  0  0
   13.6403   -0.0580   23.2434 N   0  0  0  0  0  0  0  0  0  0  0  0
    5.3076   -6.0503   25.1334 N   0  0  0  0  0  0  0  0  0  0  0  0
    9.0341   -0.2552   22.8700 N   0  0  0  0  0  0  0  0  0  0  0  0
    7.4012   -4.6851   27.7048 N   0  0  0  0  0  0  0  0  0  0  0  0
    9.5146   -4.3190   28.6218 O   0  0  0  0  0  0  0  0  0  0  0  0
    9.5279    1.5626   21.5053 O   0  0  0  0  0  0  0  0  0  0  0  0
    7.6338    3.3390   22.4708 Cl  0  0  0  0  0  0  0  0  0  0  0  0
   10.7792   -5.2027   26.1341 H   0  0  0  0  0  0  0  0  0  0  0  0
   11.5825   -4.2899   24.0007 H   0  0  0  0  0  0  0  0  0  0  0  0
    7.8031   -2.1058   26.3568 H   0  0  0  0  0  0  0  0  0  0  0  0
   11.7399    0.3403   24.1560 H   0  0  0  0  0  0  0  0  0  0  0  0
    4.6550   -5.7326   27.1518 H   0  0  0  0  0  0  0  0  0  0  0  0
   15.0857   -1.0609   22.0133 H   0  0  0  0  0  0  0  0  0  0  0  0
    6.6397   -6.0558   23.4502 H   0  0  0  0  0  0  0  0  0  0  0  0
    7.3719   -1.0727   23.7896 H   0  0  0  0  0  0  0  0  0  0  0  0
    8.3608   -0.0545   24.8559 H   0  0  0  0  0  0  0  0  0  0  0  0
   10.0452   -0.7259   21.0716 H   0  0  0  0  0  0  0  0  0  0  0  0
    8.7795   -1.8454   21.5788 H   0  0  0  0  0  0  0  0  0  0  0  0
   10.8238   -2.9924   21.9057 H   0  0  0  0  0  0  0  0  0  0  0  0
    6.7770   -5.5345   29.5330 H   0  0  0  0  0  0  0  0  0  0  0  0
    7.0289   -3.7563   29.5623 H   0  0  0  0  0  0  0  0  0  0  0  0
    5.5833   -4.4454   28.7485 H   0  0  0  0  0  0  0  0  0  0  0  0
    8.9431    2.3917   24.1945 H   0  0  0  0  0  0  0  0  0  0  0  0
    7.4294    1.4679   23.8993 H   0  0  0  0  0  0  0  0  0  0  0  0
   14.2018    0.6877   23.6325 H   0  0  0  0  0  0  0  0  0  0  0  0
    4.4699   -6.4361   24.7186 H   0  0  0  0  0  0  0  0  0  0  0  0
  1  2  2  0  0  0  0
  1  8  1  0  0  0  0
  2  9  1  0  0  0  0
  3  8  2  0  0  0  0
  3 10  1  0  0  0  0
  4 11  2  0  0  0  0
  4 22  1  0  0  0  0
  5 12  2  0  0  0  0
  5 23  1  0  0  0  0
  6 20  2  0  0  0  0
  6 22  1  0  0  0  0
  7 21  2  0  0  0  0
  7 23  1  0  0  0  0
  8 13  1  0  0  0  0
  9 10  2  0  0  0  0
  9 17  1  0  0  0  0
 10 15  1  0  0  0  0
 11 17  1  1  0  0  0
 11 20  1  0  0  0  0
 12 21  1  0  0  0  0
 12 25  1  0  0  0  0
 13 25  1  0  0  0  0
 13 26  2  0  0  0  0
 14 19  1  0  0  0  0
 14 24  1  0  0  0  0
 14 27  2  0  0  0  0
 15 24  1  0  0  0  0
 16 17  1  0  0  0  0
 16 24  1  0  0  0  0
 18 25  1  0  0  0  0
 19 28  1  0  0  0  0
  1 29  1  0  0  0  0
  2 30  1  0  0  0  0
  3 31  1  0  0  0  0
  4 32  1  0  0  0  0
  5 33  1  0  0  0  0
  6 34  1  0  0  0  0
  7 35  1  0  0  0  0
 15 36  1  0  0  0  0
 15 37  1  0  0  0  0
 16 38  1  0  0  0  0
 16 39  1  0  0  0  0
 17 40  1  0  0  0  0
 18 41  1  0  0  0  0
 18 42  1  0  0  0  0
 18 43  1  0  0  0  0
 19 44  1  0  0  0  0
 19 45  1  0  0  0  0
 22 46  1  0  0  0  0
 23 47  1  0  0  0  0
M  END
> <Chemgauss4 Score>
-6.83954048156738

> <Number of Confs>
200

$$$$
HEI-REL-0c9-2
  -OEChem-03242005443D

 48 50  0     1  0  0  0  0  0999 V2000
   10.7190   -2.5277   26.0883 C   0  0  0  0  0  0  0  0  0  0  0  0
    9.9695   -3.7021   26.0917 C   0  0  0  0  0  0  0  0  0  0  0  0
    9.5764   -3.4504   23.7229 C   0  0  0  0  0  0  0  0  0  0  0  0
   10.9097   -1.8111   24.8980 C   0  0  0  0  0  0  0  0  0  0  0  0
   10.3164   -2.2588   23.7010 C   0  0  0  0  0  0  0  0  0  0  0  0
    9.4019   -4.1656   24.9088 C   0  0  0  0  0  0  0  0  0  0  0  0
    5.9871    1.1255   18.8811 C   0  0  0  0  0  0  0  0  0  0  0  0
   11.7138   -0.5353   24.9184 C   0  0  0  0  0  0  0  0  0  0  0  0
   12.2322   -0.1858   23.5238 C   0  0  0  0  0  0  0  0  0  0  0  0
    6.5252    1.0671   21.3637 C   0  0  0  0  0  0  0  0  0  0  0  0
    7.8574   -0.2358   19.7537 C   0  0  0  0  0  0  0  0  0  0  0  0
    7.8219    1.4777   22.0639 C   0  0  0  0  0  0  0  0  0  0  0  0
    9.1279    0.2043   20.4803 C   0  0  0  0  0  0  0  0  0  0  0  0
   11.1299   -0.2689   22.4632 C   0  0  2  0  0  0  0  0  0  0  0  0
    4.7989    1.9974   19.2000 C   0  0  0  0  0  0  0  0  0  0  0  0
   10.0812    0.8331   22.6029 C   0  0  0  0  0  0  0  0  0  0  0  0
   10.4821   -1.5715   22.5051 N   0  0  0  0  0  0  0  0  0  0  0  0
    6.7698    0.7191   19.9609 N   0  0  0  0  0  0  0  0  0  0  0  0
    8.8562    0.4449   21.9050 N   0  0  0  0  0  0  0  0  0  0  0  0
    9.6927   -6.7949   24.5816 N   0  0  0  0  0  0  0  0  0  0  0  0
    6.2138    0.8190   17.7078 O   0  0  0  0  0  0  0  0  0  0  0  0
    7.9629   -5.8674   26.2529 O   0  0  0  0  0  0  0  0  0  0  0  0
    7.5504   -5.6091   23.7809 O   0  0  0  0  0  0  0  0  0  0  0  0
    8.4727   -5.6438   24.9073 S   0  0  0  0  0  0  0  0  0  0  0  0
   11.1504   -2.1688   27.0196 H   0  0  0  0  0  0  0  0  0  0  0  0
    9.8329   -4.2452   27.0227 H   0  0  0  0  0  0  0  0  0  0  0  0
    9.1364   -3.8268   22.8008 H   0  0  0  0  0  0  0  0  0  0  0  0
   11.0993    0.2945   25.2873 H   0  0  0  0  0  0  0  0  0  0  0  0
   12.5560   -0.6635   25.6094 H   0  0  0  0  0  0  0  0  0  0  0  0
   12.6688    0.8308   23.5331 H   0  0  0  0  0  0  0  0  0  0  0  0
   13.0628   -0.8655   23.2643 H   0  0  0  0  0  0  0  0  0  0  0  0
    6.0954    0.1788   21.8431 H   0  0  0  0  0  0  0  0  0  0  0  0
    5.7943    1.8723   21.4605 H   0  0  0  0  0  0  0  0  0  0  0  0
    8.0663   -0.3596   18.6861 H   0  0  0  0  0  0  0  0  0  0  0  0
    7.5128   -1.2057   20.1332 H   0  0  0  0  0  0  0  0  0  0  0  0
    8.1650    2.4361   21.6637 H   0  0  0  0  0  0  0  0  0  0  0  0
    7.6051    1.6150   23.1260 H   0  0  0  0  0  0  0  0  0  0  0  0
    9.8691   -0.5923   20.3804 H   0  0  0  0  0  0  0  0  0  0  0  0
    9.5316    1.1019   20.0032 H   0  0  0  0  0  0  0  0  0  0  0  0
   11.5997   -0.1628   21.4549 H   0  0  0  0  0  0  0  0  0  0  0  0
    5.1033    3.0383   19.1662 H   0  0  0  0  0  0  0  0  0  0  0  0
    4.4324    1.7501   20.1912 H   0  0  0  0  0  0  0  0  0  0  0  0
    4.0183    1.8152   18.4684 H   0  0  0  0  0  0  0  0  0  0  0  0
    9.8892    0.9659   23.6669 H   0  0  0  0  0  0  0  0  0  0  0  0
   10.5004    1.7380   22.1646 H   0  0  0  0  0  0  0  0  0  0  0  0
   10.3867   -2.0978   21.6352 H   0  0  0  0  0  0  0  0  0  0  0  0
    9.9826   -7.4188   25.3446 H   0  0  0  0  0  0  0  0  0  0  0  0
    9.7007   -7.2399   23.6558 H   0  0  0  0  0  0  0  0  0  0  0  0
  1  2  2  0  0  0  0
  1  4  1  0  0  0  0
  2  6  1  0  0  0  0
  3  5  1  0  0  0  0
  3  6  2  0  0  0  0
  4  5  2  0  0  0  0
  4  8  1  0  0  0  0
  5 17  1  0  0  0  0
  6 24  1  0  0  0  0
  7 15  1  0  0  0  0
  7 18  1  0  0  0  0
  7 21  2  0  0  0  0
  8  9  1  0  0  0  0
  9 14  1  0  0  0  0
 10 12  1  0  0  0  0
 10 18  1  0  0  0  0
 11 13  1  0  0  0  0
 11 18  1  0  0  0  0
 12 19  1  0  0  0  0
 13 19  1  0  0  0  0
 14 16  1  6  0  0  0
 14 17  1  0  0  0  0
 16 19  1  0  0  0  0
 20 24  1  0  0  0  0
 22 24  2  0  0  0  0
 23 24  2  0  0  0  0
  1 25  1  0  0  0  0
  2 26  1  0  0  0  0
  3 27  1  0  0  0  0
  8 28  1  0  0  0  0
  8 29  1  0  0  0  0
  9 30  1  0  0  0  0
  9 31  1  0  0  0  0
 10 32  1  0  0  0  0
 10 33  1  0  0  0  0
 11 34  1  0  0  0  0
 11 35  1  0  0  0  0
 12 36  1  0  0  0  0
 12 37  1  0  0  0  0
 13 38  1  0  0  0  0
 13 39  1  0  0  0  0
 14 40  1  0  0  0  0
 15 41  1  0  0  0  0
 15 42  1  0  0  0  0
 15 43  1  0  0  0  0
 16 44  1  0  0  0  0
 16 45  1  0  0  0  0
 17 46  1  0  0  0  0
 20 47  1  0  0  0  0
 20 48  1  0  0  0  0
M  END
> <Chemgauss4 Score>
-6.78141307830811

> <Number of Confs>
52

$$$$
JOH-MEM-5e3-6
  -OEChem-03242005443D

 32 34  0     0  0  0  0  0  0999 V2000
   11.0107   -2.3560   24.1365 C   0  0  0  0  0  0  0  0  0  0  0  0
    8.7964   -2.1089   22.3812 C   0  0  0  0  0  0  0  0  0  0  0  0
    9.8094   -3.0299   24.4243 C   0  0  0  0  0  0  0  0  0  0  0  0
    9.3666   -3.8787   25.4529 C   0  0  0  0  0  0  0  0  0  0  0  0
    8.7207   -2.8934   23.5380 C   0  0  0  0  0  0  0  0  0  0  0  0
   11.0910   -1.5704   22.9811 C   0  0  0  0  0  0  0  0  0  0  0  0
   10.0016   -1.4503   22.1198 C   0  0  0  0  0  0  0  0  0  0  0  0
    8.0772   -4.2236   25.1807 C   0  0  0  0  0  0  0  0  0  0  0  0
    6.2343   -5.5281   26.0398 C   0  0  0  0  0  0  0  0  0  0  0  0
    9.8375   -4.5067   26.7119 C   0  0  0  0  0  0  0  0  0  0  0  0
    8.5679   -5.3187   27.1672 C   0  0  0  0  0  0  0  0  0  0  0  0
    5.2761   -4.5954   25.3423 C   0  0  0  0  0  0  0  0  0  0  0  0
   13.2191   -1.6197   21.9206 C   0  0  0  0  0  0  0  0  0  0  0  0
    7.6622   -3.6449   24.0346 N   0  0  0  0  0  0  0  0  0  0  0  0
    7.5276   -5.0574   26.1199 N   0  0  0  0  0  0  0  0  0  0  0  0
    5.8375   -6.6072   26.4809 O   0  0  0  0  0  0  0  0  0  0  0  0
   10.0986   -0.6801   20.9968 O   0  0  0  0  0  0  0  0  0  0  0  0
   12.2584   -0.9196   22.7069 O   0  0  0  0  0  0  0  0  0  0  0  0
   11.8651   -2.4440   24.8021 H   0  0  0  0  0  0  0  0  0  0  0  0
    7.9479   -2.0155   21.7108 H   0  0  0  0  0  0  0  0  0  0  0  0
   10.6838   -5.1768   26.5347 H   0  0  0  0  0  0  0  0  0  0  0  0
   10.1068   -3.7553   27.4599 H   0  0  0  0  0  0  0  0  0  0  0  0
    8.7674   -6.3942   27.2134 H   0  0  0  0  0  0  0  0  0  0  0  0
    8.1931   -4.9779   28.1376 H   0  0  0  0  0  0  0  0  0  0  0  0
    5.2688   -4.8227   24.2815 H   0  0  0  0  0  0  0  0  0  0  0  0
    5.5988   -3.5713   25.5001 H   0  0  0  0  0  0  0  0  0  0  0  0
    4.2828   -4.7312   25.7578 H   0  0  0  0  0  0  0  0  0  0  0  0
   14.1008   -0.9906   21.7759 H   0  0  0  0  0  0  0  0  0  0  0  0
   12.7806   -1.8788   20.9536 H   0  0  0  0  0  0  0  0  0  0  0  0
   13.5085   -2.5340   22.4440 H   0  0  0  0  0  0  0  0  0  0  0  0
    6.7517   -3.7337   23.6035 H   0  0  0  0  0  0  0  0  0  0  0  0
    9.2626   -0.7002   20.5069 H   0  0  0  0  0  0  0  0  0  0  0  0
  1  3  2  0  0  0  0
  1  6  1  0  0  0  0
  2  5  2  0  0  0  0
  2  7  1  0  0  0  0
  3  4  1  0  0  0  0
  3  5  1  0  0  0  0
  4  8  2  0  0  0  0
  4 10  1  0  0  0  0
  5 14  1  0  0  0  0
  6  7  2  0  0  0  0
  6 18  1  0  0  0  0
  7 17  1  0  0  0  0
  8 14  1  0  0  0  0
  8 15  1  0  0  0  0
  9 12  1  0  0  0  0
  9 15  1  0  0  0  0
  9 16  2  0  0  0  0
 10 11  1  0  0  0  0
 11 15  1  0  0  0  0
 13 18  1  0  0  0  0
  1 19  1  0  0  0  0
  2 20  1  0  0  0  0
 10 21  1  0  0  0  0
 10 22  1  0  0  0  0
 11 23  1  0  0  0  0
 11 24  1  0  0  0  0
 12 25  1  0  0  0  0
 12 26  1  0  0  0  0
 12 27  1  0  0  0  0
 13 28  1  0  0  0  0
 13 29  1  0  0  0  0
 13 30  1  0  0  0  0
 14 31  1  0  0  0  0
 17 32  1  0  0  0  0
M  END
> <Chemgauss4 Score>
-6.77653551101685

> <Number of Confs>
4

$$$$
BAR-COM-21d-7
  -OEChem-03242005443D

 44 46  0     0  0  0  0  0  0999 V2000
    8.6627   -4.6351   27.6820 C   0  0  0  0  0  0  0  0  0  0  0  0
   13.0469   -1.8341   23.7733 C   0  0  0  0  0  0  0  0  0  0  0  0
    5.8839    1.0905   17.9471 C   0  0  0  0  0  0  0  0  0  0  0  0
   12.3867   -2.7364   24.6072 C   0  0  0  0  0  0  0  0  0  0  0  0
   12.3556   -1.2097   22.7351 C   0  0  0  0  0  0  0  0  0  0  0  0
    7.1136    0.6017   18.3740 C   0  0  0  0  0  0  0  0  0  0  0  0
   10.3439   -2.3902   23.3646 C   0  0  0  0  0  0  0  0  0  0  0  0
    4.9998    1.5513   18.9093 C   0  0  0  0  0  0  0  0  0  0  0  0
    6.4646    1.0723   20.6131 C   0  0  0  0  0  0  0  0  0  0  0  0
   11.0352   -3.0146   24.4029 C   0  0  0  0  0  0  0  0  0  0  0  0
   11.0041   -1.4878   22.5307 C   0  0  0  0  0  0  0  0  0  0  0  0
    7.4173    0.5888   19.7308 C   0  0  0  0  0  0  0  0  0  0  0  0
    8.9400   -0.5207   21.4247 C   0  0  0  0  0  0  0  0  0  0  0  0
    6.5132   -6.0897   26.2241 C   0  0  0  0  0  0  0  0  0  0  0  0
    6.5603   -4.5499   26.2708 C   0  0  0  0  0  0  0  0  0  0  0  0
    7.9659   -6.0649   25.7101 C   0  0  0  0  0  0  0  0  0  0  0  0
    8.1152   -4.6437   26.3330 C   0  0  0  0  0  0  0  0  0  0  0  0
   10.3220   -3.9902   25.3047 C   0  0  0  0  0  0  0  0  0  0  0  0
    8.8395   -3.6420   25.4424 C   0  0  0  0  0  0  0  0  0  0  0  0
    9.0989   -4.6283   28.7571 N   0  0  0  0  0  0  0  0  0  0  0  0
    5.2594    1.5549   20.2360 N   0  0  0  0  0  0  0  0  0  0  0  0
   10.3127   -0.8626   21.4925 N   0  0  0  0  0  0  0  0  0  0  0  0
    8.6601    0.0974   20.1954 N   0  0  0  0  0  0  0  0  0  0  0  0
    8.1218   -0.7361   22.3131 O   0  0  0  0  0  0  0  0  0  0  0  0
   14.0991   -1.6171   23.9327 H   0  0  0  0  0  0  0  0  0  0  0  0
    5.6257    1.1101   16.8945 H   0  0  0  0  0  0  0  0  0  0  0  0
   12.9338   -3.2183   25.4128 H   0  0  0  0  0  0  0  0  0  0  0  0
   12.8803   -0.5082   22.0913 H   0  0  0  0  0  0  0  0  0  0  0  0
    7.8271    0.2335   17.6415 H   0  0  0  0  0  0  0  0  0  0  0  0
    9.2901   -2.6093   23.2067 H   0  0  0  0  0  0  0  0  0  0  0  0
    4.0273    1.9418   18.6279 H   0  0  0  0  0  0  0  0  0  0  0  0
    6.6437    1.0884   21.6841 H   0  0  0  0  0  0  0  0  0  0  0  0
    6.4009   -6.5581   27.2085 H   0  0  0  0  0  0  0  0  0  0  0  0
    5.7766   -6.5201   25.5408 H   0  0  0  0  0  0  0  0  0  0  0  0
    6.1705   -4.0793   25.3596 H   0  0  0  0  0  0  0  0  0  0  0  0
    6.0590   -4.0947   27.1306 H   0  0  0  0  0  0  0  0  0  0  0  0
    8.6150   -6.8496   26.1109 H   0  0  0  0  0  0  0  0  0  0  0  0
    8.0358   -6.0898   24.6155 H   0  0  0  0  0  0  0  0  0  0  0  0
   10.4307   -5.0083   24.9088 H   0  0  0  0  0  0  0  0  0  0  0  0
   10.7970   -3.9960   26.2943 H   0  0  0  0  0  0  0  0  0  0  0  0
    8.7231   -2.6387   25.8674 H   0  0  0  0  0  0  0  0  0  0  0  0
    8.3592   -3.6290   24.4576 H   0  0  0  0  0  0  0  0  0  0  0  0
   10.8730   -0.6181   20.6692 H   0  0  0  0  0  0  0  0  0  0  0  0
    9.4425    0.2081   19.5553 H   0  0  0  0  0  0  0  0  0  0  0  0
  1 17  1  0  0  0  0
  1 20  3  0  0  0  0
  2  4  2  0  0  0  0
  2  5  1  0  0  0  0
  3  6  2  0  0  0  0
  3  8  1  0  0  0  0
  4 10  1  0  0  0  0
  5 11  2  0  0  0  0
  6 12  1  0  0  0  0
  7 10  2  0  0  0  0
  7 11  1  0  0  0  0
  8 21  2  0  0  0  0
  9 12  2  0  0  0  0
  9 21  1  0  0  0  0
 10 18  1  0  0  0  0
 11 22  1  0  0  0  0
 12 23  1  0  0  0  0
 13 22  1  0  0  0  0
 13 23  1  0  0  0  0
 13 24  2  0  0  0  0
 14 15  1  0  0  0  0
 14 16  1  0  0  0  0
 15 17  1  0  0  0  0
 16 17  1  0  0  0  0
 17 19  1  0  0  0  0
 18 19  1  0  0  0  0
  2 25  1  0  0  0  0
  3 26  1  0  0  0  0
  4 27  1  0  0  0  0
  5 28  1  0  0  0  0
  6 29  1  0  0  0  0
  7 30  1  0  0  0  0
  8 31  1  0  0  0  0
  9 32  1  0  0  0  0
 14 33  1  0  0  0  0
 14 34  1  0  0  0  0
 15 35  1  0  0  0  0
 15 36  1  0  0  0  0
 16 37  1  0  0  0  0
 16 38  1  0  0  0  0
 18 39  1  0  0  0  0
 18 40  1  0  0  0  0
 19 41  1  0  0  0  0
 19 42  1  0  0  0  0
 22 43  1  0  0  0  0
 23 44  1  0  0  0  0
M  END
> <Chemgauss4 Score>
-6.75093030929565

> <Number of Confs>
136

$$$$
DAR-DIA-842-17
  -OEChem-03242005443D

 29 31  0     0  0  0  0  0  0999 V2000
   11.4613    0.1277   23.0044 C   0  0  0  0  0  0  0  0  0  0  0  0
   11.0935   -0.2652   24.2900 C   0  0  0  0  0  0  0  0  0  0  0  0
    5.7498   -5.8608   25.0206 C   0  0  0  0  0  0  0  0  0  0  0  0
    4.5548   -5.8733   24.2447 C   0  0  0  0  0  0  0  0  0  0  0  0
   10.5422   -2.4348   25.6446 C   0  0  0  0  0  0  0  0  0  0  0  0
   11.6219   -0.8467   22.0286 C   0  0  0  0  0  0  0  0  0  0  0  0
   10.9044   -1.6362   24.5277 C   0  0  0  0  0  0  0  0  0  0  0  0
   10.5266   -3.7489   25.2294 C   0  0  0  0  0  0  0  0  0  0  0  0
   11.0992   -2.5046   23.4576 C   0  0  0  0  0  0  0  0  0  0  0  0
    6.7988   -5.2759   24.3459 C   0  0  0  0  0  0  0  0  0  0  0  0
    4.7360   -5.2972   23.0064 C   0  0  0  0  0  0  0  0  0  0  0  0
    8.7437   -5.3972   25.9420 C   0  0  0  0  0  0  0  0  0  0  0  0
   10.2210   -4.9876   25.9698 C   0  0  0  0  0  0  0  0  0  0  0  0
   11.4537   -2.1786   22.2002 N   0  0  0  0  0  0  0  0  0  0  0  0
   10.8662   -3.7795   23.9017 N   0  0  0  0  0  0  0  0  0  0  0  0
    8.1422   -5.0567   24.7330 N   0  0  0  0  0  0  0  0  0  0  0  0
    8.2192   -5.9519   26.9024 O   0  0  0  0  0  0  0  0  0  0  0  0
    6.3414   -4.7448   22.7835 S   0  0  0  0  0  0  0  0  0  0  0  0
    3.5761   -5.1008   21.7604 Cl  0  0  0  0  0  0  0  0  0  0  0  0
   11.6192    1.1755   22.7728 H   0  0  0  0  0  0  0  0  0  0  0  0
   10.9607    0.4702   25.0771 H   0  0  0  0  0  0  0  0  0  0  0  0
    5.8306   -6.2622   26.0231 H   0  0  0  0  0  0  0  0  0  0  0  0
    3.6128   -6.2858   24.5838 H   0  0  0  0  0  0  0  0  0  0  0  0
   10.3180   -2.0879   26.6444 H   0  0  0  0  0  0  0  0  0  0  0  0
   11.9088   -0.5581   21.0207 H   0  0  0  0  0  0  0  0  0  0  0  0
   10.8061   -5.8428   25.5765 H   0  0  0  0  0  0  0  0  0  0  0  0
   10.5186   -4.8992   27.0337 H   0  0  0  0  0  0  0  0  0  0  0  0
   10.9349   -4.6128   23.3337 H   0  0  0  0  0  0  0  0  0  0  0  0
    8.7383   -4.5966   24.0480 H   0  0  0  0  0  0  0  0  0  0  0  0
  1  2  2  0  0  0  0
  1  6  1  0  0  0  0
  2  7  1  0  0  0  0
  3  4  1  0  0  0  0
  3 10  2  0  0  0  0
  4 11  2  0  0  0  0
  5  7  1  0  0  0  0
  5  8  2  0  0  0  0
  6 14  2  0  0  0  0
  7  9  2  0  0  0  0
  8 13  1  0  0  0  0
  8 15  1  0  0  0  0
  9 14  1  0  0  0  0
  9 15  1  0  0  0  0
 10 16  1  0  0  0  0
 10 18  1  0  0  0  0
 11 18  1  0  0  0  0
 11 19  1  0  0  0  0
 12 13  1  0  0  0  0
 12 16  1  0  0  0  0
 12 17  2  0  0  0  0
  1 20  1  0  0  0  0
  2 21  1  0  0  0  0
  3 22  1  0  0  0  0
  4 23  1  0  0  0  0
  5 24  1  0  0  0  0
  6 25  1  0  0  0  0
 13 26  1  0  0  0  0
 13 27  1  0  0  0  0
 15 28  1  0  0  0  0
 16 29  1  0  0  0  0
M  END
> <Chemgauss4 Score>
-6.73379421234131

> <Number of Confs>
58

$$$$
DAR-DIA-43a-2
  -OEChem-03242005443D

 39 41  0     1  0  0  0  0  0999 V2000
    5.3661   -4.8484   26.3469 C   0  0  0  0  0  0  0  0  0  0  0  0
   13.6131   -1.1855   22.0637 C   0  0  0  0  0  0  0  0  0  0  0  0
    6.4958   -4.1169   26.7135 C   0  0  0  0  0  0  0  0  0  0  0  0
   12.2450   -1.2295   22.3079 C   0  0  0  0  0  0  0  0  0  0  0  0
    5.2085   -5.2738   25.0278 C   0  0  0  0  0  0  0  0  0  0  0  0
    7.3100   -4.2359   24.4419 C   0  0  0  0  0  0  0  0  0  0  0  0
   14.4021   -0.4409   22.9256 C   0  0  0  0  0  0  0  0  0  0  0  0
   12.5892    0.1780   24.1939 C   0  0  0  0  0  0  0  0  0  0  0  0
    7.4677   -3.8106   25.7610 C   0  0  0  0  0  0  0  0  0  0  0  0
   11.7152   -0.5374   23.3913 C   0  0  0  0  0  0  0  0  0  0  0  0
    6.1804   -4.9675   24.0753 C   0  0  0  0  0  0  0  0  0  0  0  0
    8.8055   -1.7050   25.4286 C   0  0  0  0  0  0  0  0  0  0  0  0
    9.8452   -1.6794   24.5853 C   0  0  0  0  0  0  0  0  0  0  0  0
   10.0670   -5.1486   25.7456 C   0  0  0  0  0  0  0  0  0  0  0  0
   10.6124   -2.9646   24.6087 C   0  0  0  0  0  0  0  0  0  0  0  0
    8.6950   -3.0156   26.1601 C   0  0  2  0  0  0  0  0  0  0  0  0
   10.0732   -3.6554   25.8672 C   0  0  1  0  0  0  0  0  0  0  0  0
   10.2356   -0.5658   23.6832 C   0  0  0  0  0  0  0  0  0  0  0  0
   13.9237    0.2444   23.9882 N   0  0  0  0  0  0  0  0  0  0  0  0
    9.5966   -5.7942   26.8646 N   0  0  0  0  0  0  0  0  0  0  0  0
   10.4367   -5.7219   24.7238 O   0  0  0  0  0  0  0  0  0  0  0  0
    5.9660   -5.5440   22.2882 Br  0  0  0  0  0  0  0  0  0  0  0  0
    4.6094   -5.0868   27.0886 H   0  0  0  0  0  0  0  0  0  0  0  0
   14.0481   -1.7174   21.2253 H   0  0  0  0  0  0  0  0  0  0  0  0
    6.6101   -3.7898   27.7435 H   0  0  0  0  0  0  0  0  0  0  0  0
   11.6000   -1.8052   21.6497 H   0  0  0  0  0  0  0  0  0  0  0  0
    4.3223   -5.8429   24.7588 H   0  0  0  0  0  0  0  0  0  0  0  0
    8.0721   -3.9933   23.7047 H   0  0  0  0  0  0  0  0  0  0  0  0
   15.4750   -0.3746   22.7778 H   0  0  0  0  0  0  0  0  0  0  0  0
   12.2338    0.7376   25.0536 H   0  0  0  0  0  0  0  0  0  0  0  0
    8.1437   -0.8631   25.6021 H   0  0  0  0  0  0  0  0  0  0  0  0
   10.4425   -3.5529   23.7015 H   0  0  0  0  0  0  0  0  0  0  0  0
   11.6834   -2.7558   24.7016 H   0  0  0  0  0  0  0  0  0  0  0  0
    8.6036   -2.7933   27.2346 H   0  0  0  0  0  0  0  0  0  0  0  0
   10.7653   -3.4351   26.7401 H   0  0  0  0  0  0  0  0  0  0  0  0
    9.9376    0.3932   24.1290 H   0  0  0  0  0  0  0  0  0  0  0  0
    9.6731   -0.6410   22.7429 H   0  0  0  0  0  0  0  0  0  0  0  0
    9.2998   -5.2374   27.6593 H   0  0  0  0  0  0  0  0  0  0  0  0
    9.5344   -6.8051   26.9278 H   0  0  0  0  0  0  0  0  0  0  0  0
  1  3  2  0  0  0  0
  1  5  1  0  0  0  0
  2  4  2  0  0  0  0
  2  7  1  0  0  0  0
  3  9  1  0  0  0  0
  4 10  1  0  0  0  0
  5 11  2  0  0  0  0
  6  9  2  0  0  0  0
  6 11  1  0  0  0  0
  7 19  2  0  0  0  0
  8 10  2  0  0  0  0
  8 19  1  0  0  0  0
  9 16  1  0  0  0  0
 10 18  1  0  0  0  0
 11 22  1  0  0  0  0
 12 13  2  0  0  0  0
 12 16  1  0  0  0  0
 13 15  1  0  0  0  0
 13 18  1  0  0  0  0
 14 17  1  0  0  0  0
 14 20  1  0  0  0  0
 14 21  2  0  0  0  0
 15 17  1  0  0  0  0
 16 17  1  0  0  0  0
  1 23  1  0  0  0  0
  2 24  1  0  0  0  0
  3 25  1  0  0  0  0
  4 26  1  0  0  0  0
  5 27  1  0  0  0  0
  6 28  1  0  0  0  0
  7 29  1  0  0  0  0
  8 30  1  0  0  0  0
 12 31  1  0  0  0  0
 15 32  1  0  0  0  0
 15 33  1  0  0  0  0
 16 34  1  6  0  0  0
 17 35  1  1  0  0  0
 18 36  1  0  0  0  0
 18 37  1  0  0  0  0
 20 38  1  0  0  0  0
 20 39  1  0  0  0  0
M  END
> <Chemgauss4 Score>
-6.71505546569824

> <Number of Confs>
200

$$$$
SAL-INS-1c7-3
  -OEChem-03242005443D

 49 51  0     1  0  0  0  0  0999 V2000
   11.2065   -1.8876   25.3899 C   0  0  0  0  0  0  0  0  0  0  0  0
   10.8290   -3.0644   26.0350 C   0  0  0  0  0  0  0  0  0  0  0  0
    9.5463   -2.2928   23.6867 C   0  0  0  0  0  0  0  0  0  0  0  0
    8.6863   -3.8278   28.3622 C   0  0  0  0  0  0  0  0  0  0  0  0
    7.2168   -5.3151   29.0587 C   0  0  0  0  0  0  0  0  0  0  0  0
   10.5666   -1.5029   24.2154 C   0  0  0  0  0  0  0  0  0  0  0  0
    9.8049   -3.8701   25.5109 C   0  0  0  0  0  0  0  0  0  0  0  0
    9.1515   -3.4764   24.3289 C   0  0  0  0  0  0  0  0  0  0  0  0
    8.6201   -4.9059   27.5115 C   0  0  0  0  0  0  0  0  0  0  0  0
   10.9617   -0.2773   23.5396 C   0  0  0  0  0  0  0  0  0  0  0  0
    6.3307   -5.9862   24.5201 C   0  0  0  0  0  0  0  0  0  0  0  0
    8.0417   -4.2978   23.7196 C   0  0  0  0  0  0  0  0  0  0  0  0
    8.6746   -6.1145   25.2892 C   0  0  0  0  0  0  0  0  0  0  0  0
    9.4083   -5.1459   26.2309 C   0  0  1  0  0  0  0  0  0  0  0  0
   14.1406   -1.4364   22.5213 C   0  0  0  0  0  0  0  0  0  0  0  0
   12.4050   -1.8885   20.7524 C   0  0  0  0  0  0  0  0  0  0  0  0
   12.4143    0.8474   21.8348 C   0  0  0  0  0  0  0  0  0  0  0  0
    5.3342   -5.3263   23.5996 C   0  0  0  0  0  0  0  0  0  0  0  0
   12.6556   -1.5798   22.2212 C   0  0  0  0  0  0  0  0  0  0  0  0
    7.7033   -5.8281   27.9505 N   0  0  0  0  0  0  0  0  0  0  0  0
    7.7815   -4.1040   29.3482 N   0  0  0  0  0  0  0  0  0  0  0  0
    7.6171   -5.4419   24.5361 N   0  0  0  0  0  0  0  0  0  0  0  0
   11.9753   -0.3332   22.5654 N   0  0  0  0  0  0  0  0  0  0  0  0
   10.3626    0.7583   23.8587 O   0  0  0  0  0  0  0  0  0  0  0  0
    5.9752   -6.9474   25.2066 O   0  0  0  0  0  0  0  0  0  0  0  0
    4.5196   -4.0865   24.5462 Cl  0  0  0  0  0  0  0  0  0  0  0  0
   12.0030   -1.2801   25.8117 H   0  0  0  0  0  0  0  0  0  0  0  0
   11.3419   -3.3532   26.9493 H   0  0  0  0  0  0  0  0  0  0  0  0
    9.0479   -1.9883   22.7684 H   0  0  0  0  0  0  0  0  0  0  0  0
    9.2721   -2.9198   28.3590 H   0  0  0  0  0  0  0  0  0  0  0  0
    6.4636   -5.7635   29.6910 H   0  0  0  0  0  0  0  0  0  0  0  0
    7.1872   -3.6424   23.5298 H   0  0  0  0  0  0  0  0  0  0  0  0
    8.3821   -4.7073   22.7611 H   0  0  0  0  0  0  0  0  0  0  0  0
    9.3746   -6.5236   24.5490 H   0  0  0  0  0  0  0  0  0  0  0  0
    8.2719   -6.9624   25.8545 H   0  0  0  0  0  0  0  0  0  0  0  0
   10.3665   -5.7038   26.5354 H   0  0  0  0  0  0  0  0  0  0  0  0
   14.5863   -0.6422   21.9136 H   0  0  0  0  0  0  0  0  0  0  0  0
   14.3141   -1.1970   23.5765 H   0  0  0  0  0  0  0  0  0  0  0  0
   14.6728   -2.3690   22.3038 H   0  0  0  0  0  0  0  0  0  0  0  0
   12.8212   -1.1017   20.1138 H   0  0  0  0  0  0  0  0  0  0  0  0
   11.3319   -1.9599   20.5465 H   0  0  0  0  0  0  0  0  0  0  0  0
   12.8728   -2.8342   20.4565 H   0  0  0  0  0  0  0  0  0  0  0  0
   13.2371    1.3321   22.3807 H   0  0  0  0  0  0  0  0  0  0  0  0
   12.7627    0.5509   20.8345 H   0  0  0  0  0  0  0  0  0  0  0  0
   11.5746    1.5512   21.7370 H   0  0  0  0  0  0  0  0  0  0  0  0
    4.6199   -6.0697   23.2657 H   0  0  0  0  0  0  0  0  0  0  0  0
    5.8679   -4.8734   22.7724 H   0  0  0  0  0  0  0  0  0  0  0  0
   12.2315   -2.3785   22.8394 H   0  0  0  0  0  0  0  0  0  0  0  0
    7.5690   -3.5204   30.1463 H   0  0  0  0  0  0  0  0  0  0  0  0
  1  2  2  0  0  0  0
  1  6  1  0  0  0  0
  2  7  1  0  0  0  0
  3  6  2  0  0  0  0
  3  8  1  0  0  0  0
  4  9  2  0  0  0  0
  4 21  1  0  0  0  0
  5 20  2  0  0  0  0
  5 21  1  0  0  0  0
  6 10  1  0  0  0  0
  7  8  2  0  0  0  0
  7 14  1  0  0  0  0
  8 12  1  0  0  0  0
  9 14  1  6  0  0  0
  9 20  1  0  0  0  0
 10 23  1  0  0  0  0
 10 24  2  0  0  0  0
 11 18  1  0  0  0  0
 11 22  1  0  0  0  0
 11 25  2  0  0  0  0
 12 22  1  0  0  0  0
 13 14  1  0  0  0  0
 13 22  1  0  0  0  0
 15 19  1  0  0  0  0
 16 19  1  0  0  0  0
 17 23  1  0  0  0  0
 18 26  1  0  0  0  0
 19 23  1  0  0  0  0
  1 27  1  0  0  0  0
  2 28  1  0  0  0  0
  3 29  1  0  0  0  0
  4 30  1  0  0  0  0
  5 31  1  0  0  0  0
 12 32  1  0  0  0  0
 12 33  1  0  0  0  0
 13 34  1  0  0  0  0
 13 35  1  0  0  0  0
 14 36  1  0  0  0  0
 15 37  1  0  0  0  0
 15 38  1  0  0  0  0
 15 39  1  0  0  0  0
 16 40  1  0  0  0  0
 16 41  1  0  0  0  0
 16 42  1  0  0  0  0
 17 43  1  0  0  0  0
 17 44  1  0  0  0  0
 17 45  1  0  0  0  0
 18 46  1  0  0  0  0
 18 47  1  0  0  0  0
 19 48  1  0  0  0  0
 21 49  1  0  0  0  0
M  END
> <Chemgauss4 Score>
-6.71249341964722

> <Number of Confs>
200

$$$$
CHR-SOS-6c4-5
  -OEChem-03242005443D

 44 46  0     0  0  0  0  0  0999 V2000
   10.0993   -2.5974   24.1157 C   0  0  0  0  0  0  0  0  0  0  0  0
   10.5770   -1.9167   23.2491 C   0  0  0  0  0  0  0  0  0  0  0  0
    9.6921   -5.1662   26.7796 C   0  0  0  0  0  0  0  0  0  0  0  0
   10.2748   -4.3953   25.7799 C   0  0  0  0  0  0  0  0  0  0  0  0
    4.9871    1.3592   19.0038 C   0  0  0  0  0  0  0  0  0  0  0  0
    8.3701   -4.9119   27.1072 C   0  0  0  0  0  0  0  0  0  0  0  0
    4.4787    1.8976   20.1749 C   0  0  0  0  0  0  0  0  0  0  0  0
    8.2134   -3.2321   25.5479 C   0  0  0  0  0  0  0  0  0  0  0  0
    6.3161    1.2330   21.3835 C   0  0  0  0  0  0  0  0  0  0  0  0
    9.5281   -3.4075   25.1473 C   0  0  0  0  0  0  0  0  0  0  0  0
    6.2267    0.7320   19.0603 C   0  0  0  0  0  0  0  0  0  0  0  0
    6.9105    0.6633   20.2690 C   0  0  0  0  0  0  0  0  0  0  0  0
    8.9662   -0.1041   21.5203 C   0  0  0  0  0  0  0  0  0  0  0  0
   13.1574   -0.2195   23.2709 C   0  0  0  0  0  0  0  0  0  0  0  0
   13.5382   -1.4796   22.4946 C   0  0  0  0  0  0  0  0  0  0  0  0
   11.7802    0.1977   22.7571 C   0  0  0  0  0  0  0  0  0  0  0  0
   12.3751   -1.7623   21.5450 C   0  0  0  0  0  0  0  0  0  0  0  0
   11.1621   -1.0815   22.1856 C   0  0  0  0  0  0  0  0  0  0  0  0
    6.7983    0.1422   17.8128 C   0  0  0  0  0  0  0  0  0  0  0  0
    7.6130   -3.9613   26.5150 N   0  0  0  0  0  0  0  0  0  0  0  0
    5.1135    1.8505   21.3676 N   0  0  0  0  0  0  0  0  0  0  0  0
    8.1738    0.0366   20.3776 N   0  0  0  0  0  0  0  0  0  0  0  0
   10.1450   -0.7859   21.2085 N   0  0  0  0  0  0  0  0  0  0  0  0
    8.7001    0.2984   22.6503 O   0  0  0  0  0  0  0  0  0  0  0  0
   10.2541   -5.9424   27.2863 H   0  0  0  0  0  0  0  0  0  0  0  0
   11.3110   -4.5751   25.5048 H   0  0  0  0  0  0  0  0  0  0  0  0
    4.4281    1.4294   18.0769 H   0  0  0  0  0  0  0  0  0  0  0  0
    7.8701   -5.4854   27.8805 H   0  0  0  0  0  0  0  0  0  0  0  0
    3.5156    2.3972   20.1842 H   0  0  0  0  0  0  0  0  0  0  0  0
    7.5766   -2.4783   25.0932 H   0  0  0  0  0  0  0  0  0  0  0  0
    6.8006    1.2121   22.3552 H   0  0  0  0  0  0  0  0  0  0  0  0
   13.1404   -0.3966   24.3514 H   0  0  0  0  0  0  0  0  0  0  0  0
   13.8924    0.5715   23.0809 H   0  0  0  0  0  0  0  0  0  0  0  0
   14.4612   -1.3053   21.9296 H   0  0  0  0  0  0  0  0  0  0  0  0
   13.7201   -2.3283   23.1620 H   0  0  0  0  0  0  0  0  0  0  0  0
   11.1821    0.5776   23.5983 H   0  0  0  0  0  0  0  0  0  0  0  0
   11.8433    1.0126   22.0246 H   0  0  0  0  0  0  0  0  0  0  0  0
   12.5802   -1.4104   20.5263 H   0  0  0  0  0  0  0  0  0  0  0  0
   12.2219   -2.8492   21.4770 H   0  0  0  0  0  0  0  0  0  0  0  0
    7.4056    0.8863   17.2846 H   0  0  0  0  0  0  0  0  0  0  0  0
    7.4282   -0.7272   18.0379 H   0  0  0  0  0  0  0  0  0  0  0  0
    6.0051   -0.2041   17.1387 H   0  0  0  0  0  0  0  0  0  0  0  0
    8.5461   -0.3584   19.5176 H   0  0  0  0  0  0  0  0  0  0  0  0
   10.2916   -1.0864   20.2514 H   0  0  0  0  0  0  0  0  0  0  0  0
  1  2  3  0  0  0  0
  1 10  1  0  0  0  0
  2 18  1  0  0  0  0
  3  4  2  0  0  0  0
  3  6  1  0  0  0  0
  4 10  1  0  0  0  0
  5  7  2  0  0  0  0
  5 11  1  0  0  0  0
  6 20  2  0  0  0  0
  7 21  1  0  0  0  0
  8 10  2  0  0  0  0
  8 20  1  0  0  0  0
  9 12  1  0  0  0  0
  9 21  2  0  0  0  0
 11 12  2  0  0  0  0
 11 19  1  0  0  0  0
 12 22  1  0  0  0  0
 13 22  1  0  0  0  0
 13 23  1  0  0  0  0
 13 24  2  0  0  0  0
 14 15  1  0  0  0  0
 14 16  1  0  0  0  0
 15 17  1  0  0  0  0
 16 18  1  0  0  0  0
 17 18  1  0  0  0  0
 18 23  1  0  0  0  0
  3 25  1  0  0  0  0
  4 26  1  0  0  0  0
  5 27  1  0  0  0  0
  6 28  1  0  0  0  0
  7 29  1  0  0  0  0
  8 30  1  0  0  0  0
  9 31  1  0  0  0  0
 14 32  1  0  0  0  0
 14 33  1  0  0  0  0
 15 34  1  0  0  0  0
 15 35  1  0  0  0  0
 16 36  1  0  0  0  0
 16 37  1  0  0  0  0
 17 38  1  0  0  0  0
 17 39  1  0  0  0  0
 19 40  1  0  0  0  0
 19 41  1  0  0  0  0
 19 42  1  0  0  0  0
 22 43  1  0  0  0  0
 23 44  1  0  0  0  0
M  END
> <Chemgauss4 Score>
-6.65015077590942

> <Number of Confs>
7

$$$$
CHR-SOS-709-19
  -OEChem-03242005443D

 41 43  0     0  0  0  0  0  0999 V2000
    6.0093    1.4457   18.3126 C   0  0  0  0  0  0  0  0  0  0  0  0
    6.9689    1.0974   19.2566 C   0  0  0  0  0  0  0  0  0  0  0  0
    8.4202   -4.2642   24.6163 C   0  0  0  0  0  0  0  0  0  0  0  0
   10.4746   -4.2660   25.8878 C   0  0  0  0  0  0  0  0  0  0  0  0
    7.7017   -4.5516   25.7768 C   0  0  0  0  0  0  0  0  0  0  0  0
    9.7561   -4.5534   27.0483 C   0  0  0  0  0  0  0  0  0  0  0  0
    9.7897   -1.8528   22.4090 C   0  0  0  0  0  0  0  0  0  0  0  0
   11.1193    0.1585   22.5624 C   0  0  0  0  0  0  0  0  0  0  0  0
   11.8439   -1.8568   23.6806 C   0  0  0  0  0  0  0  0  0  0  0  0
    5.4406    0.4302   17.5608 C   0  0  0  0  0  0  0  0  0  0  0  0
    6.6976   -1.1771   18.6166 C   0  0  0  0  0  0  0  0  0  0  0  0
    9.9913   -0.5106   22.0874 C   0  0  0  0  0  0  0  0  0  0  0  0
    7.3253   -0.2369   19.4177 C   0  0  0  0  0  0  0  0  0  0  0  0
    9.8066   -4.1215   24.6718 C   0  0  0  0  0  0  0  0  0  0  0  0
   10.7160   -2.5259   23.2057 C   0  0  0  0  0  0  0  0  0  0  0  0
    8.3696   -4.6962   26.9928 C   0  0  0  0  0  0  0  0  0  0  0  0
   12.0456   -0.5146   23.3590 C   0  0  0  0  0  0  0  0  0  0  0  0
    9.0266    0.1908   21.2552 C   0  0  0  0  0  0  0  0  0  0  0  0
    5.7611   -0.8768   17.6889 N   0  0  0  0  0  0  0  0  0  0  0  0
    7.1211   -3.4829   29.0112 N   0  0  0  0  0  0  0  0  0  0  0  0
    8.3005   -0.6229   20.3717 N   0  0  0  0  0  0  0  0  0  0  0  0
    8.8927    1.4212   21.3093 O   0  0  0  0  0  0  0  0  0  0  0  0
    6.2242   -5.7067   28.0648 O   0  0  0  0  0  0  0  0  0  0  0  0
    8.3647   -5.7064   29.3936 O   0  0  0  0  0  0  0  0  0  0  0  0
   10.5200   -3.8357   23.5198 O   0  0  0  0  0  0  0  0  0  0  0  0
    7.4703   -5.0569   28.4456 S   0  0  0  0  0  0  0  0  0  0  0  0
   13.4366    0.3107   23.9466 Cl  0  0  0  0  0  0  0  0  0  0  0  0
    5.7160    2.4795   18.1699 H   0  0  0  0  0  0  0  0  0  0  0  0
    7.4321    1.8729   19.8609 H   0  0  0  0  0  0  0  0  0  0  0  0
    7.8943   -4.1520   23.6721 H   0  0  0  0  0  0  0  0  0  0  0  0
   11.5544   -4.1560   25.9372 H   0  0  0  0  0  0  0  0  0  0  0  0
    6.6219   -4.6608   25.7222 H   0  0  0  0  0  0  0  0  0  0  0  0
   10.2863   -4.6643   27.9903 H   0  0  0  0  0  0  0  0  0  0  0  0
    8.9111   -2.3781   22.0417 H   0  0  0  0  0  0  0  0  0  0  0  0
   11.2742    1.2051   22.3093 H   0  0  0  0  0  0  0  0  0  0  0  0
   12.5612   -2.3893   24.3010 H   0  0  0  0  0  0  0  0  0  0  0  0
    4.6880    0.6499   16.8107 H   0  0  0  0  0  0  0  0  0  0  0  0
    6.9333   -2.2341   18.6960 H   0  0  0  0  0  0  0  0  0  0  0  0
    6.1515   -3.1502   28.9422 H   0  0  0  0  0  0  0  0  0  0  0  0
    7.6154   -3.1508   29.8482 H   0  0  0  0  0  0  0  0  0  0  0  0
    8.4998   -1.6189   20.4225 H   0  0  0  0  0  0  0  0  0  0  0  0
  1  2  2  0  0  0  0
  1 10  1  0  0  0  0
  2 13  1  0  0  0  0
  3  5  2  0  0  0  0
  3 14  1  0  0  0  0
  4  6  1  0  0  0  0
  4 14  2  0  0  0  0
  5 16  1  0  0  0  0
  6 16  2  0  0  0  0
  7 12  1  0  0  0  0
  7 15  2  0  0  0  0
  8 12  2  0  0  0  0
  8 17  1  0  0  0  0
  9 15  1  0  0  0  0
  9 17  2  0  0  0  0
 10 19  2  0  0  0  0
 11 13  2  0  0  0  0
 11 19  1  0  0  0  0
 12 18  1  0  0  0  0
 13 21  1  0  0  0  0
 14 25  1  0  0  0  0
 15 25  1  0  0  0  0
 16 26  1  0  0  0  0
 17 27  1  0  0  0  0
 18 21  1  0  0  0  0
 18 22  2  0  0  0  0
 20 26  1  0  0  0  0
 23 26  2  0  0  0  0
 24 26  2  0  0  0  0
  1 28  1  0  0  0  0
  2 29  1  0  0  0  0
  3 30  1  0  0  0  0
  4 31  1  0  0  0  0
  5 32  1  0  0  0  0
  6 33  1  0  0  0  0
  7 34  1  0  0  0  0
  8 35  1  0  0  0  0
  9 36  1  0  0  0  0
 10 37  1  0  0  0  0
 11 38  1  0  0  0  0
 20 39  1  0  0  0  0
 20 40  1  0  0  0  0
 21 41  1  0  0  0  0
M  END
> <Chemgauss4 Score>
-6.63887882232666

> <Number of Confs>
200

$$$$
DAR-DIA-43a-1
  -OEChem-03242005443D

 39 41  0     1  0  0  0  0  0999 V2000
    5.4544   -5.7084   26.6120 C   0  0  0  0  0  0  0  0  0  0  0  0
   13.1091   -1.1416   22.1038 C   0  0  0  0  0  0  0  0  0  0  0  0
    6.5196   -4.8747   26.9525 C   0  0  0  0  0  0  0  0  0  0  0  0
   11.7635   -1.3291   22.3997 C   0  0  0  0  0  0  0  0  0  0  0  0
    5.2855   -6.1194   25.2897 C   0  0  0  0  0  0  0  0  0  0  0  0
    7.2469   -4.8629   24.6486 C   0  0  0  0  0  0  0  0  0  0  0  0
   13.8541   -0.3388   22.9525 C   0  0  0  0  0  0  0  0  0  0  0  0
   12.0418    0.0669   24.3050 C   0  0  0  0  0  0  0  0  0  0  0  0
    7.4158   -4.4519   25.9708 C   0  0  0  0  0  0  0  0  0  0  0  0
   11.2119   -0.7167   23.5195 C   0  0  0  0  0  0  0  0  0  0  0  0
    6.1817   -5.6967   24.3081 C   0  0  0  0  0  0  0  0  0  0  0  0
    8.5205   -2.2151   25.6388 C   0  0  0  0  0  0  0  0  0  0  0  0
    9.5168   -2.0669   24.7567 C   0  0  0  0  0  0  0  0  0  0  0  0
   10.1336   -5.5189   25.8216 C   0  0  0  0  0  0  0  0  0  0  0  0
   10.4095   -3.2679   24.7186 C   0  0  0  0  0  0  0  0  0  0  0  0
    8.5724   -3.5449   26.3414 C   0  0  2  0  0  0  0  0  0  0  0  0
    9.9947   -4.0356   25.9796 C   0  0  1  0  0  0  0  0  0  0  0  0
    9.7559   -0.9011   23.8679 C   0  0  0  0  0  0  0  0  0  0  0  0
   13.3533    0.2725   24.0494 N   0  0  0  0  0  0  0  0  0  0  0  0
    9.7768   -6.2317   26.9418 N   0  0  0  0  0  0  0  0  0  0  0  0
   10.5167   -6.0305   24.7724 O   0  0  0  0  0  0  0  0  0  0  0  0
    5.9721   -6.2031   22.6767 Cl  0  0  0  0  0  0  0  0  0  0  0  0
    4.7567   -6.0373   27.3767 H   0  0  0  0  0  0  0  0  0  0  0  0
   13.5606   -1.6092   21.2363 H   0  0  0  0  0  0  0  0  0  0  0  0
    6.6434   -4.5593   27.9852 H   0  0  0  0  0  0  0  0  0  0  0  0
   11.1531   -1.9535   21.7530 H   0  0  0  0  0  0  0  0  0  0  0  0
    4.4506   -6.7691   25.0388 H   0  0  0  0  0  0  0  0  0  0  0  0
    7.9487   -4.5309   23.8869 H   0  0  0  0  0  0  0  0  0  0  0  0
   14.9079   -0.1609   22.7649 H   0  0  0  0  0  0  0  0  0  0  0  0
   11.6676    0.5697   25.1914 H   0  0  0  0  0  0  0  0  0  0  0  0
    7.7851   -1.4484   25.8585 H   0  0  0  0  0  0  0  0  0  0  0  0
   10.2625   -3.8515   23.8045 H   0  0  0  0  0  0  0  0  0  0  0  0
   11.4571   -2.9535   24.7750 H   0  0  0  0  0  0  0  0  0  0  0  0
    8.5033   -3.3553   27.4239 H   0  0  0  0  0  0  0  0  0  0  0  0
   10.6964   -3.7643   26.8302 H   0  0  0  0  0  0  0  0  0  0  0  0
    9.3816    0.0134   24.3484 H   0  0  0  0  0  0  0  0  0  0  0  0
    9.1656   -1.0135   22.9485 H   0  0  0  0  0  0  0  0  0  0  0  0
    9.4584   -5.7245   27.7609 H   0  0  0  0  0  0  0  0  0  0  0  0
    9.8191   -7.2449   26.9823 H   0  0  0  0  0  0  0  0  0  0  0  0
  1  3  2  0  0  0  0
  1  5  1  0  0  0  0
  2  4  2  0  0  0  0
  2  7  1  0  0  0  0
  3  9  1  0  0  0  0
  4 10  1  0  0  0  0
  5 11  2  0  0  0  0
  6  9  2  0  0  0  0
  6 11  1  0  0  0  0
  7 19  2  0  0  0  0
  8 10  2  0  0  0  0
  8 19  1  0  0  0  0
  9 16  1  0  0  0  0
 10 18  1  0  0  0  0
 11 22  1  0  0  0  0
 12 13  2  0  0  0  0
 12 16  1  0  0  0  0
 13 15  1  0  0  0  0
 13 18  1  0  0  0  0
 14 17  1  0  0  0  0
 14 20  1  0  0  0  0
 14 21  2  0  0  0  0
 15 17  1  0  0  0  0
 16 17  1  0  0  0  0
  1 23  1  0  0  0  0
  2 24  1  0  0  0  0
  3 25  1  0  0  0  0
  4 26  1  0  0  0  0
  5 27  1  0  0  0  0
  6 28  1  0  0  0  0
  7 29  1  0  0  0  0
  8 30  1  0  0  0  0
 12 31  1  0  0  0  0
 15 32  1  0  0  0  0
 15 33  1  0  0  0  0
 16 34  1  6  0  0  0
 17 35  1  1  0  0  0
 18 36  1  0  0  0  0
 18 37  1  0  0  0  0
 20 38  1  0  0  0  0
 20 39  1  0  0  0  0
M  END
> <Chemgauss4 Score>
-6.63171863555908

> <Number of Confs>
200

$$$$
ANT-DIA-045-3
  -OEChem-03242005443D

 34 36  0     1  0  0  0  0  0999 V2000
    8.4499   -1.7224   23.1757 C   0  0  0  0  0  0  0  0  0  0  0  0
    8.7169   -3.4507   28.0508 C   0  0  0  0  0  0  0  0  0  0  0  0
    9.0022   -5.1196   26.4415 C   0  0  0  0  0  0  0  0  0  0  0  0
    7.0849   -1.6786   23.3558 C   0  0  0  0  0  0  0  0  0  0  0  0
    8.2748   -0.2443   24.9609 C   0  0  0  0  0  0  0  0  0  0  0  0
    7.7465   -5.4912   28.2995 C   0  0  0  0  0  0  0  0  0  0  0  0
    9.1393   -0.8917   24.1056 C   0  0  0  0  0  0  0  0  0  0  0  0
    9.2790   -3.8306   26.8491 C   0  0  0  0  0  0  0  0  0  0  0  0
   10.7031   -3.2185   24.8688 C   0  0  0  0  0  0  0  0  0  0  0  0
   12.4860   -0.9068   22.5428 C   0  0  0  0  0  0  0  0  0  0  0  0
   11.2173   -0.1218   22.8483 C   0  0  0  0  0  0  0  0  0  0  0  0
   12.1802   -2.3005   23.0615 C   0  0  0  0  0  0  0  0  0  0  0  0
   10.6467   -0.7388   24.1465 C   0  0  2  0  0  0  0  0  0  0  0  0
   11.4717   -2.0281   24.3843 C   0  0  1  0  0  0  0  0  0  0  0  0
    7.9426   -4.2584   28.8047 N   0  0  0  0  0  0  0  0  0  0  0  0
    8.2372   -5.9802   27.1446 N   0  0  0  0  0  0  0  0  0  0  0  0
   10.0865   -2.9548   26.0853 N   0  0  0  0  0  0  0  0  0  0  0  0
   10.6706   -4.2547   24.2129 O   0  0  0  0  0  0  0  0  0  0  0  0
    6.6394   -0.6390   24.6415 S   0  0  0  0  0  0  0  0  0  0  0  0
    8.9270   -2.3230   22.4116 H   0  0  0  0  0  0  0  0  0  0  0  0
    8.8727   -2.4574   28.4603 H   0  0  0  0  0  0  0  0  0  0  0  0
    9.3970   -5.5163   25.5112 H   0  0  0  0  0  0  0  0  0  0  0  0
    6.3278   -2.2067   22.7935 H   0  0  0  0  0  0  0  0  0  0  0  0
    8.5211    0.4431   25.7583 H   0  0  0  0  0  0  0  0  0  0  0  0
    7.1316   -6.1624   28.8863 H   0  0  0  0  0  0  0  0  0  0  0  0
   12.7212   -0.8990   21.4820 H   0  0  0  0  0  0  0  0  0  0  0  0
   13.3275   -0.4811   23.0883 H   0  0  0  0  0  0  0  0  0  0  0  0
   11.4198    0.9559   22.9636 H   0  0  0  0  0  0  0  0  0  0  0  0
   10.4974   -0.2175   22.0162 H   0  0  0  0  0  0  0  0  0  0  0  0
   11.5690   -2.8573   22.3612 H   0  0  0  0  0  0  0  0  0  0  0  0
   13.1053   -2.8427   23.2270 H   0  0  0  0  0  0  0  0  0  0  0  0
   10.8565   -0.0253   24.9811 H   0  0  0  0  0  0  0  0  0  0  0  0
   12.2454   -1.8228   25.1877 H   0  0  0  0  0  0  0  0  0  0  0  0
   10.2227   -2.0282   26.4840 H   0  0  0  0  0  0  0  0  0  0  0  0
  1  4  2  0  0  0  0
  1  7  1  0  0  0  0
  2  8  1  0  0  0  0
  2 15  2  0  0  0  0
  3  8  2  0  0  0  0
  3 16  1  0  0  0  0
  4 19  1  0  0  0  0
  5  7  2  0  0  0  0
  5 19  1  0  0  0  0
  6 15  1  0  0  0  0
  6 16  2  0  0  0  0
  7 13  1  0  0  0  0
  8 17  1  0  0  0  0
  9 14  1  0  0  0  0
  9 17  1  0  0  0  0
  9 18  2  0  0  0  0
 10 11  1  0  0  0  0
 10 12  1  0  0  0  0
 11 13  1  0  0  0  0
 12 14  1  0  0  0  0
 13 14  1  0  0  0  0
  1 20  1  0  0  0  0
  2 21  1  0  0  0  0
  3 22  1  0  0  0  0
  4 23  1  0  0  0  0
  5 24  1  0  0  0  0
  6 25  1  0  0  0  0
 10 26  1  0  0  0  0
 10 27  1  0  0  0  0
 11 28  1  0  0  0  0
 11 29  1  0  0  0  0
 12 30  1  0  0  0  0
 12 31  1  0  0  0  0
 13 32  1  6  0  0  0
 14 33  1  1  0  0  0
 17 34  1  0  0  0  0
M  END
> <Chemgauss4 Score>
-6.6090259552002

> <Number of Confs>
24

$$$$
TRY-UNI-714-6
  -OEChem-03242005443D

 31 32  0     0  0  0  0  0  0999 V2000
   11.3635    0.2947   24.2924 C   0  0  0  0  0  0  0  0  0  0  0  0
   10.1491   -0.3553   24.0724 C   0  0  0  0  0  0  0  0  0  0  0  0
   12.4978   -0.0850   23.5748 C   0  0  0  0  0  0  0  0  0  0  0  0
    8.2623   -4.1556   28.6362 C   0  0  0  0  0  0  0  0  0  0  0  0
   11.2034   -1.7648   22.4174 C   0  0  0  0  0  0  0  0  0  0  0  0
    8.0568   -5.4970   28.3566 C   0  0  0  0  0  0  0  0  0  0  0  0
    8.1840   -5.1363   26.0912 C   0  0  0  0  0  0  0  0  0  0  0  0
   10.0691   -1.3851   23.1349 C   0  0  0  0  0  0  0  0  0  0  0  0
    8.4339   -3.2862   27.5647 C   0  0  0  0  0  0  0  0  0  0  0  0
    8.3953   -3.7779   26.2647 C   0  0  0  0  0  0  0  0  0  0  0  0
   12.4178   -1.1148   22.6374 C   0  0  0  0  0  0  0  0  0  0  0  0
    8.5487   -3.2965   23.7970 C   0  0  0  0  0  0  0  0  0  0  0  0
    8.6567   -1.8348   27.8372 C   0  0  0  0  0  0  0  0  0  0  0  0
    8.7705   -2.0804   22.9012 C   0  0  0  0  0  0  0  0  0  0  0  0
    8.0130   -6.0116   27.1073 N   0  0  0  0  0  0  0  0  0  0  0  0
    8.5648   -2.9339   25.1415 N   0  0  0  0  0  0  0  0  0  0  0  0
    8.3855   -4.4202   23.3325 O   0  0  0  0  0  0  0  0  0  0  0  0
   13.8178   -1.5836   21.7532 Cl  0  0  0  0  0  0  0  0  0  0  0  0
   11.4255    1.0964   25.0225 H   0  0  0  0  0  0  0  0  0  0  0  0
    9.2704   -0.0529   24.6361 H   0  0  0  0  0  0  0  0  0  0  0  0
   13.4377    0.4302   23.7569 H   0  0  0  0  0  0  0  0  0  0  0  0
    8.2868   -3.8039   29.6621 H   0  0  0  0  0  0  0  0  0  0  0  0
   11.1356   -2.5680   21.6872 H   0  0  0  0  0  0  0  0  0  0  0  0
    7.9173   -6.2161   29.1571 H   0  0  0  0  0  0  0  0  0  0  0  0
    8.1440   -5.5800   25.1008 H   0  0  0  0  0  0  0  0  0  0  0  0
    9.7283   -1.6273   27.9379 H   0  0  0  0  0  0  0  0  0  0  0  0
    8.2547   -1.2133   27.0276 H   0  0  0  0  0  0  0  0  0  0  0  0
    8.1518   -1.5228   28.7599 H   0  0  0  0  0  0  0  0  0  0  0  0
    7.9297   -1.3845   23.0573 H   0  0  0  0  0  0  0  0  0  0  0  0
    8.6978   -2.4108   21.8519 H   0  0  0  0  0  0  0  0  0  0  0  0
    8.7161   -1.9469   25.3393 H   0  0  0  0  0  0  0  0  0  0  0  0
  1  2  2  0  0  0  0
  1  3  1  0  0  0  0
  2  8  1  0  0  0  0
  3 11  2  0  0  0  0
  4  6  2  0  0  0  0
  4  9  1  0  0  0  0
  5  8  2  0  0  0  0
  5 11  1  0  0  0  0
  6 15  1  0  0  0  0
  7 10  1  0  0  0  0
  7 15  2  0  0  0  0
  8 14  1  0  0  0  0
  9 10  2  0  0  0  0
  9 13  1  0  0  0  0
 10 16  1  0  0  0  0
 11 18  1  0  0  0  0
 12 14  1  0  0  0  0
 12 16  1  0  0  0  0
 12 17  2  0  0  0  0
  1 19  1  0  0  0  0
  2 20  1  0  0  0  0
  3 21  1  0  0  0  0
  4 22  1  0  0  0  0
  5 23  1  0  0  0  0
  6 24  1  0  0  0  0
  7 25  1  0  0  0  0
 13 26  1  0  0  0  0
 13 27  1  0  0  0  0
 13 28  1  0  0  0  0
 14 29  1  0  0  0  0
 14 30  1  0  0  0  0
 16 31  1  0  0  0  0
M  END
> <Chemgauss4 Score>
-6.60123872756958

> <Number of Confs>
20

$$$$
DAR-DIA-fc9-8
  -OEChem-03242005443D

 33 35  0     1  0  0  0  0  0999 V2000
   13.3982   -0.4383   23.2633 C   0  0  0  0  0  0  0  0  0  0  0  0
   12.4528    0.0484   24.1661 C   0  0  0  0  0  0  0  0  0  0  0  0
   13.0361   -1.4103   22.3306 C   0  0  0  0  0  0  0  0  0  0  0  0
    8.1520   -4.2877   28.6040 C   0  0  0  0  0  0  0  0  0  0  0  0
   11.1454   -0.4369   24.1363 C   0  0  0  0  0  0  0  0  0  0  0  0
   11.7287   -1.8955   22.3008 C   0  0  0  0  0  0  0  0  0  0  0  0
    8.1939   -3.4293   27.5110 C   0  0  0  0  0  0  0  0  0  0  0  0
    8.0766   -5.6490   28.3571 C   0  0  0  0  0  0  0  0  0  0  0  0
    8.0840   -5.3275   26.0823 C   0  0  0  0  0  0  0  0  0  0  0  0
   10.7834   -1.4088   23.2036 C   0  0  0  0  0  0  0  0  0  0  0  0
    8.1595   -3.9511   26.2226 C   0  0  0  0  0  0  0  0  0  0  0  0
    9.2221   -3.1574   24.0959 C   0  0  0  0  0  0  0  0  0  0  0  0
    7.1372   -2.0720   24.9248 C   0  0  0  0  0  0  0  0  0  0  0  0
    7.1812   -1.2979   23.6240 C   0  0  0  0  0  0  0  0  0  0  0  0
    9.3637   -1.9365   23.1707 C   0  0  1  0  0  0  0  0  0  0  0  0
    8.0414   -6.1929   27.1200 N   0  0  0  0  0  0  0  0  0  0  0  0
    8.2015   -3.0795   25.0596 N   0  0  0  0  0  0  0  0  0  0  0  0
    9.9908   -4.1077   23.9307 O   0  0  0  0  0  0  0  0  0  0  0  0
    8.5058   -0.8437   23.4239 O   0  0  0  0  0  0  0  0  0  0  0  0
   14.4158   -0.0594   23.2858 H   0  0  0  0  0  0  0  0  0  0  0  0
   12.7343    0.8060   24.8917 H   0  0  0  0  0  0  0  0  0  0  0  0
   13.7716   -1.7887   21.6269 H   0  0  0  0  0  0  0  0  0  0  0  0
    8.1777   -3.9031   29.6172 H   0  0  0  0  0  0  0  0  0  0  0  0
   10.4156   -0.0519   24.8436 H   0  0  0  0  0  0  0  0  0  0  0  0
   11.4557   -2.6529   21.5707 H   0  0  0  0  0  0  0  0  0  0  0  0
    8.2532   -2.3565   27.6744 H   0  0  0  0  0  0  0  0  0  0  0  0
    8.0407   -6.3602   29.1757 H   0  0  0  0  0  0  0  0  0  0  0  0
    8.0542   -5.7942   25.1022 H   0  0  0  0  0  0  0  0  0  0  0  0
    7.2627   -1.3789   25.7742 H   0  0  0  0  0  0  0  0  0  0  0  0
    6.1592   -2.5690   25.0358 H   0  0  0  0  0  0  0  0  0  0  0  0
    6.8467   -1.9037   22.7727 H   0  0  0  0  0  0  0  0  0  0  0  0
    6.5259   -0.4230   23.6879 H   0  0  0  0  0  0  0  0  0  0  0  0
    9.1791   -2.2947   22.1421 H   0  0  0  0  0  0  0  0  0  0  0  0
  1  2  1  0  0  0  0
  1  3  2  0  0  0  0
  2  5  2  0  0  0  0
  3  6  1  0  0  0  0
  4  7  2  0  0  0  0
  4  8  1  0  0  0  0
  5 10  1  0  0  0  0
  6 10  2  0  0  0  0
  7 11  1  0  0  0  0
  8 16  2  0  0  0  0
  9 11  2  0  0  0  0
  9 16  1  0  0  0  0
 10 15  1  6  0  0  0
 11 17  1  0  0  0  0
 12 15  1  0  0  0  0
 12 17  1  0  0  0  0
 12 18  2  0  0  0  0
 13 14  1  0  0  0  0
 13 17  1  0  0  0  0
 14 19  1  0  0  0  0
 15 19  1  0  0  0  0
  1 20  1  0  0  0  0
  2 21  1  0  0  0  0
  3 22  1  0  0  0  0
  4 23  1  0  0  0  0
  5 24  1  0  0  0  0
  6 25  1  0  0  0  0
  7 26  1  0  0  0  0
  8 27  1  0  0  0  0
  9 28  1  0  0  0  0
 13 29  1  0  0  0  0
 13 30  1  0  0  0  0
 14 31  1  0  0  0  0
 14 32  1  0  0  0  0
 15 33  1  0  0  0  0
M  END
> <Chemgauss4 Score>
-6.55911827087402

> <Number of Confs>
14

$$$$
CHR-SOS-6c4-7
  -OEChem-03242005443D

 41 43  0     0  0  0  0  0  0999 V2000
   10.0609   -3.1256   24.7673 C   0  0  0  0  0  0  0  0  0  0  0  0
   10.6302   -2.4350   23.9662 C   0  0  0  0  0  0  0  0  0  0  0  0
    9.2097   -4.9981   27.8489 C   0  0  0  0  0  0  0  0  0  0  0  0
    7.9940   -5.5406   27.4476 C   0  0  0  0  0  0  0  0  0  0  0  0
    9.9246   -4.1862   26.9754 C   0  0  0  0  0  0  0  0  0  0  0  0
    5.5546    1.4547   19.5754 C   0  0  0  0  0  0  0  0  0  0  0  0
    7.5404   -5.2430   26.1726 C   0  0  0  0  0  0  0  0  0  0  0  0
    5.0072    1.9666   20.7408 C   0  0  0  0  0  0  0  0  0  0  0  0
    6.7066    1.1041   22.0239 C   0  0  0  0  0  0  0  0  0  0  0  0
    9.3847   -3.9494   25.7215 C   0  0  0  0  0  0  0  0  0  0  0  0
    6.7401    0.7350   19.6746 C   0  0  0  0  0  0  0  0  0  0  0  0
    7.3336    0.5517   20.9186 C   0  0  0  0  0  0  0  0  0  0  0  0
    9.2401   -0.4317   22.2522 C   0  0  0  0  0  0  0  0  0  0  0  0
   13.2372   -0.7606   22.5343 C   0  0  0  0  0  0  0  0  0  0  0  0
   12.1621   -0.4458   23.5936 C   0  0  0  0  0  0  0  0  0  0  0  0
   12.6438   -2.1806   22.4420 C   0  0  0  0  0  0  0  0  0  0  0  0
   11.3154   -1.6056   23.0035 C   0  0  0  0  0  0  0  0  0  0  0  0
    7.3519    0.1714   18.4342 C   0  0  0  0  0  0  0  0  0  0  0  0
    5.5546    1.8092   21.9669 N   0  0  0  0  0  0  0  0  0  0  0  0
    8.2068   -4.4586   25.2961 N   0  0  0  0  0  0  0  0  0  0  0  0
    8.5391   -0.1721   21.0712 N   0  0  0  0  0  0  0  0  0  0  0  0
   10.3758   -1.1771   21.9659 N   0  0  0  0  0  0  0  0  0  0  0  0
    8.9270   -0.0711   23.3843 O   0  0  0  0  0  0  0  0  0  0  0  0
    9.5994   -5.2081   28.8404 H   0  0  0  0  0  0  0  0  0  0  0  0
    7.4197   -6.1762   28.1117 H   0  0  0  0  0  0  0  0  0  0  0  0
   10.8746   -3.7586   27.2797 H   0  0  0  0  0  0  0  0  0  0  0  0
    5.0662    1.6154   18.6203 H   0  0  0  0  0  0  0  0  0  0  0  0
    6.5980   -5.6415   25.8115 H   0  0  0  0  0  0  0  0  0  0  0  0
    4.0833    2.5352   20.7174 H   0  0  0  0  0  0  0  0  0  0  0  0
    7.1213    0.9956   23.0217 H   0  0  0  0  0  0  0  0  0  0  0  0
   13.1327   -0.1775   21.6122 H   0  0  0  0  0  0  0  0  0  0  0  0
   14.2732   -0.7004   22.8770 H   0  0  0  0  0  0  0  0  0  0  0  0
   12.5079   -0.6083   24.6223 H   0  0  0  0  0  0  0  0  0  0  0  0
   11.7297    0.5576   23.5311 H   0  0  0  0  0  0  0  0  0  0  0  0
   12.6072   -2.6029   21.4330 H   0  0  0  0  0  0  0  0  0  0  0  0
   13.1449   -2.9024   23.0994 H   0  0  0  0  0  0  0  0  0  0  0  0
    8.0448    0.8952   17.9898 H   0  0  0  0  0  0  0  0  0  0  0  0
    7.9020   -0.7532   18.6484 H   0  0  0  0  0  0  0  0  0  0  0  0
    6.5839   -0.0788   17.6919 H   0  0  0  0  0  0  0  0  0  0  0  0
    8.9401   -0.5476   20.2154 H   0  0  0  0  0  0  0  0  0  0  0  0
   10.5599   -1.4322   21.0100 H   0  0  0  0  0  0  0  0  0  0  0  0
  1  2  3  0  0  0  0
  1 10  1  0  0  0  0
  2 17  1  0  0  0  0
  3  4  1  0  0  0  0
  3  5  2  0  0  0  0
  4  7  2  0  0  0  0
  5 10  1  0  0  0  0
  6  8  2  0  0  0  0
  6 11  1  0  0  0  0
  7 20  1  0  0  0  0
  8 19  1  0  0  0  0
  9 12  1  0  0  0  0
  9 19  2  0  0  0  0
 10 20  2  0  0  0  0
 11 12  2  0  0  0  0
 11 18  1  0  0  0  0
 12 21  1  0  0  0  0
 13 21  1  0  0  0  0
 13 22  1  0  0  0  0
 13 23  2  0  0  0  0
 14 15  1  0  0  0  0
 14 16  1  0  0  0  0
 15 17  1  0  0  0  0
 16 17  1  0  0  0  0
 17 22  1  0  0  0  0
  3 24  1  0  0  0  0
  4 25  1  0  0  0  0
  5 26  1  0  0  0  0
  6 27  1  0  0  0  0
  7 28  1  0  0  0  0
  8 29  1  0  0  0  0
  9 30  1  0  0  0  0
 14 31  1  0  0  0  0
 14 32  1  0  0  0  0
 15 33  1  0  0  0  0
 15 34  1  0  0  0  0
 16 35  1  0  0  0  0
 16 36  1  0  0  0  0
 18 37  1  0  0  0  0
 18 38  1  0  0  0  0
 18 39  1  0  0  0  0
 21 40  1  0  0  0  0
 22 41  1  0  0  0  0
M  END
> <Chemgauss4 Score>
-6.49560213088989

> <Number of Confs>
5

$$$$
NIM-UNI-36e-2
  -OEChem-03242005443D

 47 50  0     1  0  0  0  0  0999 V2000
   14.2257   -0.2433   22.6011 C   0  0  0  0  0  0  0  0  0  0  0  0
   13.4011    0.6279   23.3128 C   0  0  0  0  0  0  0  0  0  0  0  0
   13.6848   -1.3782   21.9967 C   0  0  0  0  0  0  0  0  0  0  0  0
    7.0179   -6.3367   28.2781 C   0  0  0  0  0  0  0  0  0  0  0  0
   12.0356    0.3643   23.4203 C   0  0  0  0  0  0  0  0  0  0  0  0
   12.3193   -1.6418   22.1042 C   0  0  0  0  0  0  0  0  0  0  0  0
    7.6932   -6.0103   27.1073 C   0  0  0  0  0  0  0  0  0  0  0  0
    7.0349   -5.4173   29.3145 C   0  0  0  0  0  0  0  0  0  0  0  0
    8.3124   -3.9412   28.1032 C   0  0  0  0  0  0  0  0  0  0  0  0
   11.4947   -0.7706   22.8160 C   0  0  0  0  0  0  0  0  0  0  0  0
    8.3555   -4.7915   27.0101 C   0  0  0  0  0  0  0  0  0  0  0  0
    9.6844   -5.3333   24.9220 C   0  0  0  0  0  0  0  0  0  0  0  0
    7.4637   -1.2745   25.6235 C   0  0  0  0  0  0  0  0  0  0  0  0
    7.3644   -2.9323   23.7142 C   0  0  0  0  0  0  0  0  0  0  0  0
    8.3389   -2.7616   22.5404 C   0  0  0  0  0  0  0  0  0  0  0  0
   10.1571   -3.1471   24.1414 C   0  0  1  0  0  0  0  0  0  0  0  0
    9.2043   -3.0392   25.3555 C   0  0  2  0  0  0  0  0  0  0  0  0
    6.2892   -0.5621   25.0015 C   0  0  0  0  0  0  0  0  0  0  0  0
   10.0250   -1.0552   22.9315 C   0  0  0  0  0  0  0  0  0  0  0  0
    7.6670   -4.2237   29.2570 N   0  0  0  0  0  0  0  0  0  0  0  0
   10.2855   -4.5660   23.9149 N   0  0  0  0  0  0  0  0  0  0  0  0
    9.0576   -4.4283   25.8214 N   0  0  0  0  0  0  0  0  0  0  0  0
    7.9358   -2.4054   24.9532 N   0  0  0  0  0  0  0  0  0  0  0  0
    9.7411   -2.4896   22.9001 N   0  0  2  0  0  0  0  0  0  0  0  0
    9.7525   -6.5547   24.9716 O   0  0  0  0  0  0  0  0  0  0  0  0
    7.9478   -0.8325   26.6684 O   0  0  0  0  0  0  0  0  0  0  0  0
   15.2887   -0.0371   22.5163 H   0  0  0  0  0  0  0  0  0  0  0  0
   13.8218    1.5122   23.7825 H   0  0  0  0  0  0  0  0  0  0  0  0
   14.3263   -2.0561   21.4416 H   0  0  0  0  0  0  0  0  0  0  0  0
    6.4948   -7.2811   28.3761 H   0  0  0  0  0  0  0  0  0  0  0  0
   11.4007    1.0486   23.9770 H   0  0  0  0  0  0  0  0  0  0  0  0
   11.9067   -2.5285   21.6302 H   0  0  0  0  0  0  0  0  0  0  0  0
    7.6970   -6.7122   26.2776 H   0  0  0  0  0  0  0  0  0  0  0  0
    6.5239   -5.6249   30.2489 H   0  0  0  0  0  0  0  0  0  0  0  0
    8.8100   -2.9760   28.0875 H   0  0  0  0  0  0  0  0  0  0  0  0
    6.4104   -2.4408   23.4607 H   0  0  0  0  0  0  0  0  0  0  0  0
    7.1158   -3.9995   23.8728 H   0  0  0  0  0  0  0  0  0  0  0  0
    8.2967   -3.6957   21.9278 H   0  0  0  0  0  0  0  0  0  0  0  0
    7.9508   -1.9627   21.8566 H   0  0  0  0  0  0  0  0  0  0  0  0
   11.1794   -2.7567   24.4579 H   0  0  0  0  0  0  0  0  0  0  0  0
    9.6611   -2.4886   26.1482 H   0  0  0  0  0  0  0  0  0  0  0  0
    5.3698   -0.9828   25.3952 H   0  0  0  0  0  0  0  0  0  0  0  0
    6.3247   -0.6913   23.9244 H   0  0  0  0  0  0  0  0  0  0  0  0
    6.3465    0.4946   25.2423 H   0  0  0  0  0  0  0  0  0  0  0  0
    9.6264   -0.6529   23.8692 H   0  0  0  0  0  0  0  0  0  0  0  0
    9.4684   -0.5858   22.1136 H   0  0  0  0  0  0  0  0  0  0  0  0
   10.7643   -4.9684   23.1053 H   0  0  0  0  0  0  0  0  0  0  0  0
  1  2  1  0  0  0  0
  1  3  2  0  0  0  0
  2  5  2  0  0  0  0
  3  6  1  0  0  0  0
  4  7  2  0  0  0  0
  4  8  1  0  0  0  0
  5 10  1  0  0  0  0
  6 10  2  0  0  0  0
  7 11  1  0  0  0  0
  8 20  2  0  0  0  0
  9 11  2  0  0  0  0
  9 20  1  0  0  0  0
 10 19  1  0  0  0  0
 11 22  1  0  0  0  0
 12 21  1  0  0  0  0
 12 22  1  0  0  0  0
 12 25  2  0  0  0  0
 13 18  1  0  0  0  0
 13 23  1  0  0  0  0
 13 26  2  0  0  0  0
 14 15  1  0  0  0  0
 14 23  1  0  0  0  0
 15 24  1  0  0  0  0
 16 17  1  0  0  0  0
 16 21  1  1  0  0  0
 16 24  1  0  0  0  0
 17 22  1  0  0  0  0
 17 23  1  6  0  0  0
 19 24  1  1  0  0  0
  1 27  1  0  0  0  0
  2 28  1  0  0  0  0
  3 29  1  0  0  0  0
  4 30  1  0  0  0  0
  5 31  1  0  0  0  0
  6 32  1  0  0  0  0
  7 33  1  0  0  0  0
  8 34  1  0  0  0  0
  9 35  1  0  0  0  0
 14 36  1  0  0  0  0
 14 37  1  0  0  0  0
 15 38  1  0  0  0  0
 15 39  1  0  0  0  0
 16 40  1  0  0  0  0
 17 41  1  0  0  0  0
 18 42  1  0  0  0  0
 18 43  1  0  0  0  0
 18 44  1  0  0  0  0
 19 45  1  0  0  0  0
 19 46  1  0  0  0  0
 21 47  1  0  0  0  0
M  END
> <Chemgauss4 Score>
-6.49366617202759

> <Number of Confs>
32

$$$$
SAL-INS-1c7-1
  -OEChem-03242005443D

 52 54  0     1  0  0  0  0  0999 V2000
   13.9034   -0.1608   23.3509 C   0  0  0  0  0  0  0  0  0  0  0  0
   13.5722   -0.6731   22.0965 C   0  0  0  0  0  0  0  0  0  0  0  0
   12.9835   -0.2290   24.3972 C   0  0  0  0  0  0  0  0  0  0  0  0
    9.8673   -4.3785   25.6772 C   0  0  0  0  0  0  0  0  0  0  0  0
   12.3211   -1.2537   21.8885 C   0  0  0  0  0  0  0  0  0  0  0  0
   11.7324   -0.8095   24.1892 C   0  0  0  0  0  0  0  0  0  0  0  0
   10.3501   -3.6261   24.6059 C   0  0  0  0  0  0  0  0  0  0  0  0
    7.6677   -3.4579   25.3300 C   0  0  0  0  0  0  0  0  0  0  0  0
    8.5288   -4.2884   26.0442 C   0  0  0  0  0  0  0  0  0  0  0  0
   11.4011   -1.3219   22.9348 C   0  0  0  0  0  0  0  0  0  0  0  0
    9.5039   -2.7580   23.8935 C   0  0  0  0  0  0  0  0  0  0  0  0
    8.1380   -2.7057   24.2422 C   0  0  0  0  0  0  0  0  0  0  0  0
    8.0294   -5.0590   27.1714 C   0  0  0  0  0  0  0  0  0  0  0  0
    6.9025   -1.5129   21.0463 C   0  0  0  0  0  0  0  0  0  0  0  0
    7.1631   -1.8360   23.4872 C   0  0  0  0  0  0  0  0  0  0  0  0
    9.0465   -0.8668   22.2454 C   0  0  0  0  0  0  0  0  0  0  0  0
   10.0348   -1.9553   22.7083 C   0  0  1  0  0  0  0  0  0  0  0  0
    6.9152   -6.2424   29.7244 C   0  0  0  0  0  0  0  0  0  0  0  0
    5.1905   -5.2152   28.2026 C   0  0  0  0  0  0  0  0  0  0  0  0
    7.9073   -3.0463   28.6599 C   0  0  0  0  0  0  0  0  0  0  0  0
    7.1532   -0.4964   19.9612 C   0  0  0  0  0  0  0  0  0  0  0  0
    6.4049   -4.9601   29.0832 C   0  0  0  0  0  0  0  0  0  0  0  0
    7.6880   -1.4068   22.1926 N   0  0  0  0  0  0  0  0  0  0  0  0
    7.4676   -4.3776   28.2666 N   0  0  0  0  0  0  0  0  0  0  0  0
    8.1184   -6.2915   27.0926 O   0  0  0  0  0  0  0  0  0  0  0  0
    6.0366   -2.3753   20.8780 O   0  0  0  0  0  0  0  0  0  0  0  0
    5.6300   -0.2892   19.1047 Cl  0  0  0  0  0  0  0  0  0  0  0  0
   14.8782    0.2900   23.5131 H   0  0  0  0  0  0  0  0  0  0  0  0
   14.2888   -0.6211   21.2820 H   0  0  0  0  0  0  0  0  0  0  0  0
   13.2415    0.1688   25.3742 H   0  0  0  0  0  0  0  0  0  0  0  0
   10.5476   -5.0337   26.2164 H   0  0  0  0  0  0  0  0  0  0  0  0
   12.0716   -1.6501   20.9077 H   0  0  0  0  0  0  0  0  0  0  0  0
   11.0220   -0.8582   25.0102 H   0  0  0  0  0  0  0  0  0  0  0  0
   11.3976   -3.7218   24.3236 H   0  0  0  0  0  0  0  0  0  0  0  0
    6.6206   -3.3879   25.6179 H   0  0  0  0  0  0  0  0  0  0  0  0
    6.2550   -2.4040   23.2891 H   0  0  0  0  0  0  0  0  0  0  0  0
    6.9217   -0.9717   24.0987 H   0  0  0  0  0  0  0  0  0  0  0  0
    9.0999    0.0067   22.8926 H   0  0  0  0  0  0  0  0  0  0  0  0
    9.2929   -0.5470   21.2313 H   0  0  0  0  0  0  0  0  0  0  0  0
   10.1596   -2.6524   21.8406 H   0  0  0  0  0  0  0  0  0  0  0  0
    7.1827   -6.9804   28.9612 H   0  0  0  0  0  0  0  0  0  0  0  0
    7.8000   -6.0555   30.3434 H   0  0  0  0  0  0  0  0  0  0  0  0
    6.1494   -6.6852   30.3706 H   0  0  0  0  0  0  0  0  0  0  0  0
    5.4282   -5.9361   27.4127 H   0  0  0  0  0  0  0  0  0  0  0  0
    4.8530   -4.2890   27.7259 H   0  0  0  0  0  0  0  0  0  0  0  0
    4.3551   -5.6250   28.7814 H   0  0  0  0  0  0  0  0  0  0  0  0
    7.3066   -2.2906   28.1327 H   0  0  0  0  0  0  0  0  0  0  0  0
    7.7796   -2.9240   29.7456 H   0  0  0  0  0  0  0  0  0  0  0  0
    8.9682   -2.9187   28.3988 H   0  0  0  0  0  0  0  0  0  0  0  0
    7.9100   -0.8819   19.2879 H   0  0  0  0  0  0  0  0  0  0  0  0
    7.4536    0.4385   20.4195 H   0  0  0  0  0  0  0  0  0  0  0  0
    6.1439   -4.2377   29.8643 H   0  0  0  0  0  0  0  0  0  0  0  0
  1  2  1  0  0  0  0
  1  3  2  0  0  0  0
  2  5  2  0  0  0  0
  3  6  1  0  0  0  0
  4  7  2  0  0  0  0
  4  9  1  0  0  0  0
  5 10  1  0  0  0  0
  6 10  2  0  0  0  0
  7 11  1  0  0  0  0
  8  9  2  0  0  0  0
  8 12  1  0  0  0  0
  9 13  1  0  0  0  0
 10 17  1  1  0  0  0
 11 12  2  0  0  0  0
 11 17  1  0  0  0  0
 12 15  1  0  0  0  0
 13 24  1  0  0  0  0
 13 25  2  0  0  0  0
 14 21  1  0  0  0  0
 14 23  1  0  0  0  0
 14 26  2  0  0  0  0
 15 23  1  0  0  0  0
 16 17  1  0  0  0  0
 16 23  1  0  0  0  0
 18 22  1  0  0  0  0
 19 22  1  0  0  0  0
 20 24  1  0  0  0  0
 21 27  1  0  0  0  0
 22 24  1  0  0  0  0
  1 28  1  0  0  0  0
  2 29  1  0  0  0  0
  3 30  1  0  0  0  0
  4 31  1  0  0  0  0
  5 32  1  0  0  0  0
  6 33  1  0  0  0  0
  7 34  1  0  0  0  0
  8 35  1  0  0  0  0
 15 36  1  0  0  0  0
 15 37  1  0  0  0  0
 16 38  1  0  0  0  0
 16 39  1  0  0  0  0
 17 40  1  0  0  0  0
 18 41  1  0  0  0  0
 18 42  1  0  0  0  0
 18 43  1  0  0  0  0
 19 44  1  0  0  0  0
 19 45  1  0  0  0  0
 19 46  1  0  0  0  0
 20 47  1  0  0  0  0
 20 48  1  0  0  0  0
 20 49  1  0  0  0  0
 21 50  1  0  0  0  0
 21 51  1  0  0  0  0
 22 52  1  0  0  0  0
M  END
> <Chemgauss4 Score>
-6.4930248260498

> <Number of Confs>
83

$$$$
CHR-SOS-70e-6
  -OEChem-03242005443D

 36 38  0     0  0  0  0  0  0999 V2000
    6.5553   -3.4661   24.3441 C   0  0  0  0  0  0  0  0  0  0  0  0
    6.9471   -2.1493   24.5850 C   0  0  0  0  0  0  0  0  0  0  0  0
    7.1828   -4.2086   23.3437 C   0  0  0  0  0  0  0  0  0  0  0  0
    8.6819   -4.0900   28.5409 C   0  0  0  0  0  0  0  0  0  0  0  0
    9.3455   -3.5510   27.4445 C   0  0  0  0  0  0  0  0  0  0  0  0
    7.9662   -1.5749   23.8254 C   0  0  0  0  0  0  0  0  0  0  0  0
    8.2019   -3.6342   22.5841 C   0  0  0  0  0  0  0  0  0  0  0  0
    8.2257   -5.3949   28.4458 C   0  0  0  0  0  0  0  0  0  0  0  0
    9.0361   -5.6169   26.3075 C   0  0  0  0  0  0  0  0  0  0  0  0
    9.5301   -4.3223   26.3024 C   0  0  0  0  0  0  0  0  0  0  0  0
    8.5937   -2.3173   22.8249 C   0  0  0  0  0  0  0  0  0  0  0  0
   10.7481   -2.5302   25.0191 C   0  0  0  0  0  0  0  0  0  0  0  0
   10.7025    0.1207   23.2905 C   0  0  0  0  0  0  0  0  0  0  0  0
   11.5830   -0.2518   22.1301 C   0  0  0  0  0  0  0  0  0  0  0  0
   10.7447   -1.3031   22.8055 C   0  0  0  0  0  0  0  0  0  0  0  0
   11.3908   -2.3571   23.6391 C   0  0  0  0  0  0  0  0  0  0  0  0
    8.3863   -6.1750   27.3534 N   0  0  0  0  0  0  0  0  0  0  0  0
   10.2013   -3.8013   25.1707 N   0  0  0  0  0  0  0  0  0  0  0  0
   10.7527   -1.6179   25.8390 O   0  0  0  0  0  0  0  0  0  0  0  0
    9.5889   -1.7557   22.0811 O   0  0  0  0  0  0  0  0  0  0  0  0
    5.7622   -3.9139   24.9357 H   0  0  0  0  0  0  0  0  0  0  0  0
    6.4585   -1.5710   25.3638 H   0  0  0  0  0  0  0  0  0  0  0  0
    6.8772   -5.2341   23.1568 H   0  0  0  0  0  0  0  0  0  0  0  0
    8.5267   -3.5071   29.4416 H   0  0  0  0  0  0  0  0  0  0  0  0
    9.7145   -2.5297   27.4905 H   0  0  0  0  0  0  0  0  0  0  0  0
    8.2657   -0.5481   24.0170 H   0  0  0  0  0  0  0  0  0  0  0  0
    8.6859   -4.2167   21.8049 H   0  0  0  0  0  0  0  0  0  0  0  0
    7.7013   -5.8611   29.2733 H   0  0  0  0  0  0  0  0  0  0  0  0
    9.1495   -6.2677   25.4456 H   0  0  0  0  0  0  0  0  0  0  0  0
   11.1854    0.3628   24.2296 H   0  0  0  0  0  0  0  0  0  0  0  0
    9.8160    0.7074   23.0816 H   0  0  0  0  0  0  0  0  0  0  0  0
   11.2862    0.0858   21.1442 H   0  0  0  0  0  0  0  0  0  0  0  0
   12.6537   -0.2590   22.2945 H   0  0  0  0  0  0  0  0  0  0  0  0
   12.4599   -2.1282   23.8019 H   0  0  0  0  0  0  0  0  0  0  0  0
   11.3491   -3.3388   23.1326 H   0  0  0  0  0  0  0  0  0  0  0  0
   10.2875   -4.4409   24.3835 H   0  0  0  0  0  0  0  0  0  0  0  0
  1  2  1  0  0  0  0
  1  3  2  0  0  0  0
  2  6  2  0  0  0  0
  3  7  1  0  0  0  0
  4  5  2  0  0  0  0
  4  8  1  0  0  0  0
  5 10  1  0  0  0  0
  6 11  1  0  0  0  0
  7 11  2  0  0  0  0
  8 17  2  0  0  0  0
  9 10  2  0  0  0  0
  9 17  1  0  0  0  0
 10 18  1  0  0  0  0
 11 20  1  0  0  0  0
 12 16  1  0  0  0  0
 12 18  1  0  0  0  0
 12 19  2  0  0  0  0
 13 14  1  0  0  0  0
 13 15  1  0  0  0  0
 14 15  1  0  0  0  0
 15 16  1  0  0  0  0
 15 20  1  0  0  0  0
  1 21  1  0  0  0  0
  2 22  1  0  0  0  0
  3 23  1  0  0  0  0
  4 24  1  0  0  0  0
  5 25  1  0  0  0  0
  6 26  1  0  0  0  0
  7 27  1  0  0  0  0
  8 28  1  0  0  0  0
  9 29  1  0  0  0  0
 13 30  1  0  0  0  0
 13 31  1  0  0  0  0
 14 32  1  0  0  0  0
 14 33  1  0  0  0  0
 16 34  1  0  0  0  0
 16 35  1  0  0  0  0
 18 36  1  0  0  0  0
M  END
> <Chemgauss4 Score>
-6.4333963394165

> <Number of Confs>
200

$$$$
JOH-MEM-5e3-7
  -OEChem-03242005443D

 22 23  0     0  0  0  0  0  0999 V2000
    9.1501   -3.2330   27.3367 C   0  0  0  0  0  0  0  0  0  0  0  0
    9.3081   -4.6204   27.2732 C   0  0  0  0  0  0  0  0  0  0  0  0
   10.4785   -4.4481   25.1524 C   0  0  0  0  0  0  0  0  0  0  0  0
   10.2949   -0.8059   24.9046 C   0  0  0  0  0  0  0  0  0  0  0  0
   10.3312   -3.0474   25.1946 C   0  0  0  0  0  0  0  0  0  0  0  0
   10.7189   -1.9833   24.3329 C   0  0  0  0  0  0  0  0  0  0  0  0
    9.6717   -2.4733   26.2836 C   0  0  0  0  0  0  0  0  0  0  0  0
    9.9617   -5.2207   26.1988 C   0  0  0  0  0  0  0  0  0  0  0  0
   12.3499   -0.9323   22.7255 C   0  0  0  0  0  0  0  0  0  0  0  0
   11.4464   -2.1082   23.0539 C   0  0  0  0  0  0  0  0  0  0  0  0
    9.6646   -1.1116   26.0809 N   0  0  0  0  0  0  0  0  0  0  0  0
   13.4148   -1.0308   22.1248 O   0  0  0  0  0  0  0  0  0  0  0  0
   10.1012   -6.5761   26.1652 O   0  0  0  0  0  0  0  0  0  0  0  0
    8.6406   -2.7667   28.1734 H   0  0  0  0  0  0  0  0  0  0  0  0
    8.9110   -5.2345   28.0782 H   0  0  0  0  0  0  0  0  0  0  0  0
   10.9871   -4.9252   24.3191 H   0  0  0  0  0  0  0  0  0  0  0  0
   10.3844    0.2218   24.5811 H   0  0  0  0  0  0  0  0  0  0  0  0
   11.9931    0.0559   23.0643 H   0  0  0  0  0  0  0  0  0  0  0  0
   10.7507   -2.2213   22.2019 H   0  0  0  0  0  0  0  0  0  0  0  0
   12.0831   -3.0121   23.0369 H   0  0  0  0  0  0  0  0  0  0  0  0
    9.2528   -0.4362   26.7099 H   0  0  0  0  0  0  0  0  0  0  0  0
   10.5738   -6.8438   25.3618 H   0  0  0  0  0  0  0  0  0  0  0  0
  1  2  2  0  0  0  0
  1  7  1  0  0  0  0
  2  8  1  0  0  0  0
  3  5  1  0  0  0  0
  3  8  2  0  0  0  0
  4  6  2  0  0  0  0
  4 11  1  0  0  0  0
  5  6  1  0  0  0  0
  5  7  2  0  0  0  0
  6 10  1  0  0  0  0
  7 11  1  0  0  0  0
  8 13  1  0  0  0  0
  9 10  1  0  0  0  0
  9 12  2  0  0  0  0
  1 14  1  0  0  0  0
  2 15  1  0  0  0  0
  3 16  1  0  0  0  0
  4 17  1  0  0  0  0
  9 18  1  0  0  0  0
 10 19  1  0  0  0  0
 10 20  1  0  0  0  0
 11 21  1  0  0  0  0
 13 22  1  0  0  0  0
M  END
> <Chemgauss4 Score>
-6.39984846115112

> <Number of Confs>
5

$$$$
ROB-UNI-b2e-5
  -OEChem-03242005443D

 50 51  0     0  0  0  0  0  0999 V2000
   12.0894   -1.2528   22.4278 C   0  0  0  0  0  0  0  0  0  0  0  0
   10.5714   -2.8916   23.4201 C   0  0  0  0  0  0  0  0  0  0  0  0
    9.6749   -0.8958   22.3663 C   0  0  0  0  0  0  0  0  0  0  0  0
    7.3407   -4.3043   24.3832 C   0  0  0  0  0  0  0  0  0  0  0  0
   10.7622   -1.6829   22.7407 C   0  0  0  0  0  0  0  0  0  0  0  0
    9.2606   -3.3093   23.7247 C   0  0  0  0  0  0  0  0  0  0  0  0
    8.3658   -1.2897   22.6575 C   0  0  0  0  0  0  0  0  0  0  0  0
    8.7095   -4.4439   24.3833 C   0  0  0  0  0  0  0  0  0  0  0  0
    8.1902   -2.5003   23.3371 C   0  0  0  0  0  0  0  0  0  0  0  0
    8.7714   -3.5711   27.5394 C   0  0  0  0  0  0  0  0  0  0  0  0
    7.7696   -3.4154   28.6351 C   0  0  0  0  0  0  0  0  0  0  0  0
    4.6804   -3.4158   24.4062 C   0  0  0  0  0  0  0  0  0  0  0  0
    5.9009    0.9110   17.9606 C   0  0  0  0  0  0  0  0  0  0  0  0
    7.2407   -0.4039   22.2321 C   0  0  0  0  0  0  0  0  0  0  0  0
    9.4617   -5.5734   24.9663 C   0  0  0  0  0  0  0  0  0  0  0  0
    5.6846   -2.6482   23.5637 C   0  0  0  0  0  0  0  0  0  0  0  0
    7.5324    0.3795   20.9474 C   0  0  0  0  0  0  0  0  0  0  0  0
   10.1340   -5.2511   26.3132 C   0  0  0  0  0  0  0  0  0  0  0  0
   13.1666   -0.9037   22.1738 N   0  0  0  0  0  0  0  0  0  0  0  0
    7.0371   -3.1291   23.7498 N   0  0  0  0  0  0  0  0  0  0  0  0
    9.1778   -4.8776   27.3208 N   0  0  0  0  0  0  0  0  0  0  0  0
    6.4426    1.2397   20.5714 N   0  0  0  0  0  0  0  0  0  0  0  0
    9.1554   -2.5817   26.9268 O   0  0  0  0  0  0  0  0  0  0  0  0
    4.0255    1.5217   19.6812 O   0  0  0  0  0  0  0  0  0  0  0  0
    5.0400   -0.7855   19.7456 O   0  0  0  0  0  0  0  0  0  0  0  0
    5.1755    0.6468   19.5625 S   0  0  0  0  0  0  0  0  0  0  0  0
   11.4194   -3.5058   23.7131 H   0  0  0  0  0  0  0  0  0  0  0  0
    9.8407    0.0431   21.8395 H   0  0  0  0  0  0  0  0  0  0  0  0
    6.5609   -4.9408   24.7807 H   0  0  0  0  0  0  0  0  0  0  0  0
    8.2421   -3.2493   29.6165 H   0  0  0  0  0  0  0  0  0  0  0  0
    7.1082   -2.5478   28.4799 H   0  0  0  0  0  0  0  0  0  0  0  0
    7.0932   -4.2728   28.7805 H   0  0  0  0  0  0  0  0  0  0  0  0
    4.6902   -4.4827   24.1592 H   0  0  0  0  0  0  0  0  0  0  0  0
    3.6694   -3.0346   24.2325 H   0  0  0  0  0  0  0  0  0  0  0  0
    4.9035   -3.3185   25.4738 H   0  0  0  0  0  0  0  0  0  0  0  0
    5.1931    0.5730   17.2021 H   0  0  0  0  0  0  0  0  0  0  0  0
    6.1042    1.9768   17.8462 H   0  0  0  0  0  0  0  0  0  0  0  0
    6.8266    0.3364   17.9029 H   0  0  0  0  0  0  0  0  0  0  0  0
    7.0185    0.3137   23.0387 H   0  0  0  0  0  0  0  0  0  0  0  0
    6.3157   -0.9899   22.1019 H   0  0  0  0  0  0  0  0  0  0  0  0
   10.2512   -5.9069   24.2642 H   0  0  0  0  0  0  0  0  0  0  0  0
    8.8140   -6.4636   25.0983 H   0  0  0  0  0  0  0  0  0  0  0  0
    5.6675   -1.5823   23.8179 H   0  0  0  0  0  0  0  0  0  0  0  0
    5.4400   -2.7325   22.4988 H   0  0  0  0  0  0  0  0  0  0  0  0
    8.4091    1.0209   21.0816 H   0  0  0  0  0  0  0  0  0  0  0  0
    7.7274   -0.2935   20.1059 H   0  0  0  0  0  0  0  0  0  0  0  0
   10.6760   -6.1201   26.6992 H   0  0  0  0  0  0  0  0  0  0  0  0
   10.8442   -4.4242   26.2093 H   0  0  0  0  0  0  0  0  0  0  0  0
    8.7787   -5.6116   27.9038 H   0  0  0  0  0  0  0  0  0  0  0  0
    6.6895    2.2412   20.4149 H   0  0  0  0  0  0  0  0  0  0  0  0
  1  5  1  0  0  0  0
  1 19  3  0  0  0  0
  2  5  2  0  0  0  0
  2  6  1  0  0  0  0
  3  5  1  0  0  0  0
  3  7  2  0  0  0  0
  4  8  2  0  0  0  0
  4 20  1  0  0  0  0
  6  8  1  0  0  0  0
  6  9  2  0  0  0  0
  7  9  1  0  0  0  0
  7 14  1  0  0  0  0
  8 15  1  0  0  0  0
  9 20  1  0  0  0  0
 10 11  1  0  0  0  0
 10 21  1  0  0  0  0
 10 23  2  0  0  0  0
 12 16  1  0  0  0  0
 13 26  1  0  0  0  0
 14 17  1  0  0  0  0
 15 18  1  0  0  0  0
 16 20  1  0  0  0  0
 17 22  1  0  0  0  0
 18 21  1  0  0  0  0
 22 26  1  0  0  0  0
 24 26  2  0  0  0  0
 25 26  2  0  0  0  0
  2 27  1  0  0  0  0
  3 28  1  0  0  0  0
  4 29  1  0  0  0  0
 11 30  1  0  0  0  0
 11 31  1  0  0  0  0
 11 32  1  0  0  0  0
 12 33  1  0  0  0  0
 12 34  1  0  0  0  0
 12 35  1  0  0  0  0
 13 36  1  0  0  0  0
 13 37  1  0  0  0  0
 13 38  1  0  0  0  0
 14 39  1  0  0  0  0
 14 40  1  0  0  0  0
 15 41  1  0  0  0  0
 15 42  1  0  0  0  0
 16 43  1  0  0  0  0
 16 44  1  0  0  0  0
 17 45  1  0  0  0  0
 17 46  1  0  0  0  0
 18 47  1  0  0  0  0
 18 48  1  0  0  0  0
 21 49  1  0  0  0  0
 22 50  1  0  0  0  0
M  END
> <Chemgauss4 Score>
-6.38923215866089

> <Number of Confs>
200

$$$$
BAR-COM-21d-2
  -OEChem-03242005443D

 47 49  0     1  0  0  0  0  0999 V2000
   13.1862   -2.0540   23.5329 C   0  0  0  0  0  0  0  0  0  0  0  0
    5.1417    0.4853   19.5106 C   0  0  0  0  0  0  0  0  0  0  0  0
   12.4802   -2.7329   24.5261 C   0  0  0  0  0  0  0  0  0  0  0  0
   12.5007   -1.4513   22.4781 C   0  0  0  0  0  0  0  0  0  0  0  0
    6.3621    0.2216   20.1224 C   0  0  0  0  0  0  0  0  0  0  0  0
   10.4033   -2.2064   23.4096 C   0  0  0  0  0  0  0  0  0  0  0  0
    5.1220    0.6137   18.1311 C   0  0  0  0  0  0  0  0  0  0  0  0
    7.3838    0.2417   17.9748 C   0  0  0  0  0  0  0  0  0  0  0  0
   11.0888   -2.8091   24.4644 C   0  0  0  0  0  0  0  0  0  0  0  0
   11.1093   -1.5275   22.4164 C   0  0  0  0  0  0  0  0  0  0  0  0
    7.5094    0.0961   19.3470 C   0  0  0  0  0  0  0  0  0  0  0  0
    9.0290   -0.8877   21.1195 C   0  0  0  0  0  0  0  0  0  0  0  0
    6.6999   -5.6662   25.5231 C   0  0  0  0  0  0  0  0  0  0  0  0
    8.0755   -5.8122   26.1883 C   0  0  1  0  0  0  0  0  0  0  0  0
    8.0505   -4.2711   26.3537 C   0  0  1  0  0  0  0  0  0  0  0  0
    8.3223   -3.7247   27.7500 C   0  0  0  0  0  0  0  0  0  0  0  0
   10.3261   -3.5431   25.5383 C   0  0  0  0  0  0  0  0  0  0  0  0
    8.8198   -3.5048   25.2784 C   0  0  0  0  0  0  0  0  0  0  0  0
    6.2155    0.4983   17.3447 N   0  0  0  0  0  0  0  0  0  0  0  0
   10.4240   -0.9240   21.3616 N   0  0  0  0  0  0  0  0  0  0  0  0
    8.7654   -0.1718   19.9408 N   0  0  0  0  0  0  0  0  0  0  0  0
    6.5973   -4.3014   26.0624 N   0  3  0  0  0  0  0  0  0  0  0  0
    8.1816   -1.4075   21.8385 O   0  0  0  0  0  0  0  0  0  0  0  0
    8.1040   -6.6005   27.3940 O   0  0  0  0  0  0  0  0  0  0  0  0
   14.2696   -1.9943   23.5811 H   0  0  0  0  0  0  0  0  0  0  0  0
    4.2345    0.5871   20.0953 H   0  0  0  0  0  0  0  0  0  0  0  0
   13.0230   -3.1997   25.3434 H   0  0  0  0  0  0  0  0  0  0  0  0
   13.0612   -0.9250   21.7096 H   0  0  0  0  0  0  0  0  0  0  0  0
    6.4078    0.1158   21.2031 H   0  0  0  0  0  0  0  0  0  0  0  0
    9.3182   -2.2679   23.3632 H   0  0  0  0  0  0  0  0  0  0  0  0
    4.1952    0.8204   17.6062 H   0  0  0  0  0  0  0  0  0  0  0  0
    8.2433    0.1545   17.3168 H   0  0  0  0  0  0  0  0  0  0  0  0
    6.6986   -5.6968   24.4290 H   0  0  0  0  0  0  0  0  0  0  0  0
    5.9171   -6.3299   25.9086 H   0  0  0  0  0  0  0  0  0  0  0  0
    8.8364   -6.1742   25.4879 H   0  0  0  0  0  0  0  0  0  0  0  0
    8.2771   -2.6369   27.7360 H   0  0  0  0  0  0  0  0  0  0  0  0
    9.3112   -4.0362   28.0823 H   0  0  0  0  0  0  0  0  0  0  0  0
    7.5761   -4.1037   28.4465 H   0  0  0  0  0  0  0  0  0  0  0  0
   10.6692   -4.5845   25.5906 H   0  0  0  0  0  0  0  0  0  0  0  0
   10.5466   -3.1004   26.5183 H   0  0  0  0  0  0  0  0  0  0  0  0
    8.4643   -2.4685   25.2570 H   0  0  0  0  0  0  0  0  0  0  0  0
    8.5919   -3.9407   24.2992 H   0  0  0  0  0  0  0  0  0  0  0  0
   11.0080   -0.4427   20.6695 H   0  0  0  0  0  0  0  0  0  0  0  0
    9.5723    0.2024   19.4478 H   0  0  0  0  0  0  0  0  0  0  0  0
    6.2982   -3.6122   25.3572 H   0  0  0  0  0  0  0  0  0  0  0  0
    5.9891   -4.2177   26.8886 H   0  0  0  0  0  0  0  0  0  0  0  0
    7.7923   -7.4795   27.1416 H   0  0  0  0  0  0  0  0  0  0  0  0
  1  3  2  0  0  0  0
  1  4  1  0  0  0  0
  2  5  2  0  0  0  0
  2  7  1  0  0  0  0
  3  9  1  0  0  0  0
  4 10  2  0  0  0  0
  5 11  1  0  0  0  0
  6  9  2  0  0  0  0
  6 10  1  0  0  0  0
  7 19  2  0  0  0  0
  8 11  2  0  0  0  0
  8 19  1  0  0  0  0
  9 17  1  0  0  0  0
 10 20  1  0  0  0  0
 11 21  1  0  0  0  0
 12 20  1  0  0  0  0
 12 21  1  0  0  0  0
 12 23  2  0  0  0  0
 13 14  1  0  0  0  0
 13 22  1  0  0  0  0
 14 15  1  0  0  0  0
 14 24  1  0  0  0  0
 15 16  1  6  0  0  0
 15 18  1  0  0  0  0
 15 22  1  0  0  0  0
 17 18  1  0  0  0  0
  1 25  1  0  0  0  0
  2 26  1  0  0  0  0
  3 27  1  0  0  0  0
  4 28  1  0  0  0  0
  5 29  1  0  0  0  0
  6 30  1  0  0  0  0
  7 31  1  0  0  0  0
  8 32  1  0  0  0  0
 13 33  1  0  0  0  0
 13 34  1  0  0  0  0
 14 35  1  1  0  0  0
 16 36  1  0  0  0  0
 16 37  1  0  0  0  0
 16 38  1  0  0  0  0
 17 39  1  0  0  0  0
 17 40  1  0  0  0  0
 18 41  1  0  0  0  0
 18 42  1  0  0  0  0
 20 43  1  0  0  0  0
 21 44  1  0  0  0  0
 22 45  1  0  0  0  0
 22 46  1  0  0  0  0
 24 47  1  0  0  0  0
M  CHG  1  22   1
M  END
> <Chemgauss4 Score>
-6.37596368789673

> <Number of Confs>
121

$$$$
CHR-SOS-70e-5
  -OEChem-03242005443D

 48 50  0     0  0  0  0  0  0999 V2000
    5.9935    0.4202   19.9373 C   0  0  0  0  0  0  0  0  0  0  0  0
    6.9458   -0.2318   20.7128 C   0  0  0  0  0  0  0  0  0  0  0  0
   10.6636   -2.7798   26.5665 C   0  0  0  0  0  0  0  0  0  0  0  0
    8.7392   -2.5655   25.1216 C   0  0  0  0  0  0  0  0  0  0  0  0
   10.0305   -3.8135   27.2566 C   0  0  0  0  0  0  0  0  0  0  0  0
    8.1060   -3.5993   25.8116 C   0  0  0  0  0  0  0  0  0  0  0  0
    6.2325    0.5349   18.5773 C   0  0  0  0  0  0  0  0  0  0  0  0
    8.2368   -0.5754   18.7452 C   0  0  0  0  0  0  0  0  0  0  0  0
    8.0918   -0.7419   20.1130 C   0  0  0  0  0  0  0  0  0  0  0  0
   10.0179   -2.1557   25.4991 C   0  0  0  0  0  0  0  0  0  0  0  0
    8.7517   -4.2233   26.8791 C   0  0  0  0  0  0  0  0  0  0  0  0
    9.4106   -1.1934   22.2104 C   0  0  0  0  0  0  0  0  0  0  0  0
   13.6438   -2.2769   23.0807 C   0  0  0  0  0  0  0  0  0  0  0  0
   13.4221   -0.8891   22.4761 C   0  0  0  0  0  0  0  0  0  0  0  0
   12.5599   -2.4549   24.1388 C   0  0  0  0  0  0  0  0  0  0  0  0
   12.2078   -0.3043   23.1909 C   0  0  0  0  0  0  0  0  0  0  0  0
   11.4345   -1.5164   23.7063 C   0  0  0  0  0  0  0  0  0  0  0  0
    7.0701   -4.6964   29.0475 C   0  0  0  0  0  0  0  0  0  0  0  0
   10.5296   -2.1297   22.6386 C   0  0  0  0  0  0  0  0  0  0  0  0
    7.3336    0.0522   17.9591 N   0  0  0  0  0  0  0  0  0  0  0  0
    9.0788   -1.4101   20.8760 N   0  0  0  0  0  0  0  0  0  0  0  0
    8.9097   -0.3809   22.9808 O   0  0  0  0  0  0  0  0  0  0  0  0
    6.9825   -6.1215   26.8484 O   0  0  0  0  0  0  0  0  0  0  0  0
    8.9707   -6.3498   28.3784 O   0  0  0  0  0  0  0  0  0  0  0  0
   10.6390   -1.1421   24.8219 O   0  0  0  0  0  0  0  0  0  0  0  0
    7.9586   -5.5168   27.7435 S   0  0  0  0  0  0  0  0  0  0  0  0
    5.0926    0.8258   20.3835 H   0  0  0  0  0  0  0  0  0  0  0  0
    6.7850   -0.3366   21.7825 H   0  0  0  0  0  0  0  0  0  0  0  0
   11.6601   -2.4653   26.8647 H   0  0  0  0  0  0  0  0  0  0  0  0
    8.2312   -2.0832   24.2910 H   0  0  0  0  0  0  0  0  0  0  0  0
   10.5426   -4.2926   28.0866 H   0  0  0  0  0  0  0  0  0  0  0  0
    7.1097   -3.9105   25.5096 H   0  0  0  0  0  0  0  0  0  0  0  0
    5.5208    1.0355   17.9291 H   0  0  0  0  0  0  0  0  0  0  0  0
    9.1096   -0.9520   18.2201 H   0  0  0  0  0  0  0  0  0  0  0  0
   13.5938   -3.0639   22.3215 H   0  0  0  0  0  0  0  0  0  0  0  0
   14.6386   -2.3266   23.5385 H   0  0  0  0  0  0  0  0  0  0  0  0
   14.3066   -0.2647   22.6462 H   0  0  0  0  0  0  0  0  0  0  0  0
   13.2602   -0.9393   21.3947 H   0  0  0  0  0  0  0  0  0  0  0  0
   12.2192   -3.5004   24.1408 H   0  0  0  0  0  0  0  0  0  0  0  0
   12.9479   -2.2204   25.1387 H   0  0  0  0  0  0  0  0  0  0  0  0
   12.5179    0.3765   23.9940 H   0  0  0  0  0  0  0  0  0  0  0  0
   11.6031    0.2683   22.4734 H   0  0  0  0  0  0  0  0  0  0  0  0
    6.5451   -5.4516   29.6346 H   0  0  0  0  0  0  0  0  0  0  0  0
    7.7885   -4.1600   29.6692 H   0  0  0  0  0  0  0  0  0  0  0  0
    6.3605   -4.0013   28.5963 H   0  0  0  0  0  0  0  0  0  0  0  0
   10.0838   -3.0520   23.0265 H   0  0  0  0  0  0  0  0  0  0  0  0
   11.1283   -2.3844   21.7574 H   0  0  0  0  0  0  0  0  0  0  0  0
    9.5987   -2.1305   20.3792 H   0  0  0  0  0  0  0  0  0  0  0  0
  1  2  2  0  0  0  0
  1  7  1  0  0  0  0
  2  9  1  0  0  0  0
  3  5  2  0  0  0  0
  3 10  1  0  0  0  0
  4  6  1  0  0  0  0
  4 10  2  0  0  0  0
  5 11  1  0  0  0  0
  6 11  2  0  0  0  0
  7 20  2  0  0  0  0
  8  9  2  0  0  0  0
  8 20  1  0  0  0  0
  9 21  1  0  0  0  0
 10 25  1  0  0  0  0
 11 26  1  0  0  0  0
 12 19  1  0  0  0  0
 12 21  1  0  0  0  0
 12 22  2  0  0  0  0
 13 14  1  0  0  0  0
 13 15  1  0  0  0  0
 14 16  1  0  0  0  0
 15 17  1  0  0  0  0
 16 17  1  0  0  0  0
 17 19  1  0  0  0  0
 17 25  1  0  0  0  0
 18 26  1  0  0  0  0
 23 26  2  0  0  0  0
 24 26  2  0  0  0  0
  1 27  1  0  0  0  0
  2 28  1  0  0  0  0
  3 29  1  0  0  0  0
  4 30  1  0  0  0  0
  5 31  1  0  0  0  0
  6 32  1  0  0  0  0
  7 33  1  0  0  0  0
  8 34  1  0  0  0  0
 13 35  1  0  0  0  0
 13 36  1  0  0  0  0
 14 37  1  0  0  0  0
 14 38  1  0  0  0  0
 15 39  1  0  0  0  0
 15 40  1  0  0  0  0
 16 41  1  0  0  0  0
 16 42  1  0  0  0  0
 18 43  1  0  0  0  0
 18 44  1  0  0  0  0
 18 45  1  0  0  0  0
 19 46  1  0  0  0  0
 19 47  1  0  0  0  0
 21 48  1  0  0  0  0
M  END
> <Chemgauss4 Score>
-6.37543869018555

> <Number of Confs>
200

$$$$
CHR-SOS-6c4-9
  -OEChem-03242005443D

 40 42  0     0  0  0  0  0  0999 V2000
   10.0152   -2.3890   24.5333 C   0  0  0  0  0  0  0  0  0  0  0  0
   10.5817   -1.6880   23.7394 C   0  0  0  0  0  0  0  0  0  0  0  0
    5.6510    0.9056   18.3458 C   0  0  0  0  0  0  0  0  0  0  0  0
    4.8733    1.4220   19.3697 C   0  0  0  0  0  0  0  0  0  0  0  0
    8.3000   -4.0558   25.1118 C   0  0  0  0  0  0  0  0  0  0  0  0
    9.6851   -3.2536   26.8130 C   0  0  0  0  0  0  0  0  0  0  0  0
    6.4854    0.9695   20.9428 C   0  0  0  0  0  0  0  0  0  0  0  0
    8.0716   -4.7940   27.2495 C   0  0  0  0  0  0  0  0  0  0  0  0
    9.3397   -3.2253   25.4773 C   0  0  0  0  0  0  0  0  0  0  0  0
    6.9058    0.4030   18.6716 C   0  0  0  0  0  0  0  0  0  0  0  0
    7.3385    0.4317   19.9926 C   0  0  0  0  0  0  0  0  0  0  0  0
    9.1644   -0.1008   21.6549 C   0  0  0  0  0  0  0  0  0  0  0  0
   13.1906   -0.2191   23.5156 C   0  0  0  0  0  0  0  0  0  0  0  0
   11.8324    0.4882   23.3410 C   0  0  0  0  0  0  0  0  0  0  0  0
   12.7296   -1.2398   22.4564 C   0  0  0  0  0  0  0  0  0  0  0  0
   11.2641   -0.8441   22.7818 C   0  0  0  0  0  0  0  0  0  0  0  0
    7.7649   -0.1604   17.5875 C   0  0  0  0  0  0  0  0  0  0  0  0
    5.2596    1.4671   20.6645 N   0  0  0  0  0  0  0  0  0  0  0  0
    7.6411   -4.8564   25.9750 N   0  0  0  0  0  0  0  0  0  0  0  0
    9.0700   -4.0287   27.7301 N   0  0  0  0  0  0  0  0  0  0  0  0
    8.6060   -0.0668   20.3741 N   0  0  0  0  0  0  0  0  0  0  0  0
   10.4288   -0.6712   21.5972 N   0  0  0  0  0  0  0  0  0  0  0  0
    8.6436    0.3027   22.6920 O   0  0  0  0  0  0  0  0  0  0  0  0
    5.2837    0.8977   17.3252 H   0  0  0  0  0  0  0  0  0  0  0  0
    3.8867    1.8261   19.1681 H   0  0  0  0  0  0  0  0  0  0  0  0
    7.9495   -4.1125   24.0852 H   0  0  0  0  0  0  0  0  0  0  0  0
   10.4891   -2.6386   27.2069 H   0  0  0  0  0  0  0  0  0  0  0  0
    6.7667    1.0204   21.9906 H   0  0  0  0  0  0  0  0  0  0  0  0
    7.5605   -5.4272   27.9645 H   0  0  0  0  0  0  0  0  0  0  0  0
   14.0482    0.3872   23.2009 H   0  0  0  0  0  0  0  0  0  0  0  0
   13.3902   -0.6251   24.5110 H   0  0  0  0  0  0  0  0  0  0  0  0
   11.3882    0.8129   24.2913 H   0  0  0  0  0  0  0  0  0  0  0  0
   11.8394    1.3433   22.6571 H   0  0  0  0  0  0  0  0  0  0  0  0
   13.0766   -1.0393   21.4374 H   0  0  0  0  0  0  0  0  0  0  0  0
   12.9920   -2.2754   22.7103 H   0  0  0  0  0  0  0  0  0  0  0  0
    8.3959    0.6253   17.1560 H   0  0  0  0  0  0  0  0  0  0  0  0
    8.4128   -0.9587   17.9698 H   0  0  0  0  0  0  0  0  0  0  0  0
    7.1561   -0.5990   16.7871 H   0  0  0  0  0  0  0  0  0  0  0  0
    9.1760   -0.4458   19.6219 H   0  0  0  0  0  0  0  0  0  0  0  0
   10.7825   -0.9767   20.7060 H   0  0  0  0  0  0  0  0  0  0  0  0
  1  2  3  0  0  0  0
  1  9  1  0  0  0  0
  2 16  1  0  0  0  0
  3  4  2  0  0  0  0
  3 10  1  0  0  0  0
  4 18  1  0  0  0  0
  5  9  1  0  0  0  0
  5 19  2  0  0  0  0
  6  9  2  0  0  0  0
  6 20  1  0  0  0  0
  7 11  1  0  0  0  0
  7 18  2  0  0  0  0
  8 19  1  0  0  0  0
  8 20  2  0  0  0  0
 10 11  2  0  0  0  0
 10 17  1  0  0  0  0
 11 21  1  0  0  0  0
 12 21  1  0  0  0  0
 12 22  1  0  0  0  0
 12 23  2  0  0  0  0
 13 14  1  0  0  0  0
 13 15  1  0  0  0  0
 14 16  1  0  0  0  0
 15 16  1  0  0  0  0
 16 22  1  0  0  0  0
  3 24  1  0  0  0  0
  4 25  1  0  0  0  0
  5 26  1  0  0  0  0
  6 27  1  0  0  0  0
  7 28  1  0  0  0  0
  8 29  1  0  0  0  0
 13 30  1  0  0  0  0
 13 31  1  0  0  0  0
 14 32  1  0  0  0  0
 14 33  1  0  0  0  0
 15 34  1  0  0  0  0
 15 35  1  0  0  0  0
 17 36  1  0  0  0  0
 17 37  1  0  0  0  0
 17 38  1  0  0  0  0
 21 39  1  0  0  0  0
 22 40  1  0  0  0  0
M  END
> <Chemgauss4 Score>
-6.37186431884766

> <Number of Confs>
5

$$$$
CHR-SOS-70e-2
  -OEChem-03242005443D

 50 52  0     0  0  0  0  0  0999 V2000
    5.7934    1.7146   19.1276 C   0  0  0  0  0  0  0  0  0  0  0  0
    6.4139    1.5162   20.3560 C   0  0  0  0  0  0  0  0  0  0  0  0
    8.3956   -3.3155   25.1238 C   0  0  0  0  0  0  0  0  0  0  0  0
   10.6503   -4.0451   25.5942 C   0  0  0  0  0  0  0  0  0  0  0  0
    7.9511   -3.9365   26.2910 C   0  0  0  0  0  0  0  0  0  0  0  0
   10.2058   -4.6661   26.7614 C   0  0  0  0  0  0  0  0  0  0  0  0
    6.2837    1.0198   18.0337 C   0  0  0  0  0  0  0  0  0  0  0  0
    7.9045   -0.0056   19.2984 C   0  0  0  0  0  0  0  0  0  0  0  0
    7.4904    0.6413   20.4516 C   0  0  0  0  0  0  0  0  0  0  0  0
    9.7452   -3.3698   24.7753 C   0  0  0  0  0  0  0  0  0  0  0  0
    8.8562   -4.6117   27.1098 C   0  0  0  0  0  0  0  0  0  0  0  0
    8.7850   -0.7407   22.1117 C   0  0  0  0  0  0  0  0  0  0  0  0
   12.9037    0.4077   24.2946 C   0  0  0  0  0  0  0  0  0  0  0  0
   11.8296    0.1716   25.3527 C   0  0  0  0  0  0  0  0  0  0  0  0
   12.3609    0.2318   22.8791 C   0  0  0  0  0  0  0  0  0  0  0  0
   11.1518   -1.1848   25.1732 C   0  0  0  0  0  0  0  0  0  0  0  0
   11.6834   -1.1250   22.7014 C   0  0  0  0  0  0  0  0  0  0  0  0
   10.5971   -1.3968   23.7550 C   0  0  0  0  0  0  0  0  0  0  0  0
    9.3480   -0.5455   23.5068 C   0  0  0  0  0  0  0  0  0  0  0  0
    7.3269    0.1618   18.0876 N   0  0  0  0  0  0  0  0  0  0  0  0
    8.4738   -4.1213   29.7017 N   0  0  0  0  0  0  0  0  0  0  0  0
    8.1422    0.4190   21.6879 N   0  0  0  0  0  0  0  0  0  0  0  0
    8.9096   -1.7926   21.4933 O   0  0  0  0  0  0  0  0  0  0  0  0
    6.8836   -5.6931   28.4186 O   0  0  0  0  0  0  0  0  0  0  0  0
    9.2344   -6.4529   28.9131 O   0  0  0  0  0  0  0  0  0  0  0  0
   10.1808   -2.7611   23.6323 O   0  0  0  0  0  0  0  0  0  0  0  0
    8.2997   -5.3900   28.5707 S   0  0  0  0  0  0  0  0  0  0  0  0
    4.9527    2.3919   19.0297 H   0  0  0  0  0  0  0  0  0  0  0  0
    6.0508    2.0478   21.2316 H   0  0  0  0  0  0  0  0  0  0  0  0
    7.6860   -2.7902   24.4903 H   0  0  0  0  0  0  0  0  0  0  0  0
   11.7027   -4.0909   25.3279 H   0  0  0  0  0  0  0  0  0  0  0  0
    6.8976   -3.8879   26.5529 H   0  0  0  0  0  0  0  0  0  0  0  0
   10.9192   -5.1898   27.3920 H   0  0  0  0  0  0  0  0  0  0  0  0
    5.8350    1.1405   17.0532 H   0  0  0  0  0  0  0  0  0  0  0  0
    8.7390   -0.7005   19.3097 H   0  0  0  0  0  0  0  0  0  0  0  0
   13.3078    1.4230   24.4062 H   0  0  0  0  0  0  0  0  0  0  0  0
   13.7396   -0.2845   24.4570 H   0  0  0  0  0  0  0  0  0  0  0  0
   12.2807    0.2323   26.3507 H   0  0  0  0  0  0  0  0  0  0  0  0
   11.0788    0.9682   25.2962 H   0  0  0  0  0  0  0  0  0  0  0  0
   11.6445    1.0318   22.6592 H   0  0  0  0  0  0  0  0  0  0  0  0
   13.1808    0.3351   22.1576 H   0  0  0  0  0  0  0  0  0  0  0  0
   11.8859   -1.9697   25.4101 H   0  0  0  0  0  0  0  0  0  0  0  0
   10.3380   -1.2772   25.9086 H   0  0  0  0  0  0  0  0  0  0  0  0
   11.2440   -1.1756   21.6931 H   0  0  0  0  0  0  0  0  0  0  0  0
   12.4583   -1.9051   22.7487 H   0  0  0  0  0  0  0  0  0  0  0  0
    9.6047    0.5074   23.6426 H   0  0  0  0  0  0  0  0  0  0  0  0
    8.5843   -0.8153   24.2396 H   0  0  0  0  0  0  0  0  0  0  0  0
    7.6207   -3.6752   30.0605 H   0  0  0  0  0  0  0  0  0  0  0  0
    9.2274   -4.1945   30.3960 H   0  0  0  0  0  0  0  0  0  0  0  0
    8.1327    1.2068   22.3324 H   0  0  0  0  0  0  0  0  0  0  0  0
  1  2  2  0  0  0  0
  1  7  1  0  0  0  0
  2  9  1  0  0  0  0
  3  5  2  0  0  0  0
  3 10  1  0  0  0  0
  4  6  1  0  0  0  0
  4 10  2  0  0  0  0
  5 11  1  0  0  0  0
  6 11  2  0  0  0  0
  7 20  2  0  0  0  0
  8  9  2  0  0  0  0
  8 20  1  0  0  0  0
  9 22  1  0  0  0  0
 10 26  1  0  0  0  0
 11 27  1  0  0  0  0
 12 19  1  0  0  0  0
 12 22  1  0  0  0  0
 12 23  2  0  0  0  0
 13 14  1  0  0  0  0
 13 15  1  0  0  0  0
 14 16  1  0  0  0  0
 15 17  1  0  0  0  0
 16 18  1  0  0  0  0
 17 18  1  0  0  0  0
 18 19  1  0  0  0  0
 18 26  1  0  0  0  0
 21 27  1  0  0  0  0
 24 27  2  0  0  0  0
 25 27  2  0  0  0  0
  1 28  1  0  0  0  0
  2 29  1  0  0  0  0
  3 30  1  0  0  0  0
  4 31  1  0  0  0  0
  5 32  1  0  0  0  0
  6 33  1  0  0  0  0
  7 34  1  0  0  0  0
  8 35  1  0  0  0  0
 13 36  1  0  0  0  0
 13 37  1  0  0  0  0
 14 38  1  0  0  0  0
 14 39  1  0  0  0  0
 15 40  1  0  0  0  0
 15 41  1  0  0  0  0
 16 42  1  0  0  0  0
 16 43  1  0  0  0  0
 17 44  1  0  0  0  0
 17 45  1  0  0  0  0
 19 46  1  0  0  0  0
 19 47  1  0  0  0  0
 21 48  1  0  0  0  0
 21 49  1  0  0  0  0
 22 50  1  0  0  0  0
M  END
> <Chemgauss4 Score>
-6.37075424194336

> <Number of Confs>
200

$$$$
SAL-INS-1c7-3
  -OEChem-03242005443D

 49 51  0     1  0  0  0  0  0999 V2000
   10.2298   -4.1310   25.5499 C   0  0  0  0  0  0  0  0  0  0  0  0
   10.5177   -3.6063   24.2908 C   0  0  0  0  0  0  0  0  0  0  0  0
    8.7675   -2.2630   25.9900 C   0  0  0  0  0  0  0  0  0  0  0  0
   12.1873   -0.2011   23.0974 C   0  0  0  0  0  0  0  0  0  0  0  0
   13.6505   -1.0358   21.6765 C   0  0  0  0  0  0  0  0  0  0  0  0
    9.3538   -3.4605   26.3984 C   0  0  0  0  0  0  0  0  0  0  0  0
    9.9311   -2.4027   23.8666 C   0  0  0  0  0  0  0  0  0  0  0  0
    9.0532   -1.7199   24.7282 C   0  0  0  0  0  0  0  0  0  0  0  0
   11.6570   -1.2540   22.3898 C   0  0  0  0  0  0  0  0  0  0  0  0
    9.0501   -4.0086   27.7108 C   0  0  0  0  0  0  0  0  0  0  0  0
    8.8828    1.4876   22.7370 C   0  0  0  0  0  0  0  0  0  0  0  0
    8.3950   -0.4214   24.3303 C   0  0  0  0  0  0  0  0  0  0  0  0
    9.1860   -0.8562   22.0178 C   0  0  0  0  0  0  0  0  0  0  0  0
   10.2593   -1.8495   22.4920 C   0  0  2  0  0  0  0  0  0  0  0  0
    5.6888   -4.8260   26.9905 C   0  0  0  0  0  0  0  0  0  0  0  0
    7.2160   -6.7681   26.4989 C   0  0  0  0  0  0  0  0  0  0  0  0
    7.6066   -5.4938   29.1220 C   0  0  0  0  0  0  0  0  0  0  0  0
    8.3930    2.4306   23.8077 C   0  0  0  0  0  0  0  0  0  0  0  0
    7.1191   -5.2646   26.7119 C   0  0  0  0  0  0  0  0  0  0  0  0
   12.5730   -1.7694   21.5072 N   0  0  0  0  0  0  0  0  0  0  0  0
   13.4650   -0.0735   22.6298 N   0  0  0  0  0  0  0  0  0  0  0  0
    8.8630    0.1267   23.0511 N   0  0  0  0  0  0  0  0  0  0  0  0
    7.9632   -4.8918   27.8450 N   0  0  0  0  0  0  0  0  0  0  0  0
    9.7877   -3.6690   28.6456 O   0  0  0  0  0  0  0  0  0  0  0  0
    9.2764    1.9459   21.6616 O   0  0  0  0  0  0  0  0  0  0  0  0
    7.7378    3.8371   22.9774 Cl  0  0  0  0  0  0  0  0  0  0  0  0
   10.6934   -5.0648   25.8571 H   0  0  0  0  0  0  0  0  0  0  0  0
   11.2005   -4.1445   23.6377 H   0  0  0  0  0  0  0  0  0  0  0  0
    8.0832   -1.7415   26.6565 H   0  0  0  0  0  0  0  0  0  0  0  0
   11.7896    0.4477   23.8645 H   0  0  0  0  0  0  0  0  0  0  0  0
   14.5865   -1.1474   21.1475 H   0  0  0  0  0  0  0  0  0  0  0  0
    7.3155   -0.5828   24.2251 H   0  0  0  0  0  0  0  0  0  0  0  0
    8.5568    0.3098   25.1271 H   0  0  0  0  0  0  0  0  0  0  0  0
    9.5087   -0.3603   21.0956 H   0  0  0  0  0  0  0  0  0  0  0  0
    8.2537   -1.3885   21.7886 H   0  0  0  0  0  0  0  0  0  0  0  0
   10.2146   -2.7126   21.7334 H   0  0  0  0  0  0  0  0  0  0  0  0
    5.2907   -5.3333   27.8754 H   0  0  0  0  0  0  0  0  0  0  0  0
    5.6276   -3.7452   27.1602 H   0  0  0  0  0  0  0  0  0  0  0  0
    5.0374   -5.0631   26.1421 H   0  0  0  0  0  0  0  0  0  0  0  0
    6.8439   -7.3092   27.3758 H   0  0  0  0  0  0  0  0  0  0  0  0
    8.2541   -7.0718   26.3286 H   0  0  0  0  0  0  0  0  0  0  0  0
    6.6207   -7.0896   25.6370 H   0  0  0  0  0  0  0  0  0  0  0  0
    6.8906   -4.8443   29.6469 H   0  0  0  0  0  0  0  0  0  0  0  0
    7.1486   -6.4787   28.9478 H   0  0  0  0  0  0  0  0  0  0  0  0
    8.5113   -5.6135   29.7362 H   0  0  0  0  0  0  0  0  0  0  0  0
    9.2319    2.7218   24.4289 H   0  0  0  0  0  0  0  0  0  0  0  0
    7.6145    1.9384   24.3787 H   0  0  0  0  0  0  0  0  0  0  0  0
    7.4960   -4.7453   25.8240 H   0  0  0  0  0  0  0  0  0  0  0  0
   14.1478    0.6081   22.9325 H   0  0  0  0  0  0  0  0  0  0  0  0
  1  2  2  0  0  0  0
  1  6  1  0  0  0  0
  2  7  1  0  0  0  0
  3  6  2  0  0  0  0
  3  8  1  0  0  0  0
  4  9  2  0  0  0  0
  4 21  1  0  0  0  0
  5 20  2  0  0  0  0
  5 21  1  0  0  0  0
  6 10  1  0  0  0  0
  7  8  2  0  0  0  0
  7 14  1  0  0  0  0
  8 12  1  0  0  0  0
  9 14  1  1  0  0  0
  9 20  1  0  0  0  0
 10 23  1  0  0  0  0
 10 24  2  0  0  0  0
 11 18  1  0  0  0  0
 11 22  1  0  0  0  0
 11 25  2  0  0  0  0
 12 22  1  0  0  0  0
 13 14  1  0  0  0  0
 13 22  1  0  0  0  0
 15 19  1  0  0  0  0
 16 19  1  0  0  0  0
 17 23  1  0  0  0  0
 18 26  1  0  0  0  0
 19 23  1  0  0  0  0
  1 27  1  0  0  0  0
  2 28  1  0  0  0  0
  3 29  1  0  0  0  0
  4 30  1  0  0  0  0
  5 31  1  0  0  0  0
 12 32  1  0  0  0  0
 12 33  1  0  0  0  0
 13 34  1  0  0  0  0
 13 35  1  0  0  0  0
 14 36  1  0  0  0  0
 15 37  1  0  0  0  0
 15 38  1  0  0  0  0
 15 39  1  0  0  0  0
 16 40  1  0  0  0  0
 16 41  1  0  0  0  0
 16 42  1  0  0  0  0
 17 43  1  0  0  0  0
 17 44  1  0  0  0  0
 17 45  1  0  0  0  0
 18 46  1  0  0  0  0
 18 47  1  0  0  0  0
 19 48  1  0  0  0  0
 21 49  1  0  0  0  0
M  END
> <Chemgauss4 Score>
-6.35277605056763

> <Number of Confs>
200

$$$$
DUN-NEW-f8c-3
  -OEChem-03242005443D

 47 49  0     1  0  0  0  0  0999 V2000
    5.9317   -5.1492   22.5883 C   0  0  0  0  0  0  0  0  0  0  0  0
    5.5661   -5.8699   23.7252 C   0  0  0  0  0  0  0  0  0  0  0  0
    6.8993   -4.1484   22.6782 C   0  0  0  0  0  0  0  0  0  0  0  0
    6.1680   -5.5900   24.9519 C   0  0  0  0  0  0  0  0  0  0  0  0
    7.5012   -3.8685   23.9050 C   0  0  0  0  0  0  0  0  0  0  0  0
    7.1356   -4.5892   25.0419 C   0  0  0  0  0  0  0  0  0  0  0  0
    9.7187   -5.6420   26.6214 C   0  0  0  0  0  0  0  0  0  0  0  0
   11.4253   -0.0545   23.3559 C   0  0  0  0  0  0  0  0  0  0  0  0
    8.5139   -3.1796   28.1716 C   0  0  0  0  0  0  0  0  0  0  0  0
    8.4185   -4.6637   28.4975 C   0  0  0  0  0  0  0  0  0  0  0  0
    7.6432   -3.0259   26.9289 C   0  0  0  0  0  0  0  0  0  0  0  0
    9.8723   -3.2425   23.7492 C   0  0  0  0  0  0  0  0  0  0  0  0
    8.1097   -1.4836   23.6023 C   0  0  0  0  0  0  0  0  0  0  0  0
   10.8099   -2.2193   24.3861 C   0  0  0  0  0  0  0  0  0  0  0  0
    9.0802   -0.4886   24.2385 C   0  0  0  0  0  0  0  0  0  0  0  0
    8.3425   -5.3349   27.1252 C   0  0  1  0  0  0  0  0  0  0  0  0
   12.5015   -0.7550   22.5658 C   0  0  0  0  0  0  0  0  0  0  0  0
    8.4689   -2.8595   23.9730 N   0  0  0  0  0  0  0  0  0  0  0  0
    7.7194   -4.3280   26.2669 N   0  0  3  0  0  0  0  0  0  0  0  0
   10.4662   -0.8663   23.9563 N   0  0  0  0  0  0  0  0  0  0  0  0
    9.9266   -6.9743   26.3532 N   0  0  0  0  0  0  0  0  0  0  0  0
   10.5633   -4.7656   26.4544 O   0  0  0  0  0  0  0  0  0  0  0  0
   11.4398    1.1763   23.4374 O   0  0  0  0  0  0  0  0  0  0  0  0
   13.8285   -1.0564   23.6816 Cl  0  0  0  0  0  0  0  0  0  0  0  0
    5.4634   -5.3675   21.6331 H   0  0  0  0  0  0  0  0  0  0  0  0
    4.8134   -6.6497   23.6549 H   0  0  0  0  0  0  0  0  0  0  0  0
    7.1757   -3.5933   21.7854 H   0  0  0  0  0  0  0  0  0  0  0  0
    5.8754   -6.1588   25.8309 H   0  0  0  0  0  0  0  0  0  0  0  0
    8.1727   -2.5514   28.9995 H   0  0  0  0  0  0  0  0  0  0  0  0
    9.5507   -2.9081   27.9408 H   0  0  0  0  0  0  0  0  0  0  0  0
    9.2692   -4.9983   29.0992 H   0  0  0  0  0  0  0  0  0  0  0  0
    7.4969   -4.8585   29.0593 H   0  0  0  0  0  0  0  0  0  0  0  0
    6.6069   -2.7997   27.2204 H   0  0  0  0  0  0  0  0  0  0  0  0
    8.0012   -2.2213   26.2728 H   0  0  0  0  0  0  0  0  0  0  0  0
   10.0688   -3.3128   22.6742 H   0  0  0  0  0  0  0  0  0  0  0  0
   10.0611   -4.2261   24.1901 H   0  0  0  0  0  0  0  0  0  0  0  0
    7.0860   -1.2810   23.9339 H   0  0  0  0  0  0  0  0  0  0  0  0
    8.1315   -1.3544   22.5146 H   0  0  0  0  0  0  0  0  0  0  0  0
   10.7257   -2.2492   25.4711 H   0  0  0  0  0  0  0  0  0  0  0  0
   11.8355   -2.4480   24.1124 H   0  0  0  0  0  0  0  0  0  0  0  0
    8.9256    0.5141   23.8371 H   0  0  0  0  0  0  0  0  0  0  0  0
    8.9180   -0.4474   25.3149 H   0  0  0  0  0  0  0  0  0  0  0  0
    7.7797   -6.2761   27.1888 H   0  0  0  0  0  0  0  0  0  0  0  0
   12.8288   -0.1026   21.7648 H   0  0  0  0  0  0  0  0  0  0  0  0
   12.1076   -1.6929   22.1926 H   0  0  0  0  0  0  0  0  0  0  0  0
    9.1654   -7.6270   26.5089 H   0  0  0  0  0  0  0  0  0  0  0  0
   10.8107   -7.3313   26.0057 H   0  0  0  0  0  0  0  0  0  0  0  0
  1  2  1  0  0  0  0
  1  3  2  0  0  0  0
  2  4  2  0  0  0  0
  3  5  1  0  0  0  0
  4  6  1  0  0  0  0
  5  6  2  0  0  0  0
  5 18  1  0  0  0  0
  6 19  1  1  0  0  0
  7 16  1  6  0  0  0
  7 21  1  0  0  0  0
  7 22  2  0  0  0  0
  8 17  1  0  0  0  0
  8 20  1  0  0  0  0
  8 23  2  0  0  0  0
  9 10  1  0  0  0  0
  9 11  1  0  0  0  0
 10 16  1  0  0  0  0
 11 19  1  0  0  0  0
 12 14  1  0  0  0  0
 12 18  1  0  0  0  0
 13 15  1  0  0  0  0
 13 18  1  0  0  0  0
 14 20  1  0  0  0  0
 15 20  1  0  0  0  0
 16 19  1  0  0  0  0
 17 24  1  0  0  0  0
  1 25  1  0  0  0  0
  2 26  1  0  0  0  0
  3 27  1  0  0  0  0
  4 28  1  0  0  0  0
  9 29  1  0  0  0  0
  9 30  1  0  0  0  0
 10 31  1  0  0  0  0
 10 32  1  0  0  0  0
 11 33  1  0  0  0  0
 11 34  1  0  0  0  0
 12 35  1  0  0  0  0
 12 36  1  0  0  0  0
 13 37  1  0  0  0  0
 13 38  1  0  0  0  0
 14 39  1  0  0  0  0
 14 40  1  0  0  0  0
 15 41  1  0  0  0  0
 15 42  1  0  0  0  0
 16 43  1  0  0  0  0
 17 44  1  0  0  0  0
 17 45  1  0  0  0  0
 21 46  1  0  0  0  0
 21 47  1  0  0  0  0
M  END
> <Chemgauss4 Score>
-6.34722471237183

> <Number of Confs>
136

$$$$
CHR-SOS-6c4-3
  -OEChem-03242005443D

 46 48  0     0  0  0  0  0  0999 V2000
    8.8780   -1.0033   21.3394 C   0  0  0  0  0  0  0  0  0  0  0  0
    9.6280   -1.5071   22.1309 C   0  0  0  0  0  0  0  0  0  0  0  0
    5.8755   -7.0468   25.9762 C   0  0  0  0  0  0  0  0  0  0  0  0
    4.9417   -6.0918   26.3448 C   0  0  0  0  0  0  0  0  0  0  0  0
    6.8107    0.2107   20.7855 C   0  0  0  0  0  0  0  0  0  0  0  0
    8.2360   -0.4061   19.0407 C   0  0  0  0  0  0  0  0  0  0  0  0
    6.2314   -4.3812   25.5151 C   0  0  0  0  0  0  0  0  0  0  0  0
    6.3034    0.7174   18.6285 C   0  0  0  0  0  0  0  0  0  0  0  0
    7.9832   -0.4048   20.3973 C   0  0  0  0  0  0  0  0  0  0  0  0
    7.0366   -6.6126   25.3465 C   0  0  0  0  0  0  0  0  0  0  0  0
    7.2257   -5.2560   25.1078 C   0  0  0  0  0  0  0  0  0  0  0  0
    8.7075   -3.4377   24.1703 C   0  0  0  0  0  0  0  0  0  0  0  0
   12.8954   -0.2944   23.3779 C   0  0  0  0  0  0  0  0  0  0  0  0
   12.7212   -1.1634   22.1375 C   0  0  0  0  0  0  0  0  0  0  0  0
   11.5540    0.0505   24.0148 C   0  0  0  0  0  0  0  0  0  0  0  0
   11.9088   -2.4238   22.4404 C   0  0  0  0  0  0  0  0  0  0  0  0
   10.7369   -1.2049   24.3256 C   0  0  0  0  0  0  0  0  0  0  0  0
   10.5497   -2.1275   23.1049 C   0  0  0  0  0  0  0  0  0  0  0  0
    8.0605   -7.6207   24.9388 C   0  0  0  0  0  0  0  0  0  0  0  0
    5.0903   -4.7654   26.1297 N   0  0  0  0  0  0  0  0  0  0  0  0
    5.9444    0.7841   19.9247 N   0  0  0  0  0  0  0  0  0  0  0  0
    7.4147    0.1477   18.1246 N   0  0  0  0  0  0  0  0  0  0  0  0
    8.3891   -4.7651   24.4705 N   0  0  0  0  0  0  0  0  0  0  0  0
    9.9492   -3.3758   23.5387 N   0  0  0  0  0  0  0  0  0  0  0  0
    8.0215   -2.4473   24.4116 O   0  0  0  0  0  0  0  0  0  0  0  0
    5.6976   -8.0978   26.1771 H   0  0  0  0  0  0  0  0  0  0  0  0
    4.0194   -6.3787   26.8391 H   0  0  0  0  0  0  0  0  0  0  0  0
    6.5165    0.2700   21.8294 H   0  0  0  0  0  0  0  0  0  0  0  0
    9.1302   -0.8641   18.6280 H   0  0  0  0  0  0  0  0  0  0  0  0
    6.3209   -3.3105   25.3564 H   0  0  0  0  0  0  0  0  0  0  0  0
    5.6262    1.1706   17.9149 H   0  0  0  0  0  0  0  0  0  0  0  0
   13.5266   -0.8147   24.1069 H   0  0  0  0  0  0  0  0  0  0  0  0
   13.4186    0.6303   23.1049 H   0  0  0  0  0  0  0  0  0  0  0  0
   12.2180   -0.5853   21.3536 H   0  0  0  0  0  0  0  0  0  0  0  0
   13.7055   -1.4413   21.7410 H   0  0  0  0  0  0  0  0  0  0  0  0
   11.7216    0.6187   24.9370 H   0  0  0  0  0  0  0  0  0  0  0  0
   10.9847    0.7002   23.3414 H   0  0  0  0  0  0  0  0  0  0  0  0
   11.7443   -2.9649   21.4956 H   0  0  0  0  0  0  0  0  0  0  0  0
   12.5065   -3.1029   23.0661 H   0  0  0  0  0  0  0  0  0  0  0  0
   11.2043   -1.7495   25.1572 H   0  0  0  0  0  0  0  0  0  0  0  0
    9.7516   -0.8881   24.6972 H   0  0  0  0  0  0  0  0  0  0  0  0
    7.8612   -7.9741   23.9206 H   0  0  0  0  0  0  0  0  0  0  0  0
    9.0707   -7.1941   24.9694 H   0  0  0  0  0  0  0  0  0  0  0  0
    8.0579   -8.4841   25.6156 H   0  0  0  0  0  0  0  0  0  0  0  0
    9.0740   -5.4667   24.2005 H   0  0  0  0  0  0  0  0  0  0  0  0
   10.4531   -4.2377   23.3760 H   0  0  0  0  0  0  0  0  0  0  0  0
  1  2  3  0  0  0  0
  1  9  1  0  0  0  0
  2 18  1  0  0  0  0
  3  4  2  0  0  0  0
  3 10  1  0  0  0  0
  4 20  1  0  0  0  0
  5  9  1  0  0  0  0
  5 21  2  0  0  0  0
  6  9  2  0  0  0  0
  6 22  1  0  0  0  0
  7 11  1  0  0  0  0
  7 20  2  0  0  0  0
  8 21  1  0  0  0  0
  8 22  2  0  0  0  0
 10 11  2  0  0  0  0
 10 19  1  0  0  0  0
 11 23  1  0  0  0  0
 12 23  1  0  0  0  0
 12 24  1  0  0  0  0
 12 25  2  0  0  0  0
 13 14  1  0  0  0  0
 13 15  1  0  0  0  0
 14 16  1  0  0  0  0
 15 17  1  0  0  0  0
 16 18  1  0  0  0  0
 17 18  1  0  0  0  0
 18 24  1  0  0  0  0
  3 26  1  0  0  0  0
  4 27  1  0  0  0  0
  5 28  1  0  0  0  0
  6 29  1  0  0  0  0
  7 30  1  0  0  0  0
  8 31  1  0  0  0  0
 13 32  1  0  0  0  0
 13 33  1  0  0  0  0
 14 34  1  0  0  0  0
 14 35  1  0  0  0  0
 15 36  1  0  0  0  0
 15 37  1  0  0  0  0
 16 38  1  0  0  0  0
 16 39  1  0  0  0  0
 17 40  1  0  0  0  0
 17 41  1  0  0  0  0
 19 42  1  0  0  0  0
 19 43  1  0  0  0  0
 19 44  1  0  0  0  0
 23 45  1  0  0  0  0
 24 46  1  0  0  0  0
M  END
> <Chemgauss4 Score>
-6.33896160125732

> <Number of Confs>
5

$$$$
CHR-SOS-1f3-11
  -OEChem-03242005443D

 43 45  0     0  0  0  0  0  0999 V2000
   10.3290   -5.3363   25.6932 C   0  0  0  0  0  0  0  0  0  0  0  0
    9.3707   -5.4866   24.6909 C   0  0  0  0  0  0  0  0  0  0  0  0
   10.1251   -4.4149   26.7205 C   0  0  0  0  0  0  0  0  0  0  0  0
   13.7391   -0.2642   22.6729 C   0  0  0  0  0  0  0  0  0  0  0  0
    8.0047   -3.7943   25.7430 C   0  0  0  0  0  0  0  0  0  0  0  0
   13.2882    0.6629   23.5986 C   0  0  0  0  0  0  0  0  0  0  0  0
   11.2288   -0.3456   23.7391 C   0  0  0  0  0  0  0  0  0  0  0  0
   12.8641   -1.2714   22.2813 C   0  0  0  0  0  0  0  0  0  0  0  0
   11.5831   -1.3199   22.8198 C   0  0  0  0  0  0  0  0  0  0  0  0
    8.2085   -4.7156   24.7158 C   0  0  0  0  0  0  0  0  0  0  0  0
    8.9630   -3.6439   26.7454 C   0  0  0  0  0  0  0  0  0  0  0  0
    9.3473   -2.4918   22.9122 C   0  0  0  0  0  0  0  0  0  0  0  0
    6.2416   -3.1202   22.3103 C   0  0  0  0  0  0  0  0  0  0  0  0
    6.4490   -4.3379   21.4605 C   0  0  0  0  0  0  0  0  0  0  0  0
    7.4081   -4.0345   22.5825 C   0  0  0  0  0  0  0  0  0  0  0  0
   13.3238   -2.2839   21.2843 C   0  0  0  0  0  0  0  0  0  0  0  0
   12.0512    0.6481   24.1437 N   0  0  0  0  0  0  0  0  0  0  0  0
    7.8927   -3.4625   29.1798 N   0  0  0  0  0  0  0  0  0  0  0  0
   10.6570   -2.3244   22.4538 N   0  0  0  0  0  0  0  0  0  0  0  0
    8.7378   -3.6150   22.3115 N   0  0  0  0  0  0  0  0  0  0  0  0
    8.7603   -1.7839   23.7271 O   0  0  0  0  0  0  0  0  0  0  0  0
   10.0043   -2.1133   28.5746 O   0  0  0  0  0  0  0  0  0  0  0  0
    7.7926   -1.4635   27.5579 O   0  0  0  0  0  0  0  0  0  0  0  0
    7.2738   -4.8616   23.7372 O   0  0  0  0  0  0  0  0  0  0  0  0
    8.7069   -2.4924   28.0330 S   0  0  0  0  0  0  0  0  0  0  0  0
   11.2339   -5.9363   25.6736 H   0  0  0  0  0  0  0  0  0  0  0  0
    9.5354   -6.2058   23.8933 H   0  0  0  0  0  0  0  0  0  0  0  0
   10.8775   -4.3065   27.4970 H   0  0  0  0  0  0  0  0  0  0  0  0
   14.7447   -0.1981   22.2717 H   0  0  0  0  0  0  0  0  0  0  0  0
    7.0972   -3.1954   25.7578 H   0  0  0  0  0  0  0  0  0  0  0  0
   13.9319    1.4683   23.9367 H   0  0  0  0  0  0  0  0  0  0  0  0
   10.2432   -0.3305   24.1949 H   0  0  0  0  0  0  0  0  0  0  0  0
    6.4369   -2.1543   21.8602 H   0  0  0  0  0  0  0  0  0  0  0  0
    5.4111   -3.1262   23.0059 H   0  0  0  0  0  0  0  0  0  0  0  0
    5.7583   -5.1632   21.5848 H   0  0  0  0  0  0  0  0  0  0  0  0
    6.7836   -4.1884   20.4409 H   0  0  0  0  0  0  0  0  0  0  0  0
   13.7848   -3.1374   21.7947 H   0  0  0  0  0  0  0  0  0  0  0  0
   12.4871   -2.6502   20.6768 H   0  0  0  0  0  0  0  0  0  0  0  0
   14.0571   -1.8531   20.5913 H   0  0  0  0  0  0  0  0  0  0  0  0
    8.4020   -3.7338   30.0298 H   0  0  0  0  0  0  0  0  0  0  0  0
    6.8917   -3.2903   29.3329 H   0  0  0  0  0  0  0  0  0  0  0  0
   10.9887   -3.0044   21.7743 H   0  0  0  0  0  0  0  0  0  0  0  0
    9.2887   -4.1610   21.6386 H   0  0  0  0  0  0  0  0  0  0  0  0
  1  2  2  0  0  0  0
  1  3  1  0  0  0  0
  2 10  1  0  0  0  0
  3 11  2  0  0  0  0
  4  6  2  0  0  0  0
  4  8  1  0  0  0  0
  5 10  2  0  0  0  0
  5 11  1  0  0  0  0
  6 17  1  0  0  0  0
  7  9  1  0  0  0  0
  7 17  2  0  0  0  0
  8  9  2  0  0  0  0
  8 16  1  0  0  0  0
  9 19  1  0  0  0  0
 10 24  1  0  0  0  0
 11 25  1  0  0  0  0
 12 19  1  0  0  0  0
 12 20  1  0  0  0  0
 12 21  2  0  0  0  0
 13 14  1  0  0  0  0
 13 15  1  0  0  0  0
 14 15  1  0  0  0  0
 15 20  1  0  0  0  0
 15 24  1  0  0  0  0
 18 25  1  0  0  0  0
 22 25  2  0  0  0  0
 23 25  2  0  0  0  0
  1 26  1  0  0  0  0
  2 27  1  0  0  0  0
  3 28  1  0  0  0  0
  4 29  1  0  0  0  0
  5 30  1  0  0  0  0
  6 31  1  0  0  0  0
  7 32  1  0  0  0  0
 13 33  1  0  0  0  0
 13 34  1  0  0  0  0
 14 35  1  0  0  0  0
 14 36  1  0  0  0  0
 16 37  1  0  0  0  0
 16 38  1  0  0  0  0
 16 39  1  0  0  0  0
 18 40  1  0  0  0  0
 18 41  1  0  0  0  0
 19 42  1  0  0  0  0
 20 43  1  0  0  0  0
M  END
> <Chemgauss4 Score>
-6.33584976196289

> <Number of Confs>
200

$$$$
CHR-SOS-f73-1
  -OEChem-03242005443D

 44 46  0     0  0  0  0  0  0999 V2000
    6.7447   -1.3255   22.0847 C   0  0  0  0  0  0  0  0  0  0  0  0
    7.7673   -1.8791   21.3144 C   0  0  0  0  0  0  0  0  0  0  0  0
    7.0432   -0.7041   23.2974 C   0  0  0  0  0  0  0  0  0  0  0  0
    5.6504   -4.4352   25.7992 C   0  0  0  0  0  0  0  0  0  0  0  0
    9.0885   -1.8114   21.7568 C   0  0  0  0  0  0  0  0  0  0  0  0
    8.3643   -0.6365   23.7398 C   0  0  0  0  0  0  0  0  0  0  0  0
    6.6363   -3.4821   25.5695 C   0  0  0  0  0  0  0  0  0  0  0  0
    6.0538   -5.7250   26.1049 C   0  0  0  0  0  0  0  0  0  0  0  0
    8.2760   -5.1590   25.9641 C   0  0  0  0  0  0  0  0  0  0  0  0
    9.3870   -1.1902   22.9695 C   0  0  0  0  0  0  0  0  0  0  0  0
    7.9766   -3.8427   25.6516 C   0  0  0  0  0  0  0  0  0  0  0  0
   10.2742   -3.1289   24.9074 C   0  0  0  0  0  0  0  0  0  0  0  0
   13.6183   -0.0966   22.8106 C   0  0  0  0  0  0  0  0  0  0  0  0
   13.2860   -1.5783   22.6781 C   0  0  0  0  0  0  0  0  0  0  0  0
   12.7724    0.5847   23.8801 C   0  0  0  0  0  0  0  0  0  0  0  0
   11.7944   -1.8040   22.4232 C   0  0  0  0  0  0  0  0  0  0  0  0
   11.2763    0.3780   23.6363 C   0  0  0  0  0  0  0  0  0  0  0  0
   10.8652   -1.1143   23.4653 C   0  0  0  0  0  0  0  0  0  0  0  0
   11.0504   -1.8290   24.8303 C   0  0  0  0  0  0  0  0  0  0  0  0
    7.3458   -6.1128   26.1937 N   0  0  0  0  0  0  0  0  0  0  0  0
    9.0025   -2.8950   25.4229 N   0  0  0  0  0  0  0  0  0  0  0  0
   10.7489   -4.2026   24.5521 O   0  0  0  0  0  0  0  0  0  0  0  0
    5.7162   -1.3770   21.7395 H   0  0  0  0  0  0  0  0  0  0  0  0
    7.5352   -2.3619   20.3696 H   0  0  0  0  0  0  0  0  0  0  0  0
    6.2474   -0.2721   23.8969 H   0  0  0  0  0  0  0  0  0  0  0  0
    4.5993   -4.1765   25.7406 H   0  0  0  0  0  0  0  0  0  0  0  0
    9.8787   -2.2457   21.1501 H   0  0  0  0  0  0  0  0  0  0  0  0
    8.5875   -0.1506   24.6860 H   0  0  0  0  0  0  0  0  0  0  0  0
    6.3494   -2.4621   25.3276 H   0  0  0  0  0  0  0  0  0  0  0  0
    5.3234   -6.5053   26.2918 H   0  0  0  0  0  0  0  0  0  0  0  0
    9.3037   -5.5008   26.0428 H   0  0  0  0  0  0  0  0  0  0  0  0
   14.6809    0.0147   23.0638 H   0  0  0  0  0  0  0  0  0  0  0  0
   13.4697    0.4038   21.8461 H   0  0  0  0  0  0  0  0  0  0  0  0
   13.8746   -2.0142   21.8620 H   0  0  0  0  0  0  0  0  0  0  0  0
   13.5837   -2.1023   23.5937 H   0  0  0  0  0  0  0  0  0  0  0  0
   13.0394    0.1810   24.8657 H   0  0  0  0  0  0  0  0  0  0  0  0
   13.0076    1.6568   23.9115 H   0  0  0  0  0  0  0  0  0  0  0  0
   11.5528   -1.4455   21.4129 H   0  0  0  0  0  0  0  0  0  0  0  0
   11.5998   -2.8862   22.4208 H   0  0  0  0  0  0  0  0  0  0  0  0
   10.7144    0.8227   24.4740 H   0  0  0  0  0  0  0  0  0  0  0  0
   10.9861    0.9489   22.7396 H   0  0  0  0  0  0  0  0  0  0  0  0
   10.7108   -1.1620   25.6246 H   0  0  0  0  0  0  0  0  0  0  0  0
   12.1117   -2.0368   24.9768 H   0  0  0  0  0  0  0  0  0  0  0  0
    8.7700   -1.9348   25.6679 H   0  0  0  0  0  0  0  0  0  0  0  0
  1  2  1  0  0  0  0
  1  3  2  0  0  0  0
  2  5  2  0  0  0  0
  3  6  1  0  0  0  0
  4  7  2  0  0  0  0
  4  8  1  0  0  0  0
  5 10  1  0  0  0  0
  6 10  2  0  0  0  0
  7 11  1  0  0  0  0
  8 20  2  0  0  0  0
  9 11  2  0  0  0  0
  9 20  1  0  0  0  0
 10 18  1  0  0  0  0
 11 21  1  0  0  0  0
 12 19  1  0  0  0  0
 12 21  1  0  0  0  0
 12 22  2  0  0  0  0
 13 14  1  0  0  0  0
 13 15  1  0  0  0  0
 14 16  1  0  0  0  0
 15 17  1  0  0  0  0
 16 18  1  0  0  0  0
 17 18  1  0  0  0  0
 18 19  1  0  0  0  0
  1 23  1  0  0  0  0
  2 24  1  0  0  0  0
  3 25  1  0  0  0  0
  4 26  1  0  0  0  0
  5 27  1  0  0  0  0
  6 28  1  0  0  0  0
  7 29  1  0  0  0  0
  8 30  1  0  0  0  0
  9 31  1  0  0  0  0
 13 32  1  0  0  0  0
 13 33  1  0  0  0  0
 14 34  1  0  0  0  0
 14 35  1  0  0  0  0
 15 36  1  0  0  0  0
 15 37  1  0  0  0  0
 16 38  1  0  0  0  0
 16 39  1  0  0  0  0
 17 40  1  0  0  0  0
 17 41  1  0  0  0  0
 19 42  1  0  0  0  0
 19 43  1  0  0  0  0
 21 44  1  0  0  0  0
M  END
> <Chemgauss4 Score>
-6.33522653579712

> <Number of Confs>
96

$$$$
ANN-UNI-263-1
  -OEChem-03242005443D

 29 30  0     0  0  0  0  0  0999 V2000
   10.5104   -3.8912   25.5284 C   0  0  0  0  0  0  0  0  0  0  0  0
    9.6132   -4.8002   26.0781 C   0  0  0  0  0  0  0  0  0  0  0  0
    8.9108   -3.4167   23.8334 C   0  0  0  0  0  0  0  0  0  0  0  0
   10.1602   -3.1822   24.3847 C   0  0  0  0  0  0  0  0  0  0  0  0
    8.3882   -4.9620   25.4511 C   0  0  0  0  0  0  0  0  0  0  0  0
   12.8625   -1.5842   22.2640 C   0  0  0  0  0  0  0  0  0  0  0  0
   12.8165   -0.3024   22.6467 C   0  0  0  0  0  0  0  0  0  0  0  0
   11.9791   -2.5708   22.8362 C   0  0  0  0  0  0  0  0  0  0  0  0
   11.0892   -2.2112   23.7776 C   0  0  0  0  0  0  0  0  0  0  0  0
   11.8345    0.1150   23.6868 C   0  0  0  0  0  0  0  0  0  0  0  0
    5.7705   -6.5083   24.4504 C   0  0  0  0  0  0  0  0  0  0  0  0
    6.0830   -5.8660   25.7590 C   0  0  0  0  0  0  0  0  0  0  0  0
    8.0126   -4.2914   24.3390 N   0  0  0  0  0  0  0  0  0  0  0  0
   11.0244   -0.8924   24.1863 N   0  0  0  0  0  0  0  0  0  0  0  0
    7.4847   -5.8917   26.0233 N   0  0  0  0  0  0  0  0  0  0  0  0
   11.7789    1.2867   24.0515 O   0  0  0  0  0  0  0  0  0  0  0  0
   11.4782   -3.7458   26.0016 H   0  0  0  0  0  0  0  0  0  0  0  0
    9.8781   -5.3578   26.9705 H   0  0  0  0  0  0  0  0  0  0  0  0
    8.5772   -2.8954   22.9407 H   0  0  0  0  0  0  0  0  0  0  0  0
   13.5693   -1.9121   21.5097 H   0  0  0  0  0  0  0  0  0  0  0  0
   13.4734    0.4478   22.2234 H   0  0  0  0  0  0  0  0  0  0  0  0
   12.0662   -3.5927   22.4820 H   0  0  0  0  0  0  0  0  0  0  0  0
    6.1097   -7.5546   24.4646 H   0  0  0  0  0  0  0  0  0  0  0  0
    4.6848   -6.4772   24.2769 H   0  0  0  0  0  0  0  0  0  0  0  0
    6.2864   -5.9666   23.6438 H   0  0  0  0  0  0  0  0  0  0  0  0
    5.7410   -4.8207   25.7367 H   0  0  0  0  0  0  0  0  0  0  0  0
    5.5568   -6.4070   26.5592 H   0  0  0  0  0  0  0  0  0  0  0  0
   10.3406   -0.6464   24.8969 H   0  0  0  0  0  0  0  0  0  0  0  0
    7.8767   -6.5798   26.6332 H   0  0  0  0  0  0  0  0  0  0  0  0
  1  2  2  0  0  0  0
  1  4  1  0  0  0  0
  2  5  1  0  0  0  0
  3  4  2  0  0  0  0
  3 13  1  0  0  0  0
  4  9  1  0  0  0  0
  5 13  2  0  0  0  0
  5 15  1  0  0  0  0
  6  7  2  0  0  0  0
  6  8  1  0  0  0  0
  7 10  1  0  0  0  0
  8  9  2  0  0  0  0
  9 14  1  0  0  0  0
 10 14  1  0  0  0  0
 10 16  2  0  0  0  0
 11 12  1  0  0  0  0
 12 15  1  0  0  0  0
  1 17  1  0  0  0  0
  2 18  1  0  0  0  0
  3 19  1  0  0  0  0
  6 20  1  0  0  0  0
  7 21  1  0  0  0  0
  8 22  1  0  0  0  0
 11 23  1  0  0  0  0
 11 24  1  0  0  0  0
 11 25  1  0  0  0  0
 12 26  1  0  0  0  0
 12 27  1  0  0  0  0
 14 28  1  0  0  0  0
 15 29  1  0  0  0  0
M  END
> <Chemgauss4 Score>
-6.33476591110229

> <Number of Confs>
33

$$$$
SAL-INS-1c7-6
  -OEChem-03242005443D

 41 44  0     1  0  0  0  0  0999 V2000
   12.6600   -0.0705   24.1425 C   0  0  0  0  0  0  0  0  0  0  0  0
   12.2934   -1.2100   24.8588 C   0  0  0  0  0  0  0  0  0  0  0  0
   11.8956    0.3445   23.0565 C   0  0  0  0  0  0  0  0  0  0  0  0
   10.7728   -3.0991   25.2052 C   0  0  0  0  0  0  0  0  0  0  0  0
    9.2410   -2.2672   23.0347 C   0  0  0  0  0  0  0  0  0  0  0  0
    9.2490   -4.0729   28.0420 C   0  0  0  0  0  0  0  0  0  0  0  0
    7.2176   -4.7505   28.5626 C   0  0  0  0  0  0  0  0  0  0  0  0
   11.1554   -1.9494   24.4966 C   0  0  0  0  0  0  0  0  0  0  0  0
   10.3792   -1.5281   23.3949 C   0  0  0  0  0  0  0  0  0  0  0  0
    8.8575   -3.4129   23.7495 C   0  0  0  0  0  0  0  0  0  0  0  0
    9.6343   -3.8366   24.8391 C   0  0  0  0  0  0  0  0  0  0  0  0
   10.7623   -0.3788   22.6840 C   0  0  0  0  0  0  0  0  0  0  0  0
    8.6669   -4.7613   27.0038 C   0  0  0  0  0  0  0  0  0  0  0  0
    5.9210   -5.7113   24.3704 C   0  0  0  0  0  0  0  0  0  0  0  0
    7.6224   -4.1617   23.3108 C   0  0  0  0  0  0  0  0  0  0  0  0
    8.3325   -5.9984   24.8219 C   0  0  0  0  0  0  0  0  0  0  0  0
    9.2531   -5.0727   25.6333 C   0  0  1  0  0  0  0  0  0  0  0  0
    5.0006   -5.5548   23.1854 C   0  0  0  0  0  0  0  0  0  0  0  0
    7.4024   -5.1802   27.3341 N   0  0  0  0  0  0  0  0  0  0  0  0
    8.3085   -4.0738   29.0333 N   0  0  0  0  0  0  0  0  0  0  0  0
    7.2326   -5.2613   24.2019 N   0  0  0  0  0  0  0  0  0  0  0  0
   10.0237    0.0996   21.5615 N   0  3  0  0  0  0  0  0  0  0  0  0
   10.3269   -0.3159   20.4203 O   0  5  0  0  0  0  0  0  0  0  0  0
    5.4865   -6.2095   25.4117 O   0  0  0  0  0  0  0  0  0  0  0  0
    9.0976    0.9191   21.7556 O   0  0  0  0  0  0  0  0  0  0  0  0
    5.7330   -6.4489   21.8583 Cl  0  0  0  0  0  0  0  0  0  0  0  0
   13.5411    0.4934   24.4346 H   0  0  0  0  0  0  0  0  0  0  0  0
   12.9056   -1.5159   25.7049 H   0  0  0  0  0  0  0  0  0  0  0  0
   12.1938    1.2358   22.5094 H   0  0  0  0  0  0  0  0  0  0  0  0
   11.3698   -3.4316   26.0537 H   0  0  0  0  0  0  0  0  0  0  0  0
    8.6244   -1.9654   22.1896 H   0  0  0  0  0  0  0  0  0  0  0  0
   10.2116   -3.5977   28.1648 H   0  0  0  0  0  0  0  0  0  0  0  0
    6.3286   -4.8938   29.1605 H   0  0  0  0  0  0  0  0  0  0  0  0
    6.7971   -3.4497   23.2204 H   0  0  0  0  0  0  0  0  0  0  0  0
    7.8029   -4.6067   22.3251 H   0  0  0  0  0  0  0  0  0  0  0  0
    8.8949   -6.4682   24.0044 H   0  0  0  0  0  0  0  0  0  0  0  0
    7.9513   -6.8066   25.4561 H   0  0  0  0  0  0  0  0  0  0  0  0
   10.2036   -5.6936   25.8167 H   0  0  0  0  0  0  0  0  0  0  0  0
    4.9304   -4.5033   22.9324 H   0  0  0  0  0  0  0  0  0  0  0  0
    4.0350   -5.9797   23.4332 H   0  0  0  0  0  0  0  0  0  0  0  0
    8.4022   -3.6523   29.9476 H   0  0  0  0  0  0  0  0  0  0  0  0
  1  2  2  0  0  0  0
  1  3  1  0  0  0  0
  2  8  1  0  0  0  0
  3 12  2  0  0  0  0
  4  8  2  0  0  0  0
  4 11  1  0  0  0  0
  5  9  2  0  0  0  0
  5 10  1  0  0  0  0
  6 13  2  0  0  0  0
  6 20  1  0  0  0  0
  7 19  2  0  0  0  0
  7 20  1  0  0  0  0
  8  9  1  0  0  0  0
  9 12  1  0  0  0  0
 10 11  2  0  0  0  0
 10 15  1  0  0  0  0
 11 17  1  0  0  0  0
 12 22  1  0  0  0  0
 13 17  1  1  0  0  0
 13 19  1  0  0  0  0
 14 18  1  0  0  0  0
 14 21  1  0  0  0  0
 14 24  2  0  0  0  0
 15 21  1  0  0  0  0
 16 17  1  0  0  0  0
 16 21  1  0  0  0  0
 18 26  1  0  0  0  0
 22 23  1  0  0  0  0
 22 25  2  0  0  0  0
  1 27  1  0  0  0  0
  2 28  1  0  0  0  0
  3 29  1  0  0  0  0
  4 30  1  0  0  0  0
  5 31  1  0  0  0  0
  6 32  1  0  0  0  0
  7 33  1  0  0  0  0
 15 34  1  0  0  0  0
 15 35  1  0  0  0  0
 16 36  1  0  0  0  0
 16 37  1  0  0  0  0
 17 38  1  0  0  0  0
 18 39  1  0  0  0  0
 18 40  1  0  0  0  0
 20 41  1  0  0  0  0
M  CHG  2  22   1  23  -1
M  END
> <Chemgauss4 Score>
-6.33078861236572

> <Number of Confs>
26

$$$$
DAR-DIA-43a-3
  -OEChem-03242005443D

 39 41  0     1  0  0  0  0  0999 V2000
    5.3729   -5.6455   26.4890 C   0  0  0  0  0  0  0  0  0  0  0  0
   13.0285   -1.3371   21.7343 C   0  0  0  0  0  0  0  0  0  0  0  0
    6.4471   -4.8067   26.7856 C   0  0  0  0  0  0  0  0  0  0  0  0
   11.6838   -1.5007   22.0479 C   0  0  0  0  0  0  0  0  0  0  0  0
    5.1905   -6.1113   25.1869 C   0  0  0  0  0  0  0  0  0  0  0  0
    7.1565   -4.8992   24.4779 C   0  0  0  0  0  0  0  0  0  0  0  0
   13.7864   -0.5054   22.5428 C   0  0  0  0  0  0  0  0  0  0  0  0
   11.9880   -0.0279   23.8903 C   0  0  0  0  0  0  0  0  0  0  0  0
    7.3389   -4.4334   25.7801 C   0  0  0  0  0  0  0  0  0  0  0  0
   11.1457   -0.8370   23.1449 C   0  0  0  0  0  0  0  0  0  0  0  0
    6.0823   -5.7381   24.1814 C   0  0  0  0  0  0  0  0  0  0  0  0
    8.4589   -2.2219   25.3456 C   0  0  0  0  0  0  0  0  0  0  0  0
    9.4495   -2.1195   24.4505 C   0  0  0  0  0  0  0  0  0  0  0  0
   10.0467   -5.5284   25.6560 C   0  0  0  0  0  0  0  0  0  0  0  0
   10.3322   -3.3284   24.4568 C   0  0  0  0  0  0  0  0  0  0  0  0
    8.5055   -3.5213   26.1034 C   0  0  2  0  0  0  0  0  0  0  0  0
    9.9210   -4.0387   25.7522 C   0  0  1  0  0  0  0  0  0  0  0  0
    9.6911   -0.9943   23.5115 C   0  0  0  0  0  0  0  0  0  0  0  0
   13.2991    0.1558   23.6165 N   0  0  0  0  0  0  0  0  0  0  0  0
    9.6929   -6.1903   26.8080 N   0  0  0  0  0  0  0  0  0  0  0  0
   10.4176   -6.0871   24.6266 O   0  0  0  0  0  0  0  0  0  0  0  0
    5.8114   -6.4338   22.2423 I   0  0  0  0  0  0  0  0  0  0  0  0
    4.6789   -5.9363   27.2723 H   0  0  0  0  0  0  0  0  0  0  0  0
   13.4694   -1.8448   20.8841 H   0  0  0  0  0  0  0  0  0  0  0  0
    6.5810   -4.4484   27.8028 H   0  0  0  0  0  0  0  0  0  0  0  0
   11.0634   -2.1468   21.4327 H   0  0  0  0  0  0  0  0  0  0  0  0
    4.3469   -6.7643   24.9779 H   0  0  0  0  0  0  0  0  0  0  0  0
    7.8583   -4.6014   23.7017 H   0  0  0  0  0  0  0  0  0  0  0  0
   14.8402   -0.3445   22.3400 H   0  0  0  0  0  0  0  0  0  0  0  0
   11.6247    0.5150   24.7574 H   0  0  0  0  0  0  0  0  0  0  0  0
    7.7314   -1.4405   25.5380 H   0  0  0  0  0  0  0  0  0  0  0  0
   10.1735   -3.9489   23.5692 H   0  0  0  0  0  0  0  0  0  0  0  0
   11.3827   -3.0207   24.4920 H   0  0  0  0  0  0  0  0  0  0  0  0
    8.4464   -3.2855   27.1773 H   0  0  0  0  0  0  0  0  0  0  0  0
   10.6315   -3.7375   26.5853 H   0  0  0  0  0  0  0  0  0  0  0  0
    9.3279   -0.0572   23.9556 H   0  0  0  0  0  0  0  0  0  0  0  0
    9.0928   -1.1406   22.6021 H   0  0  0  0  0  0  0  0  0  0  0  0
    9.3850   -5.6462   27.6072 H   0  0  0  0  0  0  0  0  0  0  0  0
    9.7274   -7.2011   26.8910 H   0  0  0  0  0  0  0  0  0  0  0  0
  1  3  2  0  0  0  0
  1  5  1  0  0  0  0
  2  4  2  0  0  0  0
  2  7  1  0  0  0  0
  3  9  1  0  0  0  0
  4 10  1  0  0  0  0
  5 11  2  0  0  0  0
  6  9  2  0  0  0  0
  6 11  1  0  0  0  0
  7 19  2  0  0  0  0
  8 10  2  0  0  0  0
  8 19  1  0  0  0  0
  9 16  1  0  0  0  0
 10 18  1  0  0  0  0
 11 22  1  0  0  0  0
 12 13  2  0  0  0  0
 12 16  1  0  0  0  0
 13 15  1  0  0  0  0
 13 18  1  0  0  0  0
 14 17  1  0  0  0  0
 14 20  1  0  0  0  0
 14 21  2  0  0  0  0
 15 17  1  0  0  0  0
 16 17  1  0  0  0  0
  1 23  1  0  0  0  0
  2 24  1  0  0  0  0
  3 25  1  0  0  0  0
  4 26  1  0  0  0  0
  5 27  1  0  0  0  0
  6 28  1  0  0  0  0
  7 29  1  0  0  0  0
  8 30  1  0  0  0  0
 12 31  1  0  0  0  0
 15 32  1  0  0  0  0
 15 33  1  0  0  0  0
 16 34  1  6  0  0  0
 17 35  1  1  0  0  0
 18 36  1  0  0  0  0
 18 37  1  0  0  0  0
 20 38  1  0  0  0  0
 20 39  1  0  0  0  0
M  END
> <Chemgauss4 Score>
-6.33060741424561

> <Number of Confs>
200

$$$$
ROB-UNI-b2e-3
  -OEChem-03242005443D

 51 52  0     0  0  0  0  0  0999 V2000
    6.1292   -3.9850   21.5733 C   0  0  0  0  0  0  0  0  0  0  0  0
    8.0198   -3.7490   23.1045 C   0  0  0  0  0  0  0  0  0  0  0  0
    7.6102   -2.0502   21.4183 C   0  0  0  0  0  0  0  0  0  0  0  0
   10.9745   -2.1545   24.5495 C   0  0  0  0  0  0  0  0  0  0  0  0
    7.2659   -3.2511   22.0355 C   0  0  0  0  0  0  0  0  0  0  0  0
    9.1385   -3.0201   23.5549 C   0  0  0  0  0  0  0  0  0  0  0  0
    8.7153   -1.3099   21.8478 C   0  0  0  0  0  0  0  0  0  0  0  0
   10.1026   -3.2183   24.5825 C   0  0  0  0  0  0  0  0  0  0  0  0
    9.4598   -1.8199   22.9174 C   0  0  0  0  0  0  0  0  0  0  0  0
   12.6272    0.0096   23.8767 C   0  0  0  0  0  0  0  0  0  0  0  0
    5.0710    2.0410   19.9105 C   0  0  0  0  0  0  0  0  0  0  0  0
    6.9952   -4.8487   28.9516 C   0  0  0  0  0  0  0  0  0  0  0  0
    9.0360   -0.0306   21.1463 C   0  0  0  0  0  0  0  0  0  0  0  0
   10.1659   -4.3572   25.5209 C   0  0  0  0  0  0  0  0  0  0  0  0
   11.2662   -0.0870   23.2088 C   0  0  0  0  0  0  0  0  0  0  0  0
    7.7999    0.6931   20.6008 C   0  0  0  0  0  0  0  0  0  0  0  0
    9.6668   -4.0295   26.9399 C   0  0  0  0  0  0  0  0  0  0  0  0
    5.2066   -4.5807   21.1982 N   0  0  0  0  0  0  0  0  0  0  0  0
   10.5784   -1.3163   23.5420 N   0  0  0  0  0  0  0  0  0  0  0  0
    6.8754    1.0572   21.6409 N   0  0  0  0  0  0  0  0  0  0  0  0
    8.2900   -3.6134   26.9477 N   0  0  0  0  0  0  0  0  0  0  0  0
    6.6844    3.6110   21.2456 O   0  0  0  0  0  0  0  0  0  0  0  0
    4.8324    2.4261   22.4796 O   0  0  0  0  0  0  0  0  0  0  0  0
    7.4817   -6.0612   26.6837 O   0  0  0  0  0  0  0  0  0  0  0  0
    5.7700   -4.2109   26.7386 O   0  0  0  0  0  0  0  0  0  0  0  0
    5.8585    2.4379   21.4546 S   0  0  0  0  0  0  0  0  0  0  0  0
    7.0336   -4.7731   27.1754 S   0  0  0  0  0  0  0  0  0  0  0  0
    7.7521   -4.6864   23.5861 H   0  0  0  0  0  0  0  0  0  0  0  0
    7.0139   -1.6774   20.5864 H   0  0  0  0  0  0  0  0  0  0  0  0
   11.8410   -1.9261   25.1563 H   0  0  0  0  0  0  0  0  0  0  0  0
   12.5369   -0.0351   24.9672 H   0  0  0  0  0  0  0  0  0  0  0  0
   13.1131    0.9540   23.6129 H   0  0  0  0  0  0  0  0  0  0  0  0
   13.2811   -0.8106   23.5622 H   0  0  0  0  0  0  0  0  0  0  0  0
    4.3804    2.8474   19.6588 H   0  0  0  0  0  0  0  0  0  0  0  0
    5.8426    1.9454   19.1451 H   0  0  0  0  0  0  0  0  0  0  0  0
    4.5324    1.0998   20.0307 H   0  0  0  0  0  0  0  0  0  0  0  0
    6.2256   -5.5626   29.2494 H   0  0  0  0  0  0  0  0  0  0  0  0
    7.9753   -5.1739   29.3037 H   0  0  0  0  0  0  0  0  0  0  0  0
    6.7622   -3.8536   29.3336 H   0  0  0  0  0  0  0  0  0  0  0  0
    9.7207   -0.2379   20.3077 H   0  0  0  0  0  0  0  0  0  0  0  0
    9.5924    0.6474   21.8147 H   0  0  0  0  0  0  0  0  0  0  0  0
   11.2082   -4.7236   25.6040 H   0  0  0  0  0  0  0  0  0  0  0  0
    9.5958   -5.2274   25.1375 H   0  0  0  0  0  0  0  0  0  0  0  0
   11.3668   -0.0415   22.1185 H   0  0  0  0  0  0  0  0  0  0  0  0
   10.6271    0.7500   23.5117 H   0  0  0  0  0  0  0  0  0  0  0  0
    8.0910    1.6209   20.0983 H   0  0  0  0  0  0  0  0  0  0  0  0
    7.2587    0.0703   19.8810 H   0  0  0  0  0  0  0  0  0  0  0  0
    9.7354   -4.9059   27.5921 H   0  0  0  0  0  0  0  0  0  0  0  0
   10.2579   -3.2238   27.3874 H   0  0  0  0  0  0  0  0  0  0  0  0
    6.4378    0.2627   22.1563 H   0  0  0  0  0  0  0  0  0  0  0  0
    8.1013   -2.6803   27.3745 H   0  0  0  0  0  0  0  0  0  0  0  0
  1  5  1  0  0  0  0
  1 18  3  0  0  0  0
  2  5  2  0  0  0  0
  2  6  1  0  0  0  0
  3  5  1  0  0  0  0
  3  7  2  0  0  0  0
  4  8  2  0  0  0  0
  4 19  1  0  0  0  0
  6  8  1  0  0  0  0
  6  9  2  0  0  0  0
  7  9  1  0  0  0  0
  7 13  1  0  0  0  0
  8 14  1  0  0  0  0
  9 19  1  0  0  0  0
 10 15  1  0  0  0  0
 11 26  1  0  0  0  0
 12 27  1  0  0  0  0
 13 16  1  0  0  0  0
 14 17  1  0  0  0  0
 15 19  1  0  0  0  0
 16 20  1  0  0  0  0
 17 21  1  0  0  0  0
 20 26  1  0  0  0  0
 21 27  1  0  0  0  0
 22 26  2  0  0  0  0
 23 26  2  0  0  0  0
 24 27  2  0  0  0  0
 25 27  2  0  0  0  0
  2 28  1  0  0  0  0
  3 29  1  0  0  0  0
  4 30  1  0  0  0  0
 10 31  1  0  0  0  0
 10 32  1  0  0  0  0
 10 33  1  0  0  0  0
 11 34  1  0  0  0  0
 11 35  1  0  0  0  0
 11 36  1  0  0  0  0
 12 37  1  0  0  0  0
 12 38  1  0  0  0  0
 12 39  1  0  0  0  0
 13 40  1  0  0  0  0
 13 41  1  0  0  0  0
 14 42  1  0  0  0  0
 14 43  1  0  0  0  0
 15 44  1  0  0  0  0
 15 45  1  0  0  0  0
 16 46  1  0  0  0  0
 16 47  1  0  0  0  0
 17 48  1  0  0  0  0
 17 49  1  0  0  0  0
 20 50  1  0  0  0  0
 21 51  1  0  0  0  0
M  END
> <Chemgauss4 Score>
-6.32655382156372

> <Number of Confs>
200

$$$$
HEI-REL-0c9-6
  -OEChem-03242005443D

 53 56  0     1  0  0  0  0  0999 V2000
   12.4972   -0.4599   23.2363 C   0  0  0  0  0  0  0  0  0  0  0  0
   11.7558   -1.1336   22.2700 C   0  0  0  0  0  0  0  0  0  0  0  0
   12.1773   -0.6043   24.5859 C   0  0  0  0  0  0  0  0  0  0  0  0
   10.6951   -1.9538   22.6523 C   0  0  0  0  0  0  0  0  0  0  0  0
    6.0339    1.1967   22.4564 C   0  0  0  0  0  0  0  0  0  0  0  0
    5.7978    1.2570   21.0878 C   0  0  0  0  0  0  0  0  0  0  0  0
    6.6759   -0.9809   20.8608 C   0  0  0  0  0  0  0  0  0  0  0  0
   11.1109   -1.4246   24.9842 C   0  0  0  0  0  0  0  0  0  0  0  0
   10.3664   -2.1099   24.0077 C   0  0  0  0  0  0  0  0  0  0  0  0
    6.6043    0.0488   23.0321 C   0  0  0  0  0  0  0  0  0  0  0  0
    6.9224   -1.0803   22.2452 C   0  0  0  0  0  0  0  0  0  0  0  0
    6.1232    0.1694   20.2889 C   0  0  0  0  0  0  0  0  0  0  0  0
    8.9013   -2.3081   27.9454 C   0  0  0  0  0  0  0  0  0  0  0  0
    6.8244    0.0114   24.5193 C   0  0  0  0  0  0  0  0  0  0  0  0
   10.8012   -1.5525   26.4555 C   0  0  0  0  0  0  0  0  0  0  0  0
    8.0381   -0.8482   24.8223 C   0  0  0  0  0  0  0  0  0  0  0  0
    9.3895   -3.5064   25.8406 C   0  0  0  0  0  0  0  0  0  0  0  0
    9.2079   -2.9979   24.4060 C   0  0  1  0  0  0  0  0  0  0  0  0
    7.8773   -2.2586   24.2391 C   0  0  2  0  0  0  0  0  0  0  0  0
    9.3346   -1.2462   28.9262 C   0  0  0  0  0  0  0  0  0  0  0  0
    7.3260   -3.5016   22.1101 C   0  0  0  0  0  0  0  0  0  0  0  0
    7.4574   -2.2341   22.8247 N   0  0  3  0  0  0  0  0  0  0  0  0
    9.6467   -2.4049   26.7678 N   0  0  0  0  0  0  0  0  0  0  0  0
    5.1907    1.8101   18.4069 N   0  0  0  0  0  0  0  0  0  0  0  0
    7.9310   -3.0205   28.2140 O   0  0  0  0  0  0  0  0  0  0  0  0
    7.1384    0.2014   17.8930 O   0  0  0  0  0  0  0  0  0  0  0  0
    4.8216   -0.7328   18.2211 O   0  0  0  0  0  0  0  0  0  0  0  0
    5.8478    0.2410   18.5658 S   0  0  0  0  0  0  0  0  0  0  0  0
   13.3240    0.1790   22.9404 H   0  0  0  0  0  0  0  0  0  0  0  0
   12.0031   -1.0209   21.2185 H   0  0  0  0  0  0  0  0  0  0  0  0
   12.7646   -0.0713   25.3298 H   0  0  0  0  0  0  0  0  0  0  0  0
   10.1244   -2.4733   21.8866 H   0  0  0  0  0  0  0  0  0  0  0  0
    5.7697    2.0481   23.0776 H   0  0  0  0  0  0  0  0  0  0  0  0
    5.3615    2.1540   20.6575 H   0  0  0  0  0  0  0  0  0  0  0  0
    6.9209   -1.8061   20.1963 H   0  0  0  0  0  0  0  0  0  0  0  0
    6.9719    1.0266   24.8822 H   0  0  0  0  0  0  0  0  0  0  0  0
    5.9568   -0.4148   25.0200 H   0  0  0  0  0  0  0  0  0  0  0  0
   11.6630   -1.9973   26.9673 H   0  0  0  0  0  0  0  0  0  0  0  0
   10.6364   -0.5515   26.8653 H   0  0  0  0  0  0  0  0  0  0  0  0
    8.9401   -0.3724   24.4282 H   0  0  0  0  0  0  0  0  0  0  0  0
    8.1700   -0.9296   25.9067 H   0  0  0  0  0  0  0  0  0  0  0  0
    8.5152   -4.0875   26.1531 H   0  0  0  0  0  0  0  0  0  0  0  0
   10.2561   -4.1776   25.9019 H   0  0  0  0  0  0  0  0  0  0  0  0
    9.2005   -3.8777   23.7486 H   0  0  0  0  0  0  0  0  0  0  0  0
    7.1420   -2.7706   24.8499 H   0  0  0  0  0  0  0  0  0  0  0  0
    8.8092   -0.3237   28.7039 H   0  0  0  0  0  0  0  0  0  0  0  0
   10.4052   -1.0954   28.8352 H   0  0  0  0  0  0  0  0  0  0  0  0
    9.0978   -1.5758   29.9323 H   0  0  0  0  0  0  0  0  0  0  0  0
    7.7961   -4.3045   22.6970 H   0  0  0  0  0  0  0  0  0  0  0  0
    6.2602   -3.7308   21.9633 H   0  0  0  0  0  0  0  0  0  0  0  0
    7.8225   -3.4240   21.1316 H   0  0  0  0  0  0  0  0  0  0  0  0
    5.7718    2.5334   17.9659 H   0  0  0  0  0  0  0  0  0  0  0  0
    4.1896    1.8938   18.1922 H   0  0  0  0  0  0  0  0  0  0  0  0
  1  2  1  0  0  0  0
  1  3  2  0  0  0  0
  2  4  2  0  0  0  0
  3  8  1  0  0  0  0
  4  9  1  0  0  0  0
  5  6  2  0  0  0  0
  5 10  1  0  0  0  0
  6 12  1  0  0  0  0
  7 11  1  0  0  0  0
  7 12  2  0  0  0  0
  8  9  2  0  0  0  0
  8 15  1  0  0  0  0
  9 18  1  0  0  0  0
 10 11  2  0  0  0  0
 10 14  1  0  0  0  0
 11 22  1  0  0  0  0
 12 28  1  0  0  0  0
 13 20  1  0  0  0  0
 13 23  1  0  0  0  0
 13 25  2  0  0  0  0
 14 16  1  0  0  0  0
 15 23  1  0  0  0  0
 16 19  1  6  0  0  0
 17 18  1  6  0  0  0
 17 23  1  0  0  0  0
 18 19  1  0  0  0  0
 19 22  1  0  0  0  0
 21 22  1  6  0  0  0
 24 28  1  0  0  0  0
 26 28  2  0  0  0  0
 27 28  2  0  0  0  0
  1 29  1  0  0  0  0
  2 30  1  0  0  0  0
  3 31  1  0  0  0  0
  4 32  1  0  0  0  0
  5 33  1  0  0  0  0
  6 34  1  0  0  0  0
  7 35  1  0  0  0  0
 14 36  1  0  0  0  0
 14 37  1  0  0  0  0
 15 38  1  0  0  0  0
 15 39  1  0  0  0  0
 16 40  1  0  0  0  0
 16 41  1  0  0  0  0
 17 42  1  0  0  0  0
 17 43  1  0  0  0  0
 18 44  1  0  0  0  0
 19 45  1  0  0  0  0
 20 46  1  0  0  0  0
 20 47  1  0  0  0  0
 20 48  1  0  0  0  0
 21 49  1  0  0  0  0
 21 50  1  0  0  0  0
 21 51  1  0  0  0  0
 24 52  1  0  0  0  0
 24 53  1  0  0  0  0
M  END
> <Chemgauss4 Score>
-6.31890535354614

> <Number of Confs>
14

$$$$
CHR-SOS-70e-12
  -OEChem-03242005443D

 50 52  0     0  0  0  0  0  0999 V2000
   11.2906   -4.9551   25.3109 C   0  0  0  0  0  0  0  0  0  0  0  0
    5.9138    1.7689   19.4828 C   0  0  0  0  0  0  0  0  0  0  0  0
    6.5257    1.1910   20.5896 C   0  0  0  0  0  0  0  0  0  0  0  0
   11.6018   -3.6454   24.9456 C   0  0  0  0  0  0  0  0  0  0  0  0
   10.0263   -5.2561   25.8176 C   0  0  0  0  0  0  0  0  0  0  0  0
    9.3846   -2.9377   25.5938 C   0  0  0  0  0  0  0  0  0  0  0  0
    6.2675    1.3003   18.2278 C   0  0  0  0  0  0  0  0  0  0  0  0
    7.7438   -0.2210   19.1135 C   0  0  0  0  0  0  0  0  0  0  0  0
    7.4594    0.1765   20.4100 C   0  0  0  0  0  0  0  0  0  0  0  0
   10.6489   -2.6367   25.0871 C   0  0  0  0  0  0  0  0  0  0  0  0
    9.0733   -4.2474   25.9590 C   0  0  0  0  0  0  0  0  0  0  0  0
    9.0475   -1.4493   21.4950 C   0  0  0  0  0  0  0  0  0  0  0  0
   12.7684    1.0575   22.8476 C   0  0  0  0  0  0  0  0  0  0  0  0
   11.5599    1.3778   23.7212 C   0  0  0  0  0  0  0  0  0  0  0  0
   13.1118   -0.4281   22.8857 C   0  0  0  0  0  0  0  0  0  0  0  0
   10.3515    0.5161   23.3503 C   0  0  0  0  0  0  0  0  0  0  0  0
   11.9084   -1.2940   22.5099 C   0  0  0  0  0  0  0  0  0  0  0  0
   10.6762   -0.9854   23.3759 C   0  0  0  0  0  0  0  0  0  0  0  0
    9.4690   -1.8008   22.9092 C   0  0  0  0  0  0  0  0  0  0  0  0
    7.1700    0.3167   18.0139 N   0  0  0  0  0  0  0  0  0  0  0  0
    7.7441   -4.3947   28.2648 N   0  0  0  0  0  0  0  0  0  0  0  0
    8.0990   -0.4307   21.5169 N   0  0  0  0  0  0  0  0  0  0  0  0
    9.5109   -2.0155   20.5105 O   0  0  0  0  0  0  0  0  0  0  0  0
    6.5531   -3.6171   26.1148 O   0  0  0  0  0  0  0  0  0  0  0  0
    7.2198   -6.0354   26.3490 O   0  0  0  0  0  0  0  0  0  0  0  0
   10.9541   -1.3536   24.7302 O   0  0  0  0  0  0  0  0  0  0  0  0
    7.4898   -4.6251   26.5910 S   0  0  0  0  0  0  0  0  0  0  0  0
   12.0327   -5.7403   25.2011 H   0  0  0  0  0  0  0  0  0  0  0  0
    5.1831    2.5612   19.5991 H   0  0  0  0  0  0  0  0  0  0  0  0
    6.2679    1.5385   21.5866 H   0  0  0  0  0  0  0  0  0  0  0  0
   12.5884   -3.4173   24.5518 H   0  0  0  0  0  0  0  0  0  0  0  0
    9.7938   -6.2798   26.0980 H   0  0  0  0  0  0  0  0  0  0  0  0
    8.6453   -2.1477   25.7024 H   0  0  0  0  0  0  0  0  0  0  0  0
    5.8194    1.7188   17.3327 H   0  0  0  0  0  0  0  0  0  0  0  0
    8.4636   -1.0081   18.9094 H   0  0  0  0  0  0  0  0  0  0  0  0
   12.5601    1.3572   21.8131 H   0  0  0  0  0  0  0  0  0  0  0  0
   13.6315    1.6440   23.1822 H   0  0  0  0  0  0  0  0  0  0  0  0
   11.8178    1.2193   24.7754 H   0  0  0  0  0  0  0  0  0  0  0  0
   11.3006    2.4373   23.6148 H   0  0  0  0  0  0  0  0  0  0  0  0
   13.9389   -0.6320   22.1961 H   0  0  0  0  0  0  0  0  0  0  0  0
   13.4630   -0.6978   23.8891 H   0  0  0  0  0  0  0  0  0  0  0  0
    9.5424    0.7386   24.0571 H   0  0  0  0  0  0  0  0  0  0  0  0
   10.0012    0.8057   22.3514 H   0  0  0  0  0  0  0  0  0  0  0  0
   11.6697   -1.1326   21.4510 H   0  0  0  0  0  0  0  0  0  0  0  0
   12.1950   -2.3471   22.6216 H   0  0  0  0  0  0  0  0  0  0  0  0
    8.6326   -1.6139   23.5864 H   0  0  0  0  0  0  0  0  0  0  0  0
    9.7211   -2.8627   22.9518 H   0  0  0  0  0  0  0  0  0  0  0  0
    7.3142   -3.5742   28.7090 H   0  0  0  0  0  0  0  0  0  0  0  0
    7.7713   -5.2264   28.8671 H   0  0  0  0  0  0  0  0  0  0  0  0
    7.8245   -0.0712   22.4288 H   0  0  0  0  0  0  0  0  0  0  0  0
  1  4  1  0  0  0  0
  1  5  2  0  0  0  0
  2  3  2  0  0  0  0
  2  7  1  0  0  0  0
  3  9  1  0  0  0  0
  4 10  2  0  0  0  0
  5 11  1  0  0  0  0
  6 10  1  0  0  0  0
  6 11  2  0  0  0  0
  7 20  2  0  0  0  0
  8  9  2  0  0  0  0
  8 20  1  0  0  0  0
  9 22  1  0  0  0  0
 10 26  1  0  0  0  0
 11 27  1  0  0  0  0
 12 19  1  0  0  0  0
 12 22  1  0  0  0  0
 12 23  2  0  0  0  0
 13 14  1  0  0  0  0
 13 15  1  0  0  0  0
 14 16  1  0  0  0  0
 15 17  1  0  0  0  0
 16 18  1  0  0  0  0
 17 18  1  0  0  0  0
 18 19  1  0  0  0  0
 18 26  1  0  0  0  0
 21 27  1  0  0  0  0
 24 27  2  0  0  0  0
 25 27  2  0  0  0  0
  1 28  1  0  0  0  0
  2 29  1  0  0  0  0
  3 30  1  0  0  0  0
  4 31  1  0  0  0  0
  5 32  1  0  0  0  0
  6 33  1  0  0  0  0
  7 34  1  0  0  0  0
  8 35  1  0  0  0  0
 13 36  1  0  0  0  0
 13 37  1  0  0  0  0
 14 38  1  0  0  0  0
 14 39  1  0  0  0  0
 15 40  1  0  0  0  0
 15 41  1  0  0  0  0
 16 42  1  0  0  0  0
 16 43  1  0  0  0  0
 17 44  1  0  0  0  0
 17 45  1  0  0  0  0
 19 46  1  0  0  0  0
 19 47  1  0  0  0  0
 21 48  1  0  0  0  0
 21 49  1  0  0  0  0
 22 50  1  0  0  0  0
M  END
> <Chemgauss4 Score>
-6.31187629699707

> <Number of Confs>
200

$$$$
NAU-LAT-ec9-1
  -OEChem-03242005443D

 35 37  0     0  0  0  0  0  0999 V2000
   14.2272    0.1339   21.6852 C   0  0  0  0  0  0  0  0  0  0  0  0
   13.1089    0.7961   22.1915 C   0  0  0  0  0  0  0  0  0  0  0  0
   14.2331   -1.2582   21.5974 C   0  0  0  0  0  0  0  0  0  0  0  0
   11.9964    0.0663   22.6102 C   0  0  0  0  0  0  0  0  0  0  0  0
   13.1206   -1.9881   22.0161 C   0  0  0  0  0  0  0  0  0  0  0  0
    9.4488   -5.4934   26.0379 C   0  0  0  0  0  0  0  0  0  0  0  0
   10.4361   -4.6732   25.4914 C   0  0  0  0  0  0  0  0  0  0  0  0
    7.8095   -4.5303   24.5423 C   0  0  0  0  0  0  0  0  0  0  0  0
   12.0022   -1.3259   22.5225 C   0  0  0  0  0  0  0  0  0  0  0  0
    8.8010   -3.7104   23.9978 C   0  0  0  0  0  0  0  0  0  0  0  0
    8.1382   -5.4219   25.5642 C   0  0  0  0  0  0  0  0  0  0  0  0
   10.1097   -3.7806   24.4699 C   0  0  0  0  0  0  0  0  0  0  0  0
   10.8272   -2.0975   22.9648 C   0  0  0  0  0  0  0  0  0  0  0  0
    8.4842   -2.7624   22.9186 C   0  0  0  0  0  0  0  0  0  0  0  0
    9.6093   -1.9380   22.4155 C   0  0  0  0  0  0  0  0  0  0  0  0
    5.7962   -6.3132   25.7758 C   0  0  0  0  0  0  0  0  0  0  0  0
    5.0631   -7.3328   26.6109 C   0  0  0  0  0  0  0  0  0  0  0  0
    7.1535   -6.2424   26.1159 N   0  0  0  0  0  0  0  0  0  0  0  0
    7.3544   -2.6602   22.4595 O   0  0  0  0  0  0  0  0  0  0  0  0
    5.2074   -5.6638   24.9175 O   0  0  0  0  0  0  0  0  0  0  0  0
   11.1223   -3.0013   23.9731 O   0  0  0  0  0  0  0  0  0  0  0  0
    9.3563   -1.0523   21.3904 O   0  0  0  0  0  0  0  0  0  0  0  0
   15.0929    0.7022   21.3580 H   0  0  0  0  0  0  0  0  0  0  0  0
   13.1037    1.8802   22.2589 H   0  0  0  0  0  0  0  0  0  0  0  0
   15.1033   -1.7739   21.2021 H   0  0  0  0  0  0  0  0  0  0  0  0
   11.1321    0.5967   23.0028 H   0  0  0  0  0  0  0  0  0  0  0  0
   13.1403   -3.0727   21.9414 H   0  0  0  0  0  0  0  0  0  0  0  0
    9.7123   -6.1857   26.8335 H   0  0  0  0  0  0  0  0  0  0  0  0
   11.4539   -4.7340   25.8668 H   0  0  0  0  0  0  0  0  0  0  0  0
    6.7863   -4.4815   24.1776 H   0  0  0  0  0  0  0  0  0  0  0  0
    4.6702   -6.8579   27.5144 H   0  0  0  0  0  0  0  0  0  0  0  0
    5.7477   -8.1348   26.9012 H   0  0  0  0  0  0  0  0  0  0  0  0
    4.2384   -7.7634   26.0353 H   0  0  0  0  0  0  0  0  0  0  0  0
    7.4556   -6.8761   26.8647 H   0  0  0  0  0  0  0  0  0  0  0  0
    8.4261   -1.0923   21.1438 H   0  0  0  0  0  0  0  0  0  0  0  0
  1  2  1  0  0  0  0
  1  3  2  0  0  0  0
  2  4  2  0  0  0  0
  3  5  1  0  0  0  0
  4  9  1  0  0  0  0
  5  9  2  0  0  0  0
  6  7  2  0  0  0  0
  6 11  1  0  0  0  0
  7 12  1  0  0  0  0
  8 10  1  0  0  0  0
  8 11  2  0  0  0  0
  9 13  1  0  0  0  0
 10 12  2  0  0  0  0
 10 14  1  0  0  0  0
 11 18  1  0  0  0  0
 12 21  1  0  0  0  0
 13 15  2  0  0  0  0
 13 21  1  0  0  0  0
 14 15  1  0  0  0  0
 14 19  2  0  0  0  0
 15 22  1  0  0  0  0
 16 17  1  0  0  0  0
 16 18  1  0  0  0  0
 16 20  2  0  0  0  0
  1 23  1  0  0  0  0
  2 24  1  0  0  0  0
  3 25  1  0  0  0  0
  4 26  1  0  0  0  0
  5 27  1  0  0  0  0
  6 28  1  0  0  0  0
  7 29  1  0  0  0  0
  8 30  1  0  0  0  0
 17 31  1  0  0  0  0
 17 32  1  0  0  0  0
 17 33  1  0  0  0  0
 18 34  1  0  0  0  0
 22 35  1  0  0  0  0
M  END
> <Chemgauss4 Score>
-6.30421304702759

> <Number of Confs>
4

$$$$
TRY-UNI-714-2
  -OEChem-03242005443D

 33 34  0     0  0  0  0  0  0999 V2000
   13.5872   -1.1007   22.3054 C   0  0  0  0  0  0  0  0  0  0  0  0
   13.7170   -0.0973   23.2656 C   0  0  0  0  0  0  0  0  0  0  0  0
   12.3340   -1.6515   22.0373 C   0  0  0  0  0  0  0  0  0  0  0  0
   12.5937    0.3552   23.9577 C   0  0  0  0  0  0  0  0  0  0  0  0
   11.2107   -1.1990   22.7295 C   0  0  0  0  0  0  0  0  0  0  0  0
    8.7870   -4.7416   28.2786 C   0  0  0  0  0  0  0  0  0  0  0  0
    9.2499   -2.5566   27.7403 C   0  0  0  0  0  0  0  0  0  0  0  0
   11.3405   -0.1956   23.6897 C   0  0  0  0  0  0  0  0  0  0  0  0
    9.1449   -4.1715   25.9975 C   0  0  0  0  0  0  0  0  0  0  0  0
    8.8601   -5.1400   26.9536 C   0  0  0  0  0  0  0  0  0  0  0  0
    9.3449   -2.8527   26.3901 C   0  0  0  0  0  0  0  0  0  0  0  0
    9.8555   -0.4792   25.7188 C   0  0  0  0  0  0  0  0  0  0  0  0
    9.2362   -4.5465   24.5515 C   0  0  0  0  0  0  0  0  0  0  0  0
   10.1391    0.2876   24.4296 C   0  0  0  0  0  0  0  0  0  0  0  0
    8.9752   -3.4703   28.6981 N   0  0  0  0  0  0  0  0  0  0  0  0
    8.6498   -6.4865   26.6060 N   0  0  0  0  0  0  0  0  0  0  0  0
    9.6363   -1.8293   25.4570 N   0  0  0  0  0  0  0  0  0  0  0  0
    9.8354    0.0785   26.8114 O   0  0  0  0  0  0  0  0  0  0  0  0
   14.4617   -1.4520   21.7656 H   0  0  0  0  0  0  0  0  0  0  0  0
   14.6925    0.3325   23.4737 H   0  0  0  0  0  0  0  0  0  0  0  0
   12.2323   -2.4320   21.2890 H   0  0  0  0  0  0  0  0  0  0  0  0
   12.7044    1.1372   24.7043 H   0  0  0  0  0  0  0  0  0  0  0  0
   10.2384   -1.6341   22.5141 H   0  0  0  0  0  0  0  0  0  0  0  0
    8.5682   -5.4517   29.0706 H   0  0  0  0  0  0  0  0  0  0  0  0
    9.3952   -1.5454   28.1086 H   0  0  0  0  0  0  0  0  0  0  0  0
    8.2540   -4.4556   24.0760 H   0  0  0  0  0  0  0  0  0  0  0  0
    9.9452   -3.9004   24.0217 H   0  0  0  0  0  0  0  0  0  0  0  0
    9.5903   -5.5771   24.4342 H   0  0  0  0  0  0  0  0  0  0  0  0
   10.2500    1.3543   24.6852 H   0  0  0  0  0  0  0  0  0  0  0  0
    9.2443    0.2222   23.7889 H   0  0  0  0  0  0  0  0  0  0  0  0
    8.4935   -7.1624   27.3289 H   0  0  0  0  0  0  0  0  0  0  0  0
    8.7521   -6.7693   25.6503 H   0  0  0  0  0  0  0  0  0  0  0  0
    9.6922   -2.1130   24.4811 H   0  0  0  0  0  0  0  0  0  0  0  0
  1  2  1  0  0  0  0
  1  3  2  0  0  0  0
  2  4  2  0  0  0  0
  3  5  1  0  0  0  0
  4  8  1  0  0  0  0
  5  8  2  0  0  0  0
  6 10  2  0  0  0  0
  6 15  1  0  0  0  0
  7 11  1  0  0  0  0
  7 15  2  0  0  0  0
  8 14  1  0  0  0  0
  9 10  1  0  0  0  0
  9 11  2  0  0  0  0
  9 13  1  0  0  0  0
 10 16  1  0  0  0  0
 11 17  1  0  0  0  0
 12 14  1  0  0  0  0
 12 17  1  0  0  0  0
 12 18  2  0  0  0  0
  1 19  1  0  0  0  0
  2 20  1  0  0  0  0
  3 21  1  0  0  0  0
  4 22  1  0  0  0  0
  5 23  1  0  0  0  0
  6 24  1  0  0  0  0
  7 25  1  0  0  0  0
 13 26  1  0  0  0  0
 13 27  1  0  0  0  0
 13 28  1  0  0  0  0
 14 29  1  0  0  0  0
 14 30  1  0  0  0  0
 16 31  1  0  0  0  0
 16 32  1  0  0  0  0
 17 33  1  0  0  0  0
M  END
> <Chemgauss4 Score>
-6.30341720581055

> <Number of Confs>
10

$$$$
CHR-SOS-1f3-2
  -OEChem-03242005443D

 52 54  0     0  0  0  0  0  0999 V2000
   10.3209   -5.3475   26.6780 C   0  0  0  0  0  0  0  0  0  0  0  0
   10.8912   -4.6737   25.5981 C   0  0  0  0  0  0  0  0  0  0  0  0
    8.9338   -5.4535   26.7802 C   0  0  0  0  0  0  0  0  0  0  0  0
    5.1520   -0.1013   19.5467 C   0  0  0  0  0  0  0  0  0  0  0  0
    8.6873   -4.2116   24.7226 C   0  0  0  0  0  0  0  0  0  0  0  0
    5.8349   -0.1743   18.3434 C   0  0  0  0  0  0  0  0  0  0  0  0
    7.8382   -0.5575   19.4008 C   0  0  0  0  0  0  0  0  0  0  0  0
    5.8799   -0.2694   20.7194 C   0  0  0  0  0  0  0  0  0  0  0  0
    7.2492   -0.5022   20.6538 C   0  0  0  0  0  0  0  0  0  0  0  0
   10.0744   -4.1057   24.6204 C   0  0  0  0  0  0  0  0  0  0  0  0
    8.1170   -4.8854   25.8026 C   0  0  0  0  0  0  0  0  0  0  0  0
    9.1939   -1.4446   21.9616 C   0  0  0  0  0  0  0  0  0  0  0  0
   12.7677    0.0571   24.6028 C   0  0  0  0  0  0  0  0  0  0  0  0
   11.5642   -0.3209   25.4626 C   0  0  0  0  0  0  0  0  0  0  0  0
   12.5175   -0.2121   23.1210 C   0  0  0  0  0  0  0  0  0  0  0  0
   11.1260   -1.7622   25.2119 C   0  0  0  0  0  0  0  0  0  0  0  0
   12.0758   -1.6539   22.8795 C   0  0  0  0  0  0  0  0  0  0  0  0
   10.8600   -2.0473   23.7275 C   0  0  0  0  0  0  0  0  0  0  0  0
    5.1692   -0.1949   22.0309 C   0  0  0  0  0  0  0  0  0  0  0  0
    7.1640   -0.3989   18.2398 N   0  0  0  0  0  0  0  0  0  0  0  0
    6.0096   -3.6134   26.8250 N   0  0  0  0  0  0  0  0  0  0  0  0
    8.0329   -0.6799   21.8177 N   0  0  0  0  0  0  0  0  0  0  0  0
    9.6712   -1.3613   23.2744 N   0  0  0  0  0  0  0  0  0  0  0  0
    9.7473   -2.1077   21.0877 O   0  0  0  0  0  0  0  0  0  0  0  0
    5.8113   -4.8922   24.5955 O   0  0  0  0  0  0  0  0  0  0  0  0
    6.0658   -6.1876   26.7414 O   0  0  0  0  0  0  0  0  0  0  0  0
   10.6339   -3.4435   23.5611 O   0  0  0  0  0  0  0  0  0  0  0  0
    6.3805   -5.0205   25.9295 S   0  0  0  0  0  0  0  0  0  0  0  0
   10.9568   -5.7894   27.4393 H   0  0  0  0  0  0  0  0  0  0  0  0
   11.9722   -4.5944   25.5242 H   0  0  0  0  0  0  0  0  0  0  0  0
    8.4999   -5.9815   27.6250 H   0  0  0  0  0  0  0  0  0  0  0  0
    4.0830    0.0820   19.5635 H   0  0  0  0  0  0  0  0  0  0  0  0
    8.0549   -3.7667   23.9580 H   0  0  0  0  0  0  0  0  0  0  0  0
    5.3130   -0.0499   17.4003 H   0  0  0  0  0  0  0  0  0  0  0  0
    8.9030   -0.7366   19.2844 H   0  0  0  0  0  0  0  0  0  0  0  0
   13.0088    1.1159   24.7498 H   0  0  0  0  0  0  0  0  0  0  0  0
   13.6426   -0.5171   24.9323 H   0  0  0  0  0  0  0  0  0  0  0  0
   11.8163   -0.1932   26.5215 H   0  0  0  0  0  0  0  0  0  0  0  0
   10.7334    0.3627   25.2508 H   0  0  0  0  0  0  0  0  0  0  0  0
   11.7576    0.4823   22.7442 H   0  0  0  0  0  0  0  0  0  0  0  0
   13.4341   -0.0116   22.5543 H   0  0  0  0  0  0  0  0  0  0  0  0
   11.9031   -2.4469   25.5785 H   0  0  0  0  0  0  0  0  0  0  0  0
   10.2355   -1.9957   25.8095 H   0  0  0  0  0  0  0  0  0  0  0  0
   11.8628   -1.8089   21.8141 H   0  0  0  0  0  0  0  0  0  0  0  0
   12.9099   -2.3324   23.1055 H   0  0  0  0  0  0  0  0  0  0  0  0
    4.8141   -1.1887   22.3274 H   0  0  0  0  0  0  0  0  0  0  0  0
    5.8292    0.1899   22.8180 H   0  0  0  0  0  0  0  0  0  0  0  0
    4.3079    0.4825   21.9769 H   0  0  0  0  0  0  0  0  0  0  0  0
    6.2713   -3.5914   27.8182 H   0  0  0  0  0  0  0  0  0  0  0  0
    6.0952   -2.7051   26.3529 H   0  0  0  0  0  0  0  0  0  0  0  0
    7.7086   -0.1895   22.6475 H   0  0  0  0  0  0  0  0  0  0  0  0
    9.1578   -0.7918   23.9405 H   0  0  0  0  0  0  0  0  0  0  0  0
  1  2  2  0  0  0  0
  1  3  1  0  0  0  0
  2 10  1  0  0  0  0
  3 11  2  0  0  0  0
  4  6  2  0  0  0  0
  4  8  1  0  0  0  0
  5 10  2  0  0  0  0
  5 11  1  0  0  0  0
  6 20  1  0  0  0  0
  7  9  1  0  0  0  0
  7 20  2  0  0  0  0
  8  9  2  0  0  0  0
  8 19  1  0  0  0  0
  9 22  1  0  0  0  0
 10 27  1  0  0  0  0
 11 28  1  0  0  0  0
 12 22  1  0  0  0  0
 12 23  1  0  0  0  0
 12 24  2  0  0  0  0
 13 14  1  0  0  0  0
 13 15  1  0  0  0  0
 14 16  1  0  0  0  0
 15 17  1  0  0  0  0
 16 18  1  0  0  0  0
 17 18  1  0  0  0  0
 18 23  1  0  0  0  0
 18 27  1  0  0  0  0
 21 28  1  0  0  0  0
 25 28  2  0  0  0  0
 26 28  2  0  0  0  0
  1 29  1  0  0  0  0
  2 30  1  0  0  0  0
  3 31  1  0  0  0  0
  4 32  1  0  0  0  0
  5 33  1  0  0  0  0
  6 34  1  0  0  0  0
  7 35  1  0  0  0  0
 13 36  1  0  0  0  0
 13 37  1  0  0  0  0
 14 38  1  0  0  0  0
 14 39  1  0  0  0  0
 15 40  1  0  0  0  0
 15 41  1  0  0  0  0
 16 42  1  0  0  0  0
 16 43  1  0  0  0  0
 17 44  1  0  0  0  0
 17 45  1  0  0  0  0
 19 46  1  0  0  0  0
 19 47  1  0  0  0  0
 19 48  1  0  0  0  0
 21 49  1  0  0  0  0
 21 50  1  0  0  0  0
 22 51  1  0  0  0  0
 23 52  1  0  0  0  0
M  END
> <Chemgauss4 Score>
-6.29818344116211

> <Number of Confs>
168

$$$$
ANT-LOU-17a-1
  -OEChem-03242005443D

 36 37  0     0  0  0  0  0  0999 V2000
    6.2629   -0.0885   19.1709 C   0  0  0  0  0  0  0  0  0  0  0  0
    5.9588    1.3130   21.1151 C   0  0  0  0  0  0  0  0  0  0  0  0
    6.9471   -4.2988   25.1500 C   0  0  0  0  0  0  0  0  0  0  0  0
    9.3199   -3.8707   24.9971 C   0  0  0  0  0  0  0  0  0  0  0  0
    6.4629    0.1513   20.5303 C   0  0  0  0  0  0  0  0  0  0  0  0
    8.0054   -3.5051   24.7076 C   0  0  0  0  0  0  0  0  0  0  0  0
    5.5589    0.8334   18.3961 C   0  0  0  0  0  0  0  0  0  0  0  0
    5.2548    2.2350   20.3404 C   0  0  0  0  0  0  0  0  0  0  0  0
    7.2035   -5.4581   25.8822 C   0  0  0  0  0  0  0  0  0  0  0  0
    9.5763   -5.0301   25.7292 C   0  0  0  0  0  0  0  0  0  0  0  0
    5.0549    1.9951   18.9809 C   0  0  0  0  0  0  0  0  0  0  0  0
    8.5180   -5.8238   26.1717 C   0  0  0  0  0  0  0  0  0  0  0  0
    7.9435   -0.5159   22.4297 C   0  0  0  0  0  0  0  0  0  0  0  0
    8.5508   -1.7633   23.0008 C   0  0  0  0  0  0  0  0  0  0  0  0
    7.1674   -0.7709   21.3050 N   0  0  0  0  0  0  0  0  0  0  0  0
    7.7454   -2.3298   23.9658 N   0  0  0  0  0  0  0  0  0  0  0  0
    8.2088    0.5325   22.9938 O   0  0  0  0  0  0  0  0  0  0  0  0
    9.6412   -2.0929   22.5651 O   0  0  0  0  0  0  0  0  0  0  0  0
    5.3701    0.5878   17.0695 O   0  0  0  0  0  0  0  0  0  0  0  0
    4.7672    3.3659   20.9229 O   0  0  0  0  0  0  0  0  0  0  0  0
    6.1614   -6.2250   26.3086 O   0  0  0  0  0  0  0  0  0  0  0  0
   10.8644   -5.3770   26.0056 O   0  0  0  0  0  0  0  0  0  0  0  0
    4.3673    2.8970   18.2238 O   0  0  0  0  0  0  0  0  0  0  0  0
    8.7690   -6.9566   26.8880 O   0  0  0  0  0  0  0  0  0  0  0  0
    6.6530   -0.9933   18.7104 H   0  0  0  0  0  0  0  0  0  0  0  0
    6.1127    1.5049   22.1744 H   0  0  0  0  0  0  0  0  0  0  0  0
    5.9205   -4.0186   24.9260 H   0  0  0  0  0  0  0  0  0  0  0  0
   10.1484   -3.2549   24.6549 H   0  0  0  0  0  0  0  0  0  0  0  0
    7.1074   -1.7537   21.0165 H   0  0  0  0  0  0  0  0  0  0  0  0
    6.8654   -1.8627   24.1746 H   0  0  0  0  0  0  0  0  0  0  0  0
    5.7800   -0.2562   16.8233 H   0  0  0  0  0  0  0  0  0  0  0  0
    4.9909    3.3798   21.8667 H   0  0  0  0  0  0  0  0  0  0  0  0
    5.3198   -5.8341   26.0258 H   0  0  0  0  0  0  0  0  0  0  0  0
   11.4754   -4.7242   25.6292 H   0  0  0  0  0  0  0  0  0  0  0  0
    4.3137    2.5900   17.3056 H   0  0  0  0  0  0  0  0  0  0  0  0
    7.9363   -7.3952   27.1214 H   0  0  0  0  0  0  0  0  0  0  0  0
  1  5  1  0  0  0  0
  1  7  2  0  0  0  0
  2  5  2  0  0  0  0
  2  8  1  0  0  0  0
  3  6  1  0  0  0  0
  3  9  2  0  0  0  0
  4  6  2  0  0  0  0
  4 10  1  0  0  0  0
  5 15  1  0  0  0  0
  6 16  1  0  0  0  0
  7 11  1  0  0  0  0
  7 19  1  0  0  0  0
  8 11  2  0  0  0  0
  8 20  1  0  0  0  0
  9 12  1  0  0  0  0
  9 21  1  0  0  0  0
 10 12  2  0  0  0  0
 10 22  1  0  0  0  0
 11 23  1  0  0  0  0
 12 24  1  0  0  0  0
 13 14  1  0  0  0  0
 13 15  1  0  0  0  0
 13 17  2  0  0  0  0
 14 16  1  0  0  0  0
 14 18  2  0  0  0  0
  1 25  1  0  0  0  0
  2 26  1  0  0  0  0
  3 27  1  0  0  0  0
  4 28  1  0  0  0  0
 15 29  1  0  0  0  0
 16 30  1  0  0  0  0
 19 31  1  0  0  0  0
 20 32  1  0  0  0  0
 21 33  1  0  0  0  0
 22 34  1  0  0  0  0
 23 35  1  0  0  0  0
 24 36  1  0  0  0  0
M  END
> <Chemgauss4 Score>
-6.29254102706909

> <Number of Confs>
13

$$$$
DUN-NEW-f8c-2
  -OEChem-03242005443D

 50 52  0     1  0  0  0  0  0999 V2000
    5.5765   -5.0953   21.9803 C   0  0  0  0  0  0  0  0  0  0  0  0
    5.6338   -5.9892   23.0495 C   0  0  0  0  0  0  0  0  0  0  0  0
    6.0647   -3.7971   22.1295 C   0  0  0  0  0  0  0  0  0  0  0  0
    6.1793   -5.5849   24.2680 C   0  0  0  0  0  0  0  0  0  0  0  0
    6.6101   -3.3929   23.3480 C   0  0  0  0  0  0  0  0  0  0  0  0
    6.6674   -4.2868   24.4173 C   0  0  0  0  0  0  0  0  0  0  0  0
    8.7608   -5.6536   26.2350 C   0  0  0  0  0  0  0  0  0  0  0  0
   12.3723   -0.2023   23.4754 C   0  0  0  0  0  0  0  0  0  0  0  0
    7.2742   -3.4729   27.9526 C   0  0  0  0  0  0  0  0  0  0  0  0
    8.6963   -3.4665   27.4093 C   0  0  0  0  0  0  0  0  0  0  0  0
    6.4105   -3.3084   26.7063 C   0  0  0  0  0  0  0  0  0  0  0  0
   10.8633   -2.1876   22.9874 C   0  0  0  0  0  0  0  0  0  0  0  0
   10.3753   -0.6625   24.8583 C   0  0  0  0  0  0  0  0  0  0  0  0
    9.3755   -2.1842   22.6314 C   0  0  0  0  0  0  0  0  0  0  0  0
    8.8991   -0.6834   24.4632 C   0  0  0  0  0  0  0  0  0  0  0  0
    8.5751   -4.1781   26.0608 C   0  0  2  0  0  0  0  0  0  0  0  0
    7.1279   -1.9899   23.4804 C   0  0  0  0  0  0  0  0  0  0  0  0
   12.8870   -0.1859   22.0581 C   0  0  0  0  0  0  0  0  0  0  0  0
    7.2043   -3.9034   25.6316 N   0  0  3  0  0  0  0  0  0  0  0  0
   11.2347   -0.9713   23.7165 N   0  0  0  0  0  0  0  0  0  0  0  0
    8.5484   -1.9613   23.8264 N   0  0  0  0  0  0  0  0  0  0  0  0
   10.0668   -6.0662   26.1154 N   0  0  0  0  0  0  0  0  0  0  0  0
    7.8203   -6.4056   26.4790 O   0  0  0  0  0  0  0  0  0  0  0  0
   12.9617    0.4516   24.3395 O   0  0  0  0  0  0  0  0  0  0  0  0
   14.0596   -1.4924   21.9329 Cl  0  0  0  0  0  0  0  0  0  0  0  0
    5.1518   -5.4102   21.0316 H   0  0  0  0  0  0  0  0  0  0  0  0
    5.2537   -6.9999   22.9332 H   0  0  0  0  0  0  0  0  0  0  0  0
    6.0153   -3.1084   21.2902 H   0  0  0  0  0  0  0  0  0  0  0  0
    6.2186   -6.2903   25.0942 H   0  0  0  0  0  0  0  0  0  0  0  0
    7.0575   -4.4325   28.4366 H   0  0  0  0  0  0  0  0  0  0  0  0
    7.1067   -2.6764   28.6833 H   0  0  0  0  0  0  0  0  0  0  0  0
    9.0271   -2.4321   27.2567 H   0  0  0  0  0  0  0  0  0  0  0  0
    9.3917   -3.9554   28.0986 H   0  0  0  0  0  0  0  0  0  0  0  0
    5.4384   -3.8085   26.8105 H   0  0  0  0  0  0  0  0  0  0  0  0
    6.2314   -2.2409   26.5100 H   0  0  0  0  0  0  0  0  0  0  0  0
   11.0991   -3.0366   23.6410 H   0  0  0  0  0  0  0  0  0  0  0  0
   11.4506   -2.3091   22.0752 H   0  0  0  0  0  0  0  0  0  0  0  0
   10.6305    0.3140   25.2826 H   0  0  0  0  0  0  0  0  0  0  0  0
   10.5785   -1.4161   25.6292 H   0  0  0  0  0  0  0  0  0  0  0  0
    9.1815   -1.4172   21.8698 H   0  0  0  0  0  0  0  0  0  0  0  0
    9.1278   -3.1557   22.1869 H   0  0  0  0  0  0  0  0  0  0  0  0
    8.2997   -0.5461   25.3713 H   0  0  0  0  0  0  0  0  0  0  0  0
    8.6825    0.1624   23.7971 H   0  0  0  0  0  0  0  0  0  0  0  0
    9.3417   -3.8131   25.3640 H   0  0  0  0  0  0  0  0  0  0  0  0
    6.9983   -1.4403   22.5417 H   0  0  0  0  0  0  0  0  0  0  0  0
    6.5833   -1.4415   24.2562 H   0  0  0  0  0  0  0  0  0  0  0  0
   13.3694    0.7665   21.8705 H   0  0  0  0  0  0  0  0  0  0  0  0
   12.0588   -0.3627   21.3815 H   0  0  0  0  0  0  0  0  0  0  0  0
   10.7816   -5.3713   25.9257 H   0  0  0  0  0  0  0  0  0  0  0  0
   10.3448   -7.0377   26.2093 H   0  0  0  0  0  0  0  0  0  0  0  0
  1  2  1  0  0  0  0
  1  3  2  0  0  0  0
  2  4  2  0  0  0  0
  3  5  1  0  0  0  0
  4  6  1  0  0  0  0
  5  6  2  0  0  0  0
  5 17  1  0  0  0  0
  6 19  1  1  0  0  0
  7 16  1  1  0  0  0
  7 22  1  0  0  0  0
  7 23  2  0  0  0  0
  8 18  1  0  0  0  0
  8 20  1  0  0  0  0
  8 24  2  0  0  0  0
  9 10  1  0  0  0  0
  9 11  1  0  0  0  0
 10 16  1  0  0  0  0
 11 19  1  0  0  0  0
 12 14  1  0  0  0  0
 12 20  1  0  0  0  0
 13 15  1  0  0  0  0
 13 20  1  0  0  0  0
 14 21  1  0  0  0  0
 15 21  1  0  0  0  0
 16 19  1  0  0  0  0
 17 21  1  0  0  0  0
 18 25  1  0  0  0  0
  1 26  1  0  0  0  0
  2 27  1  0  0  0  0
  3 28  1  0  0  0  0
  4 29  1  0  0  0  0
  9 30  1  0  0  0  0
  9 31  1  0  0  0  0
 10 32  1  0  0  0  0
 10 33  1  0  0  0  0
 11 34  1  0  0  0  0
 11 35  1  0  0  0  0
 12 36  1  0  0  0  0
 12 37  1  0  0  0  0
 13 38  1  0  0  0  0
 13 39  1  0  0  0  0
 14 40  1  0  0  0  0
 14 41  1  0  0  0  0
 15 42  1  0  0  0  0
 15 43  1  0  0  0  0
 16 44  1  0  0  0  0
 17 45  1  0  0  0  0
 17 46  1  0  0  0  0
 18 47  1  0  0  0  0
 18 48  1  0  0  0  0
 22 49  1  0  0  0  0
 22 50  1  0  0  0  0
M  END
> <Chemgauss4 Score>
-6.28873300552368

> <Number of Confs>
179

$$$$
CHR-SOS-363-3
  -OEChem-03242005443D

 38 40  0     0  0  0  0  0  0999 V2000
   10.8845   -4.6677   25.5820 C   0  0  0  0  0  0  0  0  0  0  0  0
    6.9918   -3.9793   28.0653 C   0  0  0  0  0  0  0  0  0  0  0  0
    7.4993   -2.7732   27.5824 C   0  0  0  0  0  0  0  0  0  0  0  0
    7.0079   -5.1162   27.2573 C   0  0  0  0  0  0  0  0  0  0  0  0
    5.1750    1.4781   18.7065 C   0  0  0  0  0  0  0  0  0  0  0  0
    5.6365    0.8462   19.8559 C   0  0  0  0  0  0  0  0  0  0  0  0
    8.0229   -2.7039   26.2914 C   0  0  0  0  0  0  0  0  0  0  0  0
    7.5314   -5.0469   25.9662 C   0  0  0  0  0  0  0  0  0  0  0  0
    5.9059    1.3180   17.5404 C   0  0  0  0  0  0  0  0  0  0  0  0
   12.0692   -2.8326   24.4969 C   0  0  0  0  0  0  0  0  0  0  0  0
    7.4566   -0.0137   18.5893 C   0  0  0  0  0  0  0  0  0  0  0  0
   11.0345   -1.3644   23.0644 C   0  0  0  0  0  0  0  0  0  0  0  0
   10.8951   -3.5373   24.7088 C   0  0  0  0  0  0  0  0  0  0  0  0
    6.7984    0.0842   19.8047 C   0  0  0  0  0  0  0  0  0  0  0  0
    9.8120   -2.0003   23.2091 C   0  0  0  0  0  0  0  0  0  0  0  0
    8.0389   -3.8407   25.4833 C   0  0  0  0  0  0  0  0  0  0  0  0
    9.7495   -3.1067   24.0489 C   0  0  0  0  0  0  0  0  0  0  0  0
    8.6273   -0.8684   21.2767 C   0  0  0  0  0  0  0  0  0  0  0  0
   10.8758   -5.5862   26.2914 N   0  0  0  0  0  0  0  0  0  0  0  0
    7.0389    0.5858   17.4519 N   0  0  0  0  0  0  0  0  0  0  0  0
   12.1688   -1.7534   23.6888 N   0  0  0  0  0  0  0  0  0  0  0  0
    7.2928   -0.5704   20.9575 N   0  0  0  0  0  0  0  0  0  0  0  0
    8.6895   -1.5320   22.5268 N   0  0  0  0  0  0  0  0  0  0  0  0
    9.6007   -0.5973   20.5809 O   0  0  0  0  0  0  0  0  0  0  0  0
    8.5482   -3.7732   24.2229 O   0  0  0  0  0  0  0  0  0  0  0  0
    6.5846   -4.0338   29.0707 H   0  0  0  0  0  0  0  0  0  0  0  0
    7.4867   -1.8878   28.2114 H   0  0  0  0  0  0  0  0  0  0  0  0
    6.6126   -6.0551   27.6341 H   0  0  0  0  0  0  0  0  0  0  0  0
    4.2716    2.0770   18.7231 H   0  0  0  0  0  0  0  0  0  0  0  0
    5.0835    0.9540   20.7852 H   0  0  0  0  0  0  0  0  0  0  0  0
    8.4154   -1.7609   25.9206 H   0  0  0  0  0  0  0  0  0  0  0  0
    7.5397   -5.9353   25.3406 H   0  0  0  0  0  0  0  0  0  0  0  0
    5.5884    1.7912   16.6171 H   0  0  0  0  0  0  0  0  0  0  0  0
   12.9987   -3.1170   24.9820 H   0  0  0  0  0  0  0  0  0  0  0  0
    8.3685   -0.5943   18.4864 H   0  0  0  0  0  0  0  0  0  0  0  0
   11.1468   -0.4951   22.4232 H   0  0  0  0  0  0  0  0  0  0  0  0
    6.5959   -0.8607   21.6387 H   0  0  0  0  0  0  0  0  0  0  0  0
    7.7814   -1.6824   22.9796 H   0  0  0  0  0  0  0  0  0  0  0  0
  1 13  1  0  0  0  0
  1 19  3  0  0  0  0
  2  3  1  0  0  0  0
  2  4  2  0  0  0  0
  3  7  2  0  0  0  0
  4  8  1  0  0  0  0
  5  6  2  0  0  0  0
  5  9  1  0  0  0  0
  6 14  1  0  0  0  0
  7 16  1  0  0  0  0
  8 16  2  0  0  0  0
  9 20  2  0  0  0  0
 10 13  1  0  0  0  0
 10 21  2  0  0  0  0
 11 14  2  0  0  0  0
 11 20  1  0  0  0  0
 12 15  2  0  0  0  0
 12 21  1  0  0  0  0
 13 17  2  0  0  0  0
 14 22  1  0  0  0  0
 15 17  1  0  0  0  0
 15 23  1  0  0  0  0
 16 25  1  0  0  0  0
 17 25  1  0  0  0  0
 18 22  1  0  0  0  0
 18 23  1  0  0  0  0
 18 24  2  0  0  0  0
  2 26  1  0  0  0  0
  3 27  1  0  0  0  0
  4 28  1  0  0  0  0
  5 29  1  0  0  0  0
  6 30  1  0  0  0  0
  7 31  1  0  0  0  0
  8 32  1  0  0  0  0
  9 33  1  0  0  0  0
 10 34  1  0  0  0  0
 11 35  1  0  0  0  0
 12 36  1  0  0  0  0
 22 37  1  0  0  0  0
 23 38  1  0  0  0  0
M  END
> <Chemgauss4 Score>
-6.28736209869385

> <Number of Confs>
42

$$$$
SAM-UNK-83e-3
  -OEChem-03242005443D

 39 40  0     0  0  0  0  0  0999 V2000
   12.2548   -2.1692   23.2106 C   0  0  0  0  0  0  0  0  0  0  0  0
   11.7564   -0.3140   21.7250 C   0  0  0  0  0  0  0  0  0  0  0  0
    8.7773   -3.0044   23.9657 C   0  0  0  0  0  0  0  0  0  0  0  0
   10.8742   -2.3722   23.4064 C   0  0  0  0  0  0  0  0  0  0  0  0
   10.3822   -0.4963   21.9040 C   0  0  0  0  0  0  0  0  0  0  0  0
   10.1064   -3.2957   24.1696 C   0  0  0  0  0  0  0  0  0  0  0  0
    9.9716   -1.5327   22.7500 C   0  0  0  0  0  0  0  0  0  0  0  0
   12.6801   -1.1363   22.3672 C   0  0  0  0  0  0  0  0  0  0  0  0
    9.3928    0.3390   21.2537 C   0  0  0  0  0  0  0  0  0  0  0  0
   10.5760   -4.3374   24.9998 C   0  0  0  0  0  0  0  0  0  0  0  0
    8.4436   -0.1331   20.4486 C   0  0  0  0  0  0  0  0  0  0  0  0
   10.2971   -4.4630   26.3165 C   0  0  0  0  0  0  0  0  0  0  0  0
    9.2985   -3.8465   28.4376 C   0  0  0  0  0  0  0  0  0  0  0  0
    8.3904   -2.8012   29.0306 C   0  0  0  0  0  0  0  0  0  0  0  0
    5.3062    0.6677   18.2226 C   0  0  0  0  0  0  0  0  0  0  0  0
    8.7061   -1.9397   23.1079 N   0  0  0  0  0  0  0  0  0  0  0  0
    9.5336   -3.6407   27.0849 N   0  0  0  0  0  0  0  0  0  0  0  0
    7.4810    0.5970   19.8241 N   0  0  0  0  0  0  0  0  0  0  0  0
    9.7353   -4.7756   29.1132 O   0  0  0  0  0  0  0  0  0  0  0  0
    7.7203    0.7400   17.2484 O   0  0  0  0  0  0  0  0  0  0  0  0
    6.8895   -1.4054   18.2921 O   0  0  0  0  0  0  0  0  0  0  0  0
   13.9914   -0.9370   22.1761 F   0  0  0  0  0  0  0  0  0  0  0  0
    6.9674    0.0424   18.2732 S   0  0  0  0  0  0  0  0  0  0  0  0
   12.9887   -2.8007   23.7031 H   0  0  0  0  0  0  0  0  0  0  0  0
   12.1226    0.4792   21.0768 H   0  0  0  0  0  0  0  0  0  0  0  0
    7.8727   -3.4553   24.3510 H   0  0  0  0  0  0  0  0  0  0  0  0
    9.4261    1.3972   21.4726 H   0  0  0  0  0  0  0  0  0  0  0  0
   11.1899   -5.1302   24.5521 H   0  0  0  0  0  0  0  0  0  0  0  0
    8.3337   -1.1853   20.2135 H   0  0  0  0  0  0  0  0  0  0  0  0
   10.6950   -5.2766   26.9117 H   0  0  0  0  0  0  0  0  0  0  0  0
    7.3509   -3.1295   28.9432 H   0  0  0  0  0  0  0  0  0  0  0  0
    8.5215   -1.8611   28.4879 H   0  0  0  0  0  0  0  0  0  0  0  0
    8.6133   -2.6418   30.0895 H   0  0  0  0  0  0  0  0  0  0  0  0
    4.8584    0.3790   17.2704 H   0  0  0  0  0  0  0  0  0  0  0  0
    4.7493    0.2335   19.0543 H   0  0  0  0  0  0  0  0  0  0  0  0
    5.3444    1.7543   18.3135 H   0  0  0  0  0  0  0  0  0  0  0  0
    7.8470   -1.5160   22.7856 H   0  0  0  0  0  0  0  0  0  0  0  0
    9.1101   -2.8272   26.6427 H   0  0  0  0  0  0  0  0  0  0  0  0
    7.4714    1.6371   19.9818 H   0  0  0  0  0  0  0  0  0  0  0  0
  1  4  1  0  0  0  0
  1  8  2  0  0  0  0
  2  5  2  0  0  0  0
  2  8  1  0  0  0  0
  3  6  2  0  0  0  0
  3 16  1  0  0  0  0
  4  6  1  0  0  0  0
  4  7  2  0  0  0  0
  5  7  1  0  0  0  0
  5  9  1  0  0  0  0
  6 10  1  0  0  0  0
  7 16  1  0  0  0  0
  8 22  1  0  0  0  0
  9 11  2  3  0  0  0
 10 12  2  3  0  0  0
 11 18  1  0  0  0  0
 12 17  1  0  0  0  0
 13 14  1  0  0  0  0
 13 17  1  0  0  0  0
 13 19  2  0  0  0  0
 15 23  1  0  0  0  0
 18 23  1  0  0  0  0
 20 23  2  0  0  0  0
 21 23  2  0  0  0  0
  1 24  1  0  0  0  0
  2 25  1  0  0  0  0
  3 26  1  0  0  0  0
  9 27  1  0  0  0  0
 10 28  1  0  0  0  0
 11 29  1  0  0  0  0
 12 30  1  0  0  0  0
 14 31  1  0  0  0  0
 14 32  1  0  0  0  0
 14 33  1  0  0  0  0
 15 34  1  0  0  0  0
 15 35  1  0  0  0  0
 15 36  1  0  0  0  0
 16 37  1  0  0  0  0
 17 38  1  0  0  0  0
 18 39  1  0  0  0  0
M  END
> <Chemgauss4 Score>
-6.28397941589355

> <Number of Confs>
200

$$$$
TRY-UNI-714-15
  -OEChem-03242005443D

 36 37  0     1  0  0  0  0  0999 V2000
   10.9694    0.2651   23.8993 C   0  0  0  0  0  0  0  0  0  0  0  0
    9.8174   -0.4706   23.6216 C   0  0  0  0  0  0  0  0  0  0  0  0
   12.1963   -0.1334   23.3684 C   0  0  0  0  0  0  0  0  0  0  0  0
   11.1190   -2.0034   22.2825 C   0  0  0  0  0  0  0  0  0  0  0  0
    7.7103   -5.3242   28.2321 C   0  0  0  0  0  0  0  0  0  0  0  0
    8.0216   -5.1729   25.9609 C   0  0  0  0  0  0  0  0  0  0  0  0
    9.8921   -1.6049   22.8133 C   0  0  0  0  0  0  0  0  0  0  0  0
    7.9810   -3.1749   27.2503 C   0  0  0  0  0  0  0  0  0  0  0  0
    7.7796   -3.9491   28.3875 C   0  0  0  0  0  0  0  0  0  0  0  0
    8.1053   -3.7907   26.0099 C   0  0  0  0  0  0  0  0  0  0  0  0
   12.2710   -1.2676   22.5601 C   0  0  0  0  0  0  0  0  0  0  0  0
    8.4487   -3.5402   23.5266 C   0  0  0  0  0  0  0  0  0  0  0  0
    8.0634   -1.6847   27.3603 C   0  0  0  0  0  0  0  0  0  0  0  0
    7.4072   -1.4973   22.4529 C   0  0  0  0  0  0  0  0  0  0  0  0
    8.6601   -2.3917   22.5179 C   0  0  1  0  0  0  0  0  0  0  0  0
    7.8265   -5.9583   27.0438 N   0  0  0  0  0  0  0  0  0  0  0  0
    7.6482   -3.3729   29.6637 N   0  0  0  0  0  0  0  0  0  0  0  0
    8.3122   -3.0490   24.8227 N   0  0  0  0  0  0  0  0  0  0  0  0
    8.3924   -4.7136   23.1699 O   0  0  0  0  0  0  0  0  0  0  0  0
   13.7852   -1.7594   21.9064 Cl  0  0  0  0  0  0  0  0  0  0  0  0
   10.9108    1.1483   24.5289 H   0  0  0  0  0  0  0  0  0  0  0  0
    8.8657   -0.1528   24.0396 H   0  0  0  0  0  0  0  0  0  0  0  0
   13.0860    0.4496   23.5935 H   0  0  0  0  0  0  0  0  0  0  0  0
   11.1719   -2.8882   21.6523 H   0  0  0  0  0  0  0  0  0  0  0  0
    7.5545   -5.9815   29.0824 H   0  0  0  0  0  0  0  0  0  0  0  0
    8.1115   -5.7115   25.0222 H   0  0  0  0  0  0  0  0  0  0  0  0
    9.1013   -1.3757   27.5232 H   0  0  0  0  0  0  0  0  0  0  0  0
    7.6910   -1.2019   26.4498 H   0  0  0  0  0  0  0  0  0  0  0  0
    7.4519   -1.3174   28.1924 H   0  0  0  0  0  0  0  0  0  0  0  0
    7.2422   -0.9689   23.3986 H   0  0  0  0  0  0  0  0  0  0  0  0
    7.4900   -0.7391   21.6661 H   0  0  0  0  0  0  0  0  0  0  0  0
    6.5169   -2.1003   22.2424 H   0  0  0  0  0  0  0  0  0  0  0  0
    8.7345   -2.8746   21.5232 H   0  0  0  0  0  0  0  0  0  0  0  0
    7.4572   -3.9614   30.4518 H   0  0  0  0  0  0  0  0  0  0  0  0
    7.6531   -2.3752   29.7556 H   0  0  0  0  0  0  0  0  0  0  0  0
    8.3616   -2.0399   24.9457 H   0  0  0  0  0  0  0  0  0  0  0  0
  1  2  2  0  0  0  0
  1  3  1  0  0  0  0
  2  7  1  0  0  0  0
  3 11  2  0  0  0  0
  4  7  2  0  0  0  0
  4 11  1  0  0  0  0
  5  9  2  0  0  0  0
  5 16  1  0  0  0  0
  6 10  1  0  0  0  0
  6 16  2  0  0  0  0
  7 15  1  0  0  0  0
  8  9  1  0  0  0  0
  8 10  2  0  0  0  0
  8 13  1  0  0  0  0
  9 17  1  0  0  0  0
 10 18  1  0  0  0  0
 11 20  1  0  0  0  0
 12 15  1  0  0  0  0
 12 18  1  0  0  0  0
 12 19  2  0  0  0  0
 14 15  1  1  0  0  0
  1 21  1  0  0  0  0
  2 22  1  0  0  0  0
  3 23  1  0  0  0  0
  4 24  1  0  0  0  0
  5 25  1  0  0  0  0
  6 26  1  0  0  0  0
 13 27  1  0  0  0  0
 13 28  1  0  0  0  0
 13 29  1  0  0  0  0
 14 30  1  0  0  0  0
 14 31  1  0  0  0  0
 14 32  1  0  0  0  0
 15 33  1  0  0  0  0
 17 34  1  0  0  0  0
 17 35  1  0  0  0  0
 18 36  1  0  0  0  0
M  END
> <Chemgauss4 Score>
-6.28331899642944

> <Number of Confs>
42

$$$$
DAR-DIA-fc9-13
  -OEChem-03242005443D

 37 39  0     1  0  0  0  0  0999 V2000
    7.0416   -3.5464   28.4692 C   0  0  0  0  0  0  0  0  0  0  0  0
    7.7907   -4.6456   28.0496 C   0  0  0  0  0  0  0  0  0  0  0  0
    6.4940   -2.6751   27.5276 C   0  0  0  0  0  0  0  0  0  0  0  0
   13.0986   -0.7397   22.8351 C   0  0  0  0  0  0  0  0  0  0  0  0
    7.9923   -4.8735   26.6883 C   0  0  0  0  0  0  0  0  0  0  0  0
    6.6956   -2.9029   26.1664 C   0  0  0  0  0  0  0  0  0  0  0  0
   12.1585   -1.7504   22.6684 C   0  0  0  0  0  0  0  0  0  0  0  0
   12.8227    0.2571   23.7570 C   0  0  0  0  0  0  0  0  0  0  0  0
   10.8062   -0.6925   24.3141 C   0  0  0  0  0  0  0  0  0  0  0  0
    7.4447   -4.0021   25.7466 C   0  0  0  0  0  0  0  0  0  0  0  0
   10.9876   -1.7337   23.4181 C   0  0  0  0  0  0  0  0  0  0  0  0
   10.0337   -3.9396   24.0548 C   0  0  0  0  0  0  0  0  0  0  0  0
    8.8593   -4.8917   23.8935 C   0  0  0  0  0  0  0  0  0  0  0  0
    7.5511   -2.2759   22.8764 C   0  0  0  0  0  0  0  0  0  0  0  0
    8.9271   -2.5492   22.2632 C   0  0  0  0  0  0  0  0  0  0  0  0
    6.8517   -3.5467   23.3611 C   0  0  0  0  0  0  0  0  0  0  0  0
   11.6967    0.3070   24.5035 N   0  0  0  0  0  0  0  0  0  0  0  0
    9.9913   -2.7700   23.2673 N   0  0  0  0  0  0  0  0  0  0  0  0
    7.6463   -4.2300   24.3836 N   0  0  3  0  0  0  0  0  0  0  0  0
   10.8914   -4.2149   24.8971 O   0  0  0  0  0  0  0  0  0  0  0  0
    6.8849   -3.3689   29.5293 H   0  0  0  0  0  0  0  0  0  0  0  0
    8.2170   -5.3237   28.7826 H   0  0  0  0  0  0  0  0  0  0  0  0
    5.9106   -1.8191   27.8547 H   0  0  0  0  0  0  0  0  0  0  0  0
   14.0184   -0.7325   22.2614 H   0  0  0  0  0  0  0  0  0  0  0  0
    8.5777   -5.7328   26.3716 H   0  0  0  0  0  0  0  0  0  0  0  0
    6.2638   -2.2172   25.4417 H   0  0  0  0  0  0  0  0  0  0  0  0
   12.3481   -2.5456   21.9522 H   0  0  0  0  0  0  0  0  0  0  0  0
   13.5235    1.0685   23.9235 H   0  0  0  0  0  0  0  0  0  0  0  0
    9.9127   -0.6249   24.9277 H   0  0  0  0  0  0  0  0  0  0  0  0
    8.7433   -5.1240   22.8277 H   0  0  0  0  0  0  0  0  0  0  0  0
    9.0572   -5.8423   24.3991 H   0  0  0  0  0  0  0  0  0  0  0  0
    7.6865   -1.6175   23.7436 H   0  0  0  0  0  0  0  0  0  0  0  0
    6.9180   -1.7253   22.1700 H   0  0  0  0  0  0  0  0  0  0  0  0
    8.8595   -3.4512   21.6415 H   0  0  0  0  0  0  0  0  0  0  0  0
    9.2327   -1.7338   21.5980 H   0  0  0  0  0  0  0  0  0  0  0  0
    5.8630   -3.2980   23.7665 H   0  0  0  0  0  0  0  0  0  0  0  0
    6.6735   -4.2170   22.5109 H   0  0  0  0  0  0  0  0  0  0  0  0
  1  2  1  0  0  0  0
  1  3  2  0  0  0  0
  2  5  2  0  0  0  0
  3  6  1  0  0  0  0
  4  7  2  0  0  0  0
  4  8  1  0  0  0  0
  5 10  1  0  0  0  0
  6 10  2  0  0  0  0
  7 11  1  0  0  0  0
  8 17  2  0  0  0  0
  9 11  2  0  0  0  0
  9 17  1  0  0  0  0
 10 19  1  6  0  0  0
 11 18  1  0  0  0  0
 12 13  1  0  0  0  0
 12 18  1  0  0  0  0
 12 20  2  0  0  0  0
 13 19  1  0  0  0  0
 14 15  1  0  0  0  0
 14 16  1  0  0  0  0
 15 18  1  0  0  0  0
 16 19  1  0  0  0  0
  1 21  1  0  0  0  0
  2 22  1  0  0  0  0
  3 23  1  0  0  0  0
  4 24  1  0  0  0  0
  5 25  1  0  0  0  0
  6 26  1  0  0  0  0
  7 27  1  0  0  0  0
  8 28  1  0  0  0  0
  9 29  1  0  0  0  0
 13 30  1  0  0  0  0
 13 31  1  0  0  0  0
 14 32  1  0  0  0  0
 14 33  1  0  0  0  0
 15 34  1  0  0  0  0
 15 35  1  0  0  0  0
 16 36  1  0  0  0  0
 16 37  1  0  0  0  0
M  END
> <Chemgauss4 Score>
-6.22195196151733

> <Number of Confs>
52

$$$$
DAR-DIA-fc9-11
  -OEChem-03242005443D

 37 39  0     1  0  0  0  0  0999 V2000
    7.0416   -3.5464   28.4692 C   0  0  0  0  0  0  0  0  0  0  0  0
    7.7907   -4.6456   28.0496 C   0  0  0  0  0  0  0  0  0  0  0  0
    6.4940   -2.6751   27.5276 C   0  0  0  0  0  0  0  0  0  0  0  0
   13.0986   -0.7397   22.8351 C   0  0  0  0  0  0  0  0  0  0  0  0
    7.9923   -4.8735   26.6883 C   0  0  0  0  0  0  0  0  0  0  0  0
    6.6956   -2.9029   26.1664 C   0  0  0  0  0  0  0  0  0  0  0  0
   12.1585   -1.7504   22.6684 C   0  0  0  0  0  0  0  0  0  0  0  0
   12.8227    0.2571   23.7570 C   0  0  0  0  0  0  0  0  0  0  0  0
   10.8062   -0.6925   24.3141 C   0  0  0  0  0  0  0  0  0  0  0  0
    7.4447   -4.0021   25.7466 C   0  0  0  0  0  0  0  0  0  0  0  0
   10.9876   -1.7337   23.4181 C   0  0  0  0  0  0  0  0  0  0  0  0
   10.0337   -3.9396   24.0548 C   0  0  0  0  0  0  0  0  0  0  0  0
    8.8593   -4.8917   23.8935 C   0  0  0  0  0  0  0  0  0  0  0  0
    7.5511   -2.2759   22.8764 C   0  0  0  0  0  0  0  0  0  0  0  0
    8.9271   -2.5492   22.2632 C   0  0  0  0  0  0  0  0  0  0  0  0
    6.8517   -3.5467   23.3611 C   0  0  0  0  0  0  0  0  0  0  0  0
   11.6967    0.3070   24.5035 N   0  0  0  0  0  0  0  0  0  0  0  0
    9.9913   -2.7700   23.2673 N   0  0  0  0  0  0  0  0  0  0  0  0
    7.6463   -4.2300   24.3836 N   0  0  3  0  0  0  0  0  0  0  0  0
   10.8914   -4.2149   24.8971 O   0  0  0  0  0  0  0  0  0  0  0  0
    6.8849   -3.3689   29.5293 H   0  0  0  0  0  0  0  0  0  0  0  0
    8.2170   -5.3237   28.7826 H   0  0  0  0  0  0  0  0  0  0  0  0
    5.9106   -1.8191   27.8547 H   0  0  0  0  0  0  0  0  0  0  0  0
   14.0184   -0.7325   22.2614 H   0  0  0  0  0  0  0  0  0  0  0  0
    8.5777   -5.7328   26.3716 H   0  0  0  0  0  0  0  0  0  0  0  0
    6.2638   -2.2172   25.4417 H   0  0  0  0  0  0  0  0  0  0  0  0
   12.3481   -2.5456   21.9522 H   0  0  0  0  0  0  0  0  0  0  0  0
   13.5235    1.0685   23.9235 H   0  0  0  0  0  0  0  0  0  0  0  0
    9.9127   -0.6249   24.9277 H   0  0  0  0  0  0  0  0  0  0  0  0
    8.7433   -5.1240   22.8277 H   0  0  0  0  0  0  0  0  0  0  0  0
    9.0572   -5.8423   24.3991 H   0  0  0  0  0  0  0  0  0  0  0  0
    7.6865   -1.6175   23.7436 H   0  0  0  0  0  0  0  0  0  0  0  0
    6.9180   -1.7253   22.1700 H   0  0  0  0  0  0  0  0  0  0  0  0
    8.8595   -3.4512   21.6415 H   0  0  0  0  0  0  0  0  0  0  0  0
    9.2327   -1.7338   21.5980 H   0  0  0  0  0  0  0  0  0  0  0  0
    5.8630   -3.2980   23.7665 H   0  0  0  0  0  0  0  0  0  0  0  0
    6.6735   -4.2170   22.5109 H   0  0  0  0  0  0  0  0  0  0  0  0
  1  2  1  0  0  0  0
  1  3  2  0  0  0  0
  2  5  2  0  0  0  0
  3  6  1  0  0  0  0
  4  7  2  0  0  0  0
  4  8  1  0  0  0  0
  5 10  1  0  0  0  0
  6 10  2  0  0  0  0
  7 11  1  0  0  0  0
  8 17  2  0  0  0  0
  9 11  2  0  0  0  0
  9 17  1  0  0  0  0
 10 19  1  6  0  0  0
 11 18  1  0  0  0  0
 12 13  1  0  0  0  0
 12 18  1  0  0  0  0
 12 20  2  0  0  0  0
 13 19  1  0  0  0  0
 14 15  1  0  0  0  0
 14 16  1  0  0  0  0
 15 18  1  0  0  0  0
 16 19  1  0  0  0  0
  1 21  1  0  0  0  0
  2 22  1  0  0  0  0
  3 23  1  0  0  0  0
  4 24  1  0  0  0  0
  5 25  1  0  0  0  0
  6 26  1  0  0  0  0
  7 27  1  0  0  0  0
  8 28  1  0  0  0  0
  9 29  1  0  0  0  0
 13 30  1  0  0  0  0
 13 31  1  0  0  0  0
 14 32  1  0  0  0  0
 14 33  1  0  0  0  0
 15 34  1  0  0  0  0
 15 35  1  0  0  0  0
 16 36  1  0  0  0  0
 16 37  1  0  0  0  0
M  END
> <Chemgauss4 Score>
-6.22195196151733

> <Number of Confs>
52

$$$$
CHR-SOS-f73-6
  -OEChem-03242005443D

 40 42  0     0  0  0  0  0  0999 V2000
    7.6154   -4.5368   29.0023 C   0  0  0  0  0  0  0  0  0  0  0  0
    8.3654   -3.6191   28.2753 C   0  0  0  0  0  0  0  0  0  0  0  0
    7.3835   -5.7794   28.4348 C   0  0  0  0  0  0  0  0  0  0  0  0
    8.5666   -5.2352   26.5421 C   0  0  0  0  0  0  0  0  0  0  0  0
    7.9883   -1.0551   24.2616 C   0  0  0  0  0  0  0  0  0  0  0  0
    8.8537   -3.9670   27.0208 C   0  0  0  0  0  0  0  0  0  0  0  0
    8.9386   -1.8760   23.6915 C   0  0  0  0  0  0  0  0  0  0  0  0
    6.7029   -2.7676   23.7873 C   0  0  0  0  0  0  0  0  0  0  0  0
   10.6208   -3.3494   25.3362 C   0  0  0  0  0  0  0  0  0  0  0  0
   12.2848   -1.6396   21.8642 C   0  0  0  0  0  0  0  0  0  0  0  0
   12.1438   -0.2290   22.4242 C   0  0  0  0  0  0  0  0  0  0  0  0
   10.9974   -2.3719   22.2326 C   0  0  0  0  0  0  0  0  0  0  0  0
   10.7769   -0.1775   23.1010 C   0  0  0  0  0  0  0  0  0  0  0  0
   10.4317   -1.6380   23.4691 C   0  0  0  0  0  0  0  0  0  0  0  0
    5.5051   -3.6280   23.6701 C   0  0  0  0  0  0  0  0  0  0  0  0
   11.1797   -2.0688   24.7474 C   0  0  0  0  0  0  0  0  0  0  0  0
    7.8415   -6.1536   27.2191 N   0  0  0  0  0  0  0  0  0  0  0  0
    6.7056   -1.5645   24.3170 N   0  0  0  0  0  0  0  0  0  0  0  0
    9.6197   -3.0543   26.2573 N   0  0  0  0  0  0  0  0  0  0  0  0
   11.0304   -4.4586   25.0099 O   0  0  0  0  0  0  0  0  0  0  0  0
    8.2082   -3.3489   23.2032 S   0  0  0  0  0  0  0  0  0  0  0  0
    7.2247   -4.2873   29.9822 H   0  0  0  0  0  0  0  0  0  0  0  0
    8.5632   -2.6364   28.6954 H   0  0  0  0  0  0  0  0  0  0  0  0
    6.8035   -6.5303   28.9611 H   0  0  0  0  0  0  0  0  0  0  0  0
    8.9203   -5.5650   25.5698 H   0  0  0  0  0  0  0  0  0  0  0  0
    8.1767   -0.0655   24.6566 H   0  0  0  0  0  0  0  0  0  0  0  0
   12.4412   -1.6338   20.7806 H   0  0  0  0  0  0  0  0  0  0  0  0
   13.1510   -2.1373   22.3152 H   0  0  0  0  0  0  0  0  0  0  0  0
   12.9398   -0.0350   23.1520 H   0  0  0  0  0  0  0  0  0  0  0  0
   12.2269    0.5309   21.6406 H   0  0  0  0  0  0  0  0  0  0  0  0
   10.2968   -2.3077   21.3888 H   0  0  0  0  0  0  0  0  0  0  0  0
   11.1763   -3.4368   22.4186 H   0  0  0  0  0  0  0  0  0  0  0  0
   10.7800    0.4890   23.9708 H   0  0  0  0  0  0  0  0  0  0  0  0
   10.0421    0.2262   22.3910 H   0  0  0  0  0  0  0  0  0  0  0  0
    4.9844   -3.4505   22.7162 H   0  0  0  0  0  0  0  0  0  0  0  0
    5.7622   -4.6986   23.7206 H   0  0  0  0  0  0  0  0  0  0  0  0
    4.7872   -3.4454   24.4863 H   0  0  0  0  0  0  0  0  0  0  0  0
   11.0997   -1.2706   25.4877 H   0  0  0  0  0  0  0  0  0  0  0  0
   12.2338   -2.2172   24.5053 H   0  0  0  0  0  0  0  0  0  0  0  0
    9.4030   -2.0714   26.4087 H   0  0  0  0  0  0  0  0  0  0  0  0
  1  2  2  0  0  0  0
  1  3  1  0  0  0  0
  2  6  1  0  0  0  0
  3 17  2  0  0  0  0
  4  6  2  0  0  0  0
  4 17  1  0  0  0  0
  5  7  2  0  0  0  0
  5 18  1  0  0  0  0
  6 19  1  0  0  0  0
  7 14  1  0  0  0  0
  7 21  1  0  0  0  0
  8 15  1  0  0  0  0
  8 18  2  0  0  0  0
  8 21  1  0  0  0  0
  9 16  1  0  0  0  0
  9 19  1  0  0  0  0
  9 20  2  0  0  0  0
 10 11  1  0  0  0  0
 10 12  1  0  0  0  0
 11 13  1  0  0  0  0
 12 14  1  0  0  0  0
 13 14  1  0  0  0  0
 14 16  1  0  0  0  0
  1 22  1  0  0  0  0
  2 23  1  0  0  0  0
  3 24  1  0  0  0  0
  4 25  1  0  0  0  0
  5 26  1  0  0  0  0
 10 27  1  0  0  0  0
 10 28  1  0  0  0  0
 11 29  1  0  0  0  0
 11 30  1  0  0  0  0
 12 31  1  0  0  0  0
 12 32  1  0  0  0  0
 13 33  1  0  0  0  0
 13 34  1  0  0  0  0
 15 35  1  0  0  0  0
 15 36  1  0  0  0  0
 15 37  1  0  0  0  0
 16 38  1  0  0  0  0
 16 39  1  0  0  0  0
 19 40  1  0  0  0  0
M  END
> <Chemgauss4 Score>
-6.19667053222656

> <Number of Confs>
200

$$$$
DAR-DIA-fc9-12
  -OEChem-03242005443D

 33 35  0     1  0  0  0  0  0999 V2000
   13.6863   -0.3987   22.5768 C   0  0  0  0  0  0  0  0  0  0  0  0
   13.1360   -1.5427   21.9988 C   0  0  0  0  0  0  0  0  0  0  0  0
   12.9195    0.3847   23.4393 C   0  0  0  0  0  0  0  0  0  0  0  0
    8.2262   -5.7046   27.2298 C   0  0  0  0  0  0  0  0  0  0  0  0
   11.8190   -1.9033   22.2833 C   0  0  0  0  0  0  0  0  0  0  0  0
   11.6024    0.0242   23.7238 C   0  0  0  0  0  0  0  0  0  0  0  0
    8.4635   -4.7204   26.2767 C   0  0  0  0  0  0  0  0  0  0  0  0
    8.1703   -5.3195   28.5596 C   0  0  0  0  0  0  0  0  0  0  0  0
    8.5606   -3.1180   28.0314 C   0  0  0  0  0  0  0  0  0  0  0  0
   11.0521   -1.1198   23.1458 C   0  0  0  0  0  0  0  0  0  0  0  0
    8.6351   -3.3999   26.6768 C   0  0  0  0  0  0  0  0  0  0  0  0
    8.2862   -0.0759   24.9654 C   0  0  0  0  0  0  0  0  0  0  0  0
    8.7662   -0.3217   23.7465 C   0  0  0  0  0  0  0  0  0  0  0  0
    9.5593   -2.6310   24.5073 C   0  0  0  0  0  0  0  0  0  0  0  0
    8.5600   -0.9744   26.1172 C   0  0  0  0  0  0  0  0  0  0  0  0
    9.6177   -1.5118   23.4559 C   0  0  2  0  0  0  0  0  0  0  0  0
    8.3319   -4.0470   28.9865 N   0  0  0  0  0  0  0  0  0  0  0  0
    8.8838   -2.3527   25.7082 N   0  0  0  0  0  0  0  0  0  0  0  0
   10.1249   -3.6984   24.2458 O   0  0  0  0  0  0  0  0  0  0  0  0
   14.7123   -0.1188   22.3562 H   0  0  0  0  0  0  0  0  0  0  0  0
   13.7333   -2.1534   21.3280 H   0  0  0  0  0  0  0  0  0  0  0  0
   13.3479    1.2749   23.8904 H   0  0  0  0  0  0  0  0  0  0  0  0
    8.0894   -6.7404   26.9407 H   0  0  0  0  0  0  0  0  0  0  0  0
   11.3985   -2.7962   21.8282 H   0  0  0  0  0  0  0  0  0  0  0  0
   11.0124    0.6406   24.3969 H   0  0  0  0  0  0  0  0  0  0  0  0
    8.5126   -4.9932   25.2258 H   0  0  0  0  0  0  0  0  0  0  0  0
    7.9886   -6.0495   29.3415 H   0  0  0  0  0  0  0  0  0  0  0  0
    8.6861   -2.1061   28.4051 H   0  0  0  0  0  0  0  0  0  0  0  0
    7.6879    0.8135   25.1374 H   0  0  0  0  0  0  0  0  0  0  0  0
    8.5430    0.3673   22.9367 H   0  0  0  0  0  0  0  0  0  0  0  0
    9.3947   -0.5838   26.7102 H   0  0  0  0  0  0  0  0  0  0  0  0
    7.6687   -1.0163   26.7546 H   0  0  0  0  0  0  0  0  0  0  0  0
    9.2089   -1.9707   22.5265 H   0  0  0  0  0  0  0  0  0  0  0  0
  1  2  1  0  0  0  0
  1  3  2  0  0  0  0
  2  5  2  0  0  0  0
  3  6  1  0  0  0  0
  4  7  2  0  0  0  0
  4  8  1  0  0  0  0
  5 10  1  0  0  0  0
  6 10  2  0  0  0  0
  7 11  1  0  0  0  0
  8 17  2  0  0  0  0
  9 11  2  0  0  0  0
  9 17  1  0  0  0  0
 10 16  1  6  0  0  0
 11 18  1  0  0  0  0
 12 13  2  0  0  0  0
 12 15  1  0  0  0  0
 13 16  1  0  0  0  0
 14 16  1  0  0  0  0
 14 18  1  0  0  0  0
 14 19  2  0  0  0  0
 15 18  1  0  0  0  0
  1 20  1  0  0  0  0
  2 21  1  0  0  0  0
  3 22  1  0  0  0  0
  4 23  1  0  0  0  0
  5 24  1  0  0  0  0
  6 25  1  0  0  0  0
  7 26  1  0  0  0  0
  8 27  1  0  0  0  0
  9 28  1  0  0  0  0
 12 29  1  0  0  0  0
 13 30  1  0  0  0  0
 15 31  1  0  0  0  0
 15 32  1  0  0  0  0
 16 33  1  0  0  0  0
M  END
> <Chemgauss4 Score>
-6.18818950653076

> <Number of Confs>
8

$$$$
CHR-SOS-e96-6
  -OEChem-03242005443D

 46 48  0     0  0  0  0  0  0999 V2000
    7.0786   -0.9864   24.3694 C   0  0  0  0  0  0  0  0  0  0  0  0
    8.4638   -0.8494   24.2800 C   0  0  0  0  0  0  0  0  0  0  0  0
    6.4460   -2.0786   23.7756 C   0  0  0  0  0  0  0  0  0  0  0  0
    7.4704   -4.4731   28.7716 C   0  0  0  0  0  0  0  0  0  0  0  0
    8.5838   -2.8968   23.0028 C   0  0  0  0  0  0  0  0  0  0  0  0
    7.2228   -5.6905   28.1582 C   0  0  0  0  0  0  0  0  0  0  0  0
    8.5618   -5.1621   26.3677 C   0  0  0  0  0  0  0  0  0  0  0  0
    9.2164   -1.8046   23.5967 C   0  0  0  0  0  0  0  0  0  0  0  0
    8.3118   -3.5765   28.1225 C   0  0  0  0  0  0  0  0  0  0  0  0
    8.8720   -3.9198   26.8971 C   0  0  0  0  0  0  0  0  0  0  0  0
    7.1986   -3.0338   23.0923 C   0  0  0  0  0  0  0  0  0  0  0  0
   10.7772   -3.3817   25.3406 C   0  0  0  0  0  0  0  0  0  0  0  0
   12.4251   -1.0083   22.1968 C   0  0  0  0  0  0  0  0  0  0  0  0
   11.5000   -2.2376   22.2171 C   0  0  0  0  0  0  0  0  0  0  0  0
   11.3556   -0.2594   23.0110 C   0  0  0  0  0  0  0  0  0  0  0  0
   10.8077   -1.6466   23.4934 C   0  0  0  0  0  0  0  0  0  0  0  0
    8.5955   -2.2564   28.7609 C   0  0  0  0  0  0  0  0  0  0  0  0
   11.4415   -2.1274   24.8066 C   0  0  0  0  0  0  0  0  0  0  0  0
    7.7487   -6.0595   26.9687 N   0  0  0  0  0  0  0  0  0  0  0  0
    6.4400   -5.5312   23.6329 N   0  0  0  0  0  0  0  0  0  0  0  0
    9.7343   -3.0422   26.1978 N   0  0  0  0  0  0  0  0  0  0  0  0
   11.1480   -4.5080   25.0270 O   0  0  0  0  0  0  0  0  0  0  0  0
    5.0231   -4.0404   22.0786 O   0  0  0  0  0  0  0  0  0  0  0  0
    7.2513   -4.8958   21.2717 O   0  0  0  0  0  0  0  0  0  0  0  0
    6.4072   -4.4020   22.3509 S   0  0  0  0  0  0  0  0  0  0  0  0
    6.4926   -0.2430   24.9021 H   0  0  0  0  0  0  0  0  0  0  0  0
    8.9495    0.0043   24.7448 H   0  0  0  0  0  0  0  0  0  0  0  0
    5.3662   -2.1757   23.8516 H   0  0  0  0  0  0  0  0  0  0  0  0
    7.0173   -4.2357   29.7282 H   0  0  0  0  0  0  0  0  0  0  0  0
    9.1737   -3.6395   22.4716 H   0  0  0  0  0  0  0  0  0  0  0  0
    6.5733   -6.4248   28.6233 H   0  0  0  0  0  0  0  0  0  0  0  0
    8.9684   -5.4878   25.4148 H   0  0  0  0  0  0  0  0  0  0  0  0
   13.3699   -1.1541   22.7320 H   0  0  0  0  0  0  0  0  0  0  0  0
   12.6413   -0.5958   21.2079 H   0  0  0  0  0  0  0  0  0  0  0  0
   10.8452   -2.3002   21.3389 H   0  0  0  0  0  0  0  0  0  0  0  0
   12.0045   -3.2003   22.3407 H   0  0  0  0  0  0  0  0  0  0  0  0
   11.7412    0.4069   23.7882 H   0  0  0  0  0  0  0  0  0  0  0  0
   10.6551    0.3075   22.3854 H   0  0  0  0  0  0  0  0  0  0  0  0
    9.4771   -2.3292   29.4082 H   0  0  0  0  0  0  0  0  0  0  0  0
    8.7792   -1.4822   28.0057 H   0  0  0  0  0  0  0  0  0  0  0  0
    7.7449   -1.9175   29.3652 H   0  0  0  0  0  0  0  0  0  0  0  0
   11.3550   -1.3334   25.5511 H   0  0  0  0  0  0  0  0  0  0  0  0
   12.5003   -2.3304   24.6336 H   0  0  0  0  0  0  0  0  0  0  0  0
    5.5541   -5.7506   24.1046 H   0  0  0  0  0  0  0  0  0  0  0  0
    7.0774   -6.3328   23.5530 H   0  0  0  0  0  0  0  0  0  0  0  0
    9.5605   -2.0506   26.3480 H   0  0  0  0  0  0  0  0  0  0  0  0
  1  2  2  0  0  0  0
  1  3  1  0  0  0  0
  2  8  1  0  0  0  0
  3 11  2  0  0  0  0
  4  6  2  0  0  0  0
  4  9  1  0  0  0  0
  5  8  2  0  0  0  0
  5 11  1  0  0  0  0
  6 19  1  0  0  0  0
  7 10  1  0  0  0  0
  7 19  2  0  0  0  0
  8 16  1  0  0  0  0
  9 10  2  0  0  0  0
  9 17  1  0  0  0  0
 10 21  1  0  0  0  0
 11 25  1  0  0  0  0
 12 18  1  0  0  0  0
 12 21  1  0  0  0  0
 12 22  2  0  0  0  0
 13 14  1  0  0  0  0
 13 15  1  0  0  0  0
 14 16  1  0  0  0  0
 15 16  1  0  0  0  0
 16 18  1  0  0  0  0
 20 25  1  0  0  0  0
 23 25  2  0  0  0  0
 24 25  2  0  0  0  0
  1 26  1  0  0  0  0
  2 27  1  0  0  0  0
  3 28  1  0  0  0  0
  4 29  1  0  0  0  0
  5 30  1  0  0  0  0
  6 31  1  0  0  0  0
  7 32  1  0  0  0  0
 13 33  1  0  0  0  0
 13 34  1  0  0  0  0
 14 35  1  0  0  0  0
 14 36  1  0  0  0  0
 15 37  1  0  0  0  0
 15 38  1  0  0  0  0
 17 39  1  0  0  0  0
 17 40  1  0  0  0  0
 17 41  1  0  0  0  0
 18 42  1  0  0  0  0
 18 43  1  0  0  0  0
 20 44  1  0  0  0  0
 20 45  1  0  0  0  0
 21 46  1  0  0  0  0
M  END
> <Chemgauss4 Score>
-6.18654346466064

> <Number of Confs>
200

$$$$
AMD-U.A-3d2-1
  -OEChem-03242005443D

 27 28  0     0  0  0  0  0  0999 V2000
   11.9083    0.2989   24.0616 C   0  0  0  0  0  0  0  0  0  0  0  0
   12.5422   -0.2135   22.9269 C   0  0  0  0  0  0  0  0  0  0  0  0
    9.5734   -2.1348   26.4898 C   0  0  0  0  0  0  0  0  0  0  0  0
   11.6176   -2.3808   23.4008 C   0  0  0  0  0  0  0  0  0  0  0  0
    9.7718   -0.7927   26.7433 C   0  0  0  0  0  0  0  0  0  0  0  0
   10.9801   -1.8652   24.5421 C   0  0  0  0  0  0  0  0  0  0  0  0
   10.1899   -2.6741   25.3699 C   0  0  0  0  0  0  0  0  0  0  0  0
   11.1231   -0.5042   24.8842 C   0  0  0  0  0  0  0  0  0  0  0  0
   12.3969   -1.5550   22.5958 C   0  0  0  0  0  0  0  0  0  0  0  0
    9.9728   -4.0939   25.1094 C   0  0  0  0  0  0  0  0  0  0  0  0
   13.7950   -1.1514   20.7148 C   0  0  0  0  0  0  0  0  0  0  0  0
   10.5261    0.0220   25.9704 N   0  0  0  0  0  0  0  0  0  0  0  0
   10.2002   -6.3284   25.9491 N   0  0  0  0  0  0  0  0  0  0  0  0
   10.3950   -4.9689   26.1105 N   0  0  0  0  0  0  0  0  0  0  0  0
    9.4264   -4.5060   24.0768 O   0  0  0  0  0  0  0  0  0  0  0  0
   13.0125   -2.0574   21.4919 O   0  0  0  0  0  0  0  0  0  0  0  0
   12.0379    1.3532   24.2997 H   0  0  0  0  0  0  0  0  0  0  0  0
   13.1486    0.4431   22.3089 H   0  0  0  0  0  0  0  0  0  0  0  0
    8.9566   -2.7349   27.1500 H   0  0  0  0  0  0  0  0  0  0  0  0
   11.5174   -3.4280   23.1237 H   0  0  0  0  0  0  0  0  0  0  0  0
    9.3157   -0.3154   27.6044 H   0  0  0  0  0  0  0  0  0  0  0  0
   14.2298   -1.6816   19.8640 H   0  0  0  0  0  0  0  0  0  0  0  0
   14.5871   -0.7267   21.3366 H   0  0  0  0  0  0  0  0  0  0  0  0
   13.1507   -0.3480   20.3499 H   0  0  0  0  0  0  0  0  0  0  0  0
   10.0249   -6.7129   26.8766 H   0  0  0  0  0  0  0  0  0  0  0  0
    9.3308   -6.4416   25.4295 H   0  0  0  0  0  0  0  0  0  0  0  0
   10.8406   -4.6113   26.9487 H   0  0  0  0  0  0  0  0  0  0  0  0
  1  2  2  0  0  0  0
  1  8  1  0  0  0  0
  2  9  1  0  0  0  0
  3  5  1  0  0  0  0
  3  7  2  0  0  0  0
  4  6  1  0  0  0  0
  4  9  2  0  0  0  0
  5 12  2  0  0  0  0
  6  7  1  0  0  0  0
  6  8  2  0  0  0  0
  7 10  1  0  0  0  0
  8 12  1  0  0  0  0
  9 16  1  0  0  0  0
 10 14  1  0  0  0  0
 10 15  2  0  0  0  0
 11 16  1  0  0  0  0
 13 14  1  0  0  0  0
  1 17  1  0  0  0  0
  2 18  1  0  0  0  0
  3 19  1  0  0  0  0
  4 20  1  0  0  0  0
  5 21  1  0  0  0  0
 11 22  1  0  0  0  0
 11 23  1  0  0  0  0
 11 24  1  0  0  0  0
 13 25  1  0  0  0  0
 13 26  1  0  0  0  0
 14 27  1  0  0  0  0
M  END
> <Chemgauss4 Score>
-6.1827974319458

> <Number of Confs>
4

$$$$
SAL-INS-1c7-10
  -OEChem-03242005443D

 40 42  0     1  0  0  0  0  0999 V2000
    8.0137   -3.1963   22.4735 C   0  0  0  0  0  0  0  0  0  0  0  0
    7.2667   -4.2552   21.9575 C   0  0  0  0  0  0  0  0  0  0  0  0
    7.9770   -5.6523   23.7962 C   0  0  0  0  0  0  0  0  0  0  0  0
    9.1823   -3.9498   28.0113 C   0  0  0  0  0  0  0  0  0  0  0  0
    7.0095   -4.3082   28.0945 C   0  0  0  0  0  0  0  0  0  0  0  0
    8.7241   -4.5934   24.3122 C   0  0  0  0  0  0  0  0  0  0  0  0
    8.7425   -3.3654   23.6509 C   0  0  0  0  0  0  0  0  0  0  0  0
    7.2483   -5.4832   22.6189 C   0  0  0  0  0  0  0  0  0  0  0  0
    8.7137   -4.4752   26.8303 C   0  0  0  0  0  0  0  0  0  0  0  0
   11.7088   -2.0692   25.1369 C   0  0  0  0  0  0  0  0  0  0  0  0
   12.6246   -1.1035   25.2613 C   0  0  0  0  0  0  0  0  0  0  0  0
    8.8364   -1.3813   25.0816 C   0  0  0  0  0  0  0  0  0  0  0  0
   11.1579   -0.7799   23.1422 C   0  0  0  0  0  0  0  0  0  0  0  0
   10.9130   -2.1037   23.8645 C   0  0  2  0  0  0  0  0  0  0  0  0
    9.4947   -4.8033   25.5751 C   0  0  0  0  0  0  0  0  0  0  0  0
    7.3541   -1.6721   25.2374 C   0  0  0  0  0  0  0  0  0  0  0  0
    7.3603   -4.6957   26.8884 N   0  0  0  0  0  0  0  0  0  0  0  0
    8.0791   -3.8482   28.8112 N   0  0  0  0  0  0  0  0  0  0  0  0
    9.5109   -2.2542   24.1699 N   0  0  0  0  0  0  0  0  0  0  0  0
    9.3493   -0.4377   25.6887 O   0  0  0  0  0  0  0  0  0  0  0  0
   13.7766   -0.4827   23.0138 O   0  0  0  0  0  0  0  0  0  0  0  0
   12.4136    1.2774   24.2205 O   0  0  0  0  0  0  0  0  0  0  0  0
    6.5304   -6.4998   22.1236 F   0  0  0  0  0  0  0  0  0  0  0  0
   12.6580   -0.1025   23.8532 S   0  0  0  0  0  0  0  0  0  0  0  0
    6.6207   -0.5136   26.3666 Cl  0  0  0  0  0  0  0  0  0  0  0  0
    8.0205   -2.2440   21.9490 H   0  0  0  0  0  0  0  0  0  0  0  0
    6.6994   -4.1240   21.0409 H   0  0  0  0  0  0  0  0  0  0  0  0
    7.9545   -6.6129   24.3042 H   0  0  0  0  0  0  0  0  0  0  0  0
   10.1641   -3.6482   28.3470 H   0  0  0  0  0  0  0  0  0  0  0  0
    6.0105   -4.3341   28.5063 H   0  0  0  0  0  0  0  0  0  0  0  0
   11.5415   -2.7997   25.9193 H   0  0  0  0  0  0  0  0  0  0  0  0
   13.2595   -0.9441   26.1226 H   0  0  0  0  0  0  0  0  0  0  0  0
   11.3547   -0.9566   22.0779 H   0  0  0  0  0  0  0  0  0  0  0  0
   10.3415   -0.0574   23.2383 H   0  0  0  0  0  0  0  0  0  0  0  0
   11.1970   -2.9424   23.2227 H   0  0  0  0  0  0  0  0  0  0  0  0
    9.8533   -5.8448   25.6374 H   0  0  0  0  0  0  0  0  0  0  0  0
   10.4221   -4.2058   25.5631 H   0  0  0  0  0  0  0  0  0  0  0  0
    6.8522   -1.5715   24.2718 H   0  0  0  0  0  0  0  0  0  0  0  0
    7.1893   -2.6669   25.6579 H   0  0  0  0  0  0  0  0  0  0  0  0
    8.0576   -3.4979   29.7596 H   0  0  0  0  0  0  0  0  0  0  0  0
  1  2  2  0  0  0  0
  1  7  1  0  0  0  0
  2  8  1  0  0  0  0
  3  6  1  0  0  0  0
  3  8  2  0  0  0  0
  4  9  2  0  0  0  0
  4 18  1  0  0  0  0
  5 17  2  0  0  0  0
  5 18  1  0  0  0  0
  6  7  2  0  0  0  0
  6 15  1  0  0  0  0
  7 19  1  0  0  0  0
  8 23  1  0  0  0  0
  9 15  1  0  0  0  0
  9 17  1  0  0  0  0
 10 11  2  0  0  0  0
 10 14  1  0  0  0  0
 11 24  1  0  0  0  0
 12 16  1  0  0  0  0
 12 19  1  0  0  0  0
 12 20  2  0  0  0  0
 13 14  1  0  0  0  0
 13 24  1  0  0  0  0
 14 19  1  1  0  0  0
 16 25  1  0  0  0  0
 21 24  2  0  0  0  0
 22 24  2  0  0  0  0
  1 26  1  0  0  0  0
  2 27  1  0  0  0  0
  3 28  1  0  0  0  0
  4 29  1  0  0  0  0
  5 30  1  0  0  0  0
 10 31  1  0  0  0  0
 11 32  1  0  0  0  0
 13 33  1  0  0  0  0
 13 34  1  0  0  0  0
 14 35  1  0  0  0  0
 15 36  1  0  0  0  0
 15 37  1  0  0  0  0
 16 38  1  0  0  0  0
 16 39  1  0  0  0  0
 18 40  1  0  0  0  0
M  END
> <Chemgauss4 Score>
-6.18057584762573

> <Number of Confs>
155

$$$$
CHR-SOS-709-16
  -OEChem-03242005443D

 36 38  0     0  0  0  0  0  0999 V2000
    5.7796   -4.2249   22.7507 C   0  0  0  0  0  0  0  0  0  0  0  0
    6.6207   -3.6037   21.8275 C   0  0  0  0  0  0  0  0  0  0  0  0
    5.8315   -3.8615   24.0964 C   0  0  0  0  0  0  0  0  0  0  0  0
    8.4859   -6.3548   27.6079 C   0  0  0  0  0  0  0  0  0  0  0  0
    8.9764   -5.5180   26.6116 C   0  0  0  0  0  0  0  0  0  0  0  0
    7.5139   -2.6192   22.2501 C   0  0  0  0  0  0  0  0  0  0  0  0
    6.7247   -2.8770   24.5189 C   0  0  0  0  0  0  0  0  0  0  0  0
   10.2357   -0.2704   22.8091 C   0  0  0  0  0  0  0  0  0  0  0  0
   11.5413   -0.3138   22.3202 C   0  0  0  0  0  0  0  0  0  0  0  0
   11.8365   -2.5013   23.3025 C   0  0  0  0  0  0  0  0  0  0  0  0
    8.1605   -5.7874   28.8294 C   0  0  0  0  0  0  0  0  0  0  0  0
    8.7703   -3.6896   28.1185 C   0  0  0  0  0  0  0  0  0  0  0  0
   10.5308   -2.4578   23.7915 C   0  0  0  0  0  0  0  0  0  0  0  0
    9.1244   -4.1586   26.8637 C   0  0  0  0  0  0  0  0  0  0  0  0
    7.5659   -2.2558   23.5958 C   0  0  0  0  0  0  0  0  0  0  0  0
    9.7305   -1.3424   23.5448 C   0  0  0  0  0  0  0  0  0  0  0  0
   12.3417   -1.4292   22.5668 C   0  0  0  0  0  0  0  0  0  0  0  0
   10.0233   -3.5864   24.5593 C   0  0  0  0  0  0  0  0  0  0  0  0
    8.2906   -4.4717   29.1114 N   0  0  0  0  0  0  0  0  0  0  0  0
    9.6221   -3.2806   25.8681 N   0  0  0  0  0  0  0  0  0  0  0  0
    9.9890   -4.7301   24.0871 O   0  0  0  0  0  0  0  0  0  0  0  0
    8.4530   -1.2802   24.0158 O   0  0  0  0  0  0  0  0  0  0  0  0
   13.9520   -1.4836   21.9618 Cl  0  0  0  0  0  0  0  0  0  0  0  0
    5.0836   -4.9911   22.4219 H   0  0  0  0  0  0  0  0  0  0  0  0
    6.5805   -3.8867   20.7796 H   0  0  0  0  0  0  0  0  0  0  0  0
    5.1761   -4.3456   24.8146 H   0  0  0  0  0  0  0  0  0  0  0  0
    8.3622   -7.4175   27.4336 H   0  0  0  0  0  0  0  0  0  0  0  0
    9.2399   -5.9352   25.6433 H   0  0  0  0  0  0  0  0  0  0  0  0
    8.1674   -2.1401   21.5261 H   0  0  0  0  0  0  0  0  0  0  0  0
    6.7621   -2.5992   25.5688 H   0  0  0  0  0  0  0  0  0  0  0  0
    9.6171    0.6015   22.6142 H   0  0  0  0  0  0  0  0  0  0  0  0
   11.9211    0.5283   21.7474 H   0  0  0  0  0  0  0  0  0  0  0  0
   12.4593   -3.3719   23.4969 H   0  0  0  0  0  0  0  0  0  0  0  0
    7.7748   -6.3976   29.6394 H   0  0  0  0  0  0  0  0  0  0  0  0
    8.8631   -2.6384   28.3751 H   0  0  0  0  0  0  0  0  0  0  0  0
    9.6980   -2.3029   26.1376 H   0  0  0  0  0  0  0  0  0  0  0  0
  1  2  1  0  0  0  0
  1  3  2  0  0  0  0
  2  6  2  0  0  0  0
  3  7  1  0  0  0  0
  4  5  2  0  0  0  0
  4 11  1  0  0  0  0
  5 14  1  0  0  0  0
  6 15  1  0  0  0  0
  7 15  2  0  0  0  0
  8  9  2  0  0  0  0
  8 16  1  0  0  0  0
  9 17  1  0  0  0  0
 10 13  1  0  0  0  0
 10 17  2  0  0  0  0
 11 19  2  0  0  0  0
 12 14  2  0  0  0  0
 12 19  1  0  0  0  0
 13 16  2  0  0  0  0
 13 18  1  0  0  0  0
 14 20  1  0  0  0  0
 15 22  1  0  0  0  0
 16 22  1  0  0  0  0
 17 23  1  0  0  0  0
 18 20  1  0  0  0  0
 18 21  2  0  0  0  0
  1 24  1  0  0  0  0
  2 25  1  0  0  0  0
  3 26  1  0  0  0  0
  4 27  1  0  0  0  0
  5 28  1  0  0  0  0
  6 29  1  0  0  0  0
  7 30  1  0  0  0  0
  8 31  1  0  0  0  0
  9 32  1  0  0  0  0
 10 33  1  0  0  0  0
 11 34  1  0  0  0  0
 12 35  1  0  0  0  0
 20 36  1  0  0  0  0
M  END
> <Chemgauss4 Score>
-6.17829990386963

> <Number of Confs>
120

$$$$
JOH-MEM-5e3-8
  -OEChem-03242005443D

 35 36  0     0  0  0  0  0  0999 V2000
   11.6161   -3.2040   23.4948 C   0  0  0  0  0  0  0  0  0  0  0  0
   10.3626   -4.6658   26.5621 C   0  0  0  0  0  0  0  0  0  0  0  0
   10.4540   -2.6327   25.5784 C   0  0  0  0  0  0  0  0  0  0  0  0
   10.0160   -3.3449   26.7299 C   0  0  0  0  0  0  0  0  0  0  0  0
   11.0647   -3.5595   24.7309 C   0  0  0  0  0  0  0  0  0  0  0  0
   11.5400   -1.8608   23.1154 C   0  0  0  0  0  0  0  0  0  0  0  0
   10.3891   -1.2843   25.1746 C   0  0  0  0  0  0  0  0  0  0  0  0
   10.9364   -0.9141   23.9408 C   0  0  0  0  0  0  0  0  0  0  0  0
    6.9129   -4.0985   26.0027 C   0  0  0  0  0  0  0  0  0  0  0  0
    6.1093   -5.3496   25.8719 C   0  0  0  0  0  0  0  0  0  0  0  0
    9.7311    0.7839   22.7920 C   0  0  0  0  0  0  0  0  0  0  0  0
    9.3148   -2.7848   27.9032 C   0  0  0  0  0  0  0  0  0  0  0  0
    7.8251   -2.4836   27.6588 C   0  0  0  0  0  0  0  0  0  0  0  0
   10.9949   -4.7853   25.3536 N   0  0  0  0  0  0  0  0  0  0  0  0
    7.0835   -3.6651   27.3077 N   0  0  0  0  0  0  0  0  0  0  0  0
    7.3542   -3.5559   24.9965 O   0  0  0  0  0  0  0  0  0  0  0  0
   12.0701   -1.4865   21.9148 O   0  0  0  0  0  0  0  0  0  0  0  0
    9.8018   -0.3344   25.9685 O   0  0  0  0  0  0  0  0  0  0  0  0
   10.8768    0.3905   23.5420 O   0  0  0  0  0  0  0  0  0  0  0  0
   12.0851   -3.9449   22.8552 H   0  0  0  0  0  0  0  0  0  0  0  0
   10.2181   -5.5320   27.1930 H   0  0  0  0  0  0  0  0  0  0  0  0
    5.0316   -5.1477   25.7622 H   0  0  0  0  0  0  0  0  0  0  0  0
    6.3875   -5.9370   24.9821 H   0  0  0  0  0  0  0  0  0  0  0  0
    6.1880   -6.0510   26.7180 H   0  0  0  0  0  0  0  0  0  0  0  0
    9.8075    1.8439   22.5377 H   0  0  0  0  0  0  0  0  0  0  0  0
    8.8288    0.6039   23.3820 H   0  0  0  0  0  0  0  0  0  0  0  0
    9.6874    0.1935   21.8737 H   0  0  0  0  0  0  0  0  0  0  0  0
    9.8032   -1.8436   28.2239 H   0  0  0  0  0  0  0  0  0  0  0  0
    9.4009   -3.4553   28.7819 H   0  0  0  0  0  0  0  0  0  0  0  0
    7.3555   -2.0718   28.5577 H   0  0  0  0  0  0  0  0  0  0  0  0
    7.6990   -1.7608   26.8461 H   0  0  0  0  0  0  0  0  0  0  0  0
   11.3575   -5.6485   24.9727 H   0  0  0  0  0  0  0  0  0  0  0  0
    6.6620   -4.2114   28.0572 H   0  0  0  0  0  0  0  0  0  0  0  0
   12.4499   -2.2561   21.4644 H   0  0  0  0  0  0  0  0  0  0  0  0
    9.4747   -0.7441   26.7815 H   0  0  0  0  0  0  0  0  0  0  0  0
  1  5  1  0  0  0  0
  1  6  2  0  0  0  0
  2  4  2  0  0  0  0
  2 14  1  0  0  0  0
  3  4  1  0  0  0  0
  3  5  2  0  0  0  0
  3  7  1  0  0  0  0
  4 12  1  0  0  0  0
  5 14  1  0  0  0  0
  6  8  1  0  0  0  0
  6 17  1  0  0  0  0
  7  8  2  0  0  0  0
  7 18  1  0  0  0  0
  8 19  1  0  0  0  0
  9 10  1  0  0  0  0
  9 15  1  0  0  0  0
  9 16  2  0  0  0  0
 11 19  1  0  0  0  0
 12 13  1  0  0  0  0
 13 15  1  0  0  0  0
  1 20  1  0  0  0  0
  2 21  1  0  0  0  0
 10 22  1  0  0  0  0
 10 23  1  0  0  0  0
 10 24  1  0  0  0  0
 11 25  1  0  0  0  0
 11 26  1  0  0  0  0
 11 27  1  0  0  0  0
 12 28  1  0  0  0  0
 12 29  1  0  0  0  0
 13 30  1  0  0  0  0
 13 31  1  0  0  0  0
 14 32  1  0  0  0  0
 15 33  1  0  0  0  0
 17 34  1  0  0  0  0
 18 35  1  0  0  0  0
M  END
> <Chemgauss4 Score>
-6.16498327255249

> <Number of Confs>
49

$$$$
TRY-UNI-714-14
  -OEChem-03242005443D

 36 37  0     1  0  0  0  0  0999 V2000
   12.8895   -1.2357   22.2131 C   0  0  0  0  0  0  0  0  0  0  0  0
   13.3647   -0.4160   23.2368 C   0  0  0  0  0  0  0  0  0  0  0  0
   11.5289   -1.5319   22.1315 C   0  0  0  0  0  0  0  0  0  0  0  0
   12.4792    0.1074   24.1790 C   0  0  0  0  0  0  0  0  0  0  0  0
   10.6434   -1.0086   23.0738 C   0  0  0  0  0  0  0  0  0  0  0  0
    8.6755   -4.9889   28.4544 C   0  0  0  0  0  0  0  0  0  0  0  0
    8.8331   -2.7286   28.0747 C   0  0  0  0  0  0  0  0  0  0  0  0
   11.1186   -0.1890   24.0975 C   0  0  0  0  0  0  0  0  0  0  0  0
    9.3662   -4.2299   26.3089 C   0  0  0  0  0  0  0  0  0  0  0  0
    9.0786   -5.2886   27.1631 C   0  0  0  0  0  0  0  0  0  0  0  0
    9.2437   -2.9224   26.7656 C   0  0  0  0  0  0  0  0  0  0  0  0
   10.0034   -0.5612   26.3237 C   0  0  0  0  0  0  0  0  0  0  0  0
    9.8064   -4.4962   24.9035 C   0  0  0  0  0  0  0  0  0  0  0  0
   10.5839    1.7825   25.5616 C   0  0  0  0  0  0  0  0  0  0  0  0
   10.1713    0.3701   25.1048 C   0  0  1  0  0  0  0  0  0  0  0  0
    8.5449   -3.7317   28.9339 N   0  0  0  0  0  0  0  0  0  0  0  0
    9.1873   -6.6279   26.7477 N   0  0  0  0  0  0  0  0  0  0  0  0
    9.5233   -1.8101   25.9367 N   0  0  0  0  0  0  0  0  0  0  0  0
   10.2953   -0.2000   27.4601 O   0  0  0  0  0  0  0  0  0  0  0  0
   13.5789   -1.6420   21.4787 H   0  0  0  0  0  0  0  0  0  0  0  0
   14.4239   -0.1843   23.2998 H   0  0  0  0  0  0  0  0  0  0  0  0
   11.1584   -2.1692   21.3340 H   0  0  0  0  0  0  0  0  0  0  0  0
   12.8584    0.7449   24.9733 H   0  0  0  0  0  0  0  0  0  0  0  0
    9.5851   -1.2450   23.0024 H   0  0  0  0  0  0  0  0  0  0  0  0
    8.4370   -5.7724   29.1677 H   0  0  0  0  0  0  0  0  0  0  0  0
    8.7181   -1.7314   28.4890 H   0  0  0  0  0  0  0  0  0  0  0  0
    8.9370   -4.5471   24.2396 H   0  0  0  0  0  0  0  0  0  0  0  0
   10.4773   -3.7072   24.5453 H   0  0  0  0  0  0  0  0  0  0  0  0
   10.3568   -5.4416   24.8363 H   0  0  0  0  0  0  0  0  0  0  0  0
   11.5826    1.7826   26.0125 H   0  0  0  0  0  0  0  0  0  0  0  0
   10.6041    2.4900   24.7250 H   0  0  0  0  0  0  0  0  0  0  0  0
    9.8768    2.1661   26.3055 H   0  0  0  0  0  0  0  0  0  0  0  0
    9.1586    0.4808   24.6688 H   0  0  0  0  0  0  0  0  0  0  0  0
    9.0165   -7.3627   27.4069 H   0  0  0  0  0  0  0  0  0  0  0  0
    9.5250   -6.8310   25.8265 H   0  0  0  0  0  0  0  0  0  0  0  0
    9.3517   -1.9558   24.9442 H   0  0  0  0  0  0  0  0  0  0  0  0
  1  2  1  0  0  0  0
  1  3  2  0  0  0  0
  2  4  2  0  0  0  0
  3  5  1  0  0  0  0
  4  8  1  0  0  0  0
  5  8  2  0  0  0  0
  6 10  2  0  0  0  0
  6 16  1  0  0  0  0
  7 11  1  0  0  0  0
  7 16  2  0  0  0  0
  8 15  1  0  0  0  0
  9 10  1  0  0  0  0
  9 11  2  0  0  0  0
  9 13  1  0  0  0  0
 10 17  1  0  0  0  0
 11 18  1  0  0  0  0
 12 15  1  0  0  0  0
 12 18  1  0  0  0  0
 12 19  2  0  0  0  0
 14 15  1  1  0  0  0
  1 20  1  0  0  0  0
  2 21  1  0  0  0  0
  3 22  1  0  0  0  0
  4 23  1  0  0  0  0
  5 24  1  0  0  0  0
  6 25  1  0  0  0  0
  7 26  1  0  0  0  0
 13 27  1  0  0  0  0
 13 28  1  0  0  0  0
 13 29  1  0  0  0  0
 14 30  1  0  0  0  0
 14 31  1  0  0  0  0
 14 32  1  0  0  0  0
 15 33  1  0  0  0  0
 17 34  1  0  0  0  0
 17 35  1  0  0  0  0
 18 36  1  0  0  0  0
M  END
> <Chemgauss4 Score>
-6.16091632843018

> <Number of Confs>
15

$$$$
SAL-INS-1c7-8
  -OEChem-03242005443D

 43 45  0     1  0  0  0  0  0999 V2000
    5.3774   -5.5701   22.3326 C   0  0  0  0  0  0  0  0  0  0  0  0
    5.2591   -5.6367   23.7208 C   0  0  0  0  0  0  0  0  0  0  0  0
    6.6402   -5.5457   21.7406 C   0  0  0  0  0  0  0  0  0  0  0  0
    6.4036   -5.6787   24.5171 C   0  0  0  0  0  0  0  0  0  0  0  0
    7.7847   -5.5877   22.5368 C   0  0  0  0  0  0  0  0  0  0  0  0
    8.9145   -3.0250   27.4801 C   0  0  0  0  0  0  0  0  0  0  0  0
    8.4560   -3.7530   28.5780 C   0  0  0  0  0  0  0  0  0  0  0  0
    8.2989   -5.7316   27.2004 C   0  0  0  0  0  0  0  0  0  0  0  0
    7.6664   -5.6542   23.9251 C   0  0  0  0  0  0  0  0  0  0  0  0
    8.7574   -5.0035   26.1025 C   0  0  0  0  0  0  0  0  0  0  0  0
    9.0652   -3.6502   26.2423 C   0  0  0  0  0  0  0  0  0  0  0  0
    8.1482   -5.1063   28.4382 C   0  0  0  0  0  0  0  0  0  0  0  0
   11.2590   -2.4848   23.4161 C   0  0  0  0  0  0  0  0  0  0  0  0
   11.6378   -1.2668   23.0162 C   0  0  0  0  0  0  0  0  0  0  0  0
    8.5470   -2.2300   24.3169 C   0  0  0  0  0  0  0  0  0  0  0  0
   11.4876   -1.4339   25.6012 C   0  0  0  0  0  0  0  0  0  0  0  0
   10.9709   -2.6829   24.8782 C   0  0  1  0  0  0  0  0  0  0  0  0
    8.9094   -5.6995   24.7890 C   0  0  0  0  0  0  0  0  0  0  0  0
    7.2367   -1.9793   25.0422 C   0  0  0  0  0  0  0  0  0  0  0  0
    9.5427   -2.8772   25.1157 N   0  0  0  0  0  0  0  0  0  0  0  0
    8.6690   -1.9122   23.1312 O   0  0  0  0  0  0  0  0  0  0  0  0
   12.9855    0.4243   24.4727 O   0  0  0  0  0  0  0  0  0  0  0  0
   10.4667    0.6436   24.3363 O   0  0  0  0  0  0  0  0  0  0  0  0
    7.7084   -5.8054   29.4927 F   0  0  0  0  0  0  0  0  0  0  0  0
   11.6686   -0.1662   24.3470 S   0  0  0  0  0  0  0  0  0  0  0  0
    6.0737   -1.2003   23.9485 Cl  0  0  0  0  0  0  0  0  0  0  0  0
    4.4861   -5.5388   21.7127 H   0  0  0  0  0  0  0  0  0  0  0  0
    4.2759   -5.6568   24.1819 H   0  0  0  0  0  0  0  0  0  0  0  0
    6.7326   -5.4950   20.6598 H   0  0  0  0  0  0  0  0  0  0  0  0
    6.3018   -5.7302   25.5979 H   0  0  0  0  0  0  0  0  0  0  0  0
    8.7644   -5.5681   22.0668 H   0  0  0  0  0  0  0  0  0  0  0  0
    9.1509   -1.9707   27.6014 H   0  0  0  0  0  0  0  0  0  0  0  0
    8.3384   -3.2665   29.5418 H   0  0  0  0  0  0  0  0  0  0  0  0
    8.0576   -6.7868   27.1029 H   0  0  0  0  0  0  0  0  0  0  0  0
   11.1671   -3.3076   22.7168 H   0  0  0  0  0  0  0  0  0  0  0  0
   11.8784   -0.9826   22.0021 H   0  0  0  0  0  0  0  0  0  0  0  0
   10.8314   -1.0742   26.3981 H   0  0  0  0  0  0  0  0  0  0  0  0
   12.4836   -1.6224   26.0165 H   0  0  0  0  0  0  0  0  0  0  0  0
   11.4801   -3.5797   25.2762 H   0  0  0  0  0  0  0  0  0  0  0  0
    9.2007   -6.7523   24.9437 H   0  0  0  0  0  0  0  0  0  0  0  0
    9.7553   -5.2725   24.2240 H   0  0  0  0  0  0  0  0  0  0  0  0
    6.8087   -2.9281   25.3752 H   0  0  0  0  0  0  0  0  0  0  0  0
    7.3766   -1.2999   25.8863 H   0  0  0  0  0  0  0  0  0  0  0  0
  1  2  1  0  0  0  0
  1  3  2  0  0  0  0
  2  4  2  0  0  0  0
  3  5  1  0  0  0  0
  4  9  1  0  0  0  0
  5  9  2  0  0  0  0
  6  7  2  0  0  0  0
  6 11  1  0  0  0  0
  7 12  1  0  0  0  0
  8 10  1  0  0  0  0
  8 12  2  0  0  0  0
  9 18  1  0  0  0  0
 10 11  2  0  0  0  0
 10 18  1  0  0  0  0
 11 20  1  0  0  0  0
 12 24  1  0  0  0  0
 13 14  2  0  0  0  0
 13 17  1  0  0  0  0
 14 25  1  0  0  0  0
 15 19  1  0  0  0  0
 15 20  1  0  0  0  0
 15 21  2  0  0  0  0
 16 17  1  0  0  0  0
 16 25  1  0  0  0  0
 17 20  1  6  0  0  0
 19 26  1  0  0  0  0
 22 25  2  0  0  0  0
 23 25  2  0  0  0  0
  1 27  1  0  0  0  0
  2 28  1  0  0  0  0
  3 29  1  0  0  0  0
  4 30  1  0  0  0  0
  5 31  1  0  0  0  0
  6 32  1  0  0  0  0
  7 33  1  0  0  0  0
  8 34  1  0  0  0  0
 13 35  1  0  0  0  0
 14 36  1  0  0  0  0
 16 37  1  0  0  0  0
 16 38  1  0  0  0  0
 17 39  1  0  0  0  0
 18 40  1  0  0  0  0
 18 41  1  0  0  0  0
 19 42  1  0  0  0  0
 19 43  1  0  0  0  0
M  END
> <Chemgauss4 Score>
-6.14961004257202

> <Number of Confs>
188

$$$$
DAR-DIA-fc9-5
  -OEChem-03242005443D

 34 36  0     1  0  0  0  0  0999 V2000
   13.7124   -0.4309   22.5903 C   0  0  0  0  0  0  0  0  0  0  0  0
   13.3556   -0.1517   23.9095 C   0  0  0  0  0  0  0  0  0  0  0  0
   12.9121   -1.2689   21.8137 C   0  0  0  0  0  0  0  0  0  0  0  0
    7.8408   -6.3362   28.2899 C   0  0  0  0  0  0  0  0  0  0  0  0
   12.1986   -0.7105   24.4523 C   0  0  0  0  0  0  0  0  0  0  0  0
   11.7550   -1.8277   22.3565 C   0  0  0  0  0  0  0  0  0  0  0  0
    8.1173   -5.6888   27.0909 C   0  0  0  0  0  0  0  0  0  0  0  0
    7.7836   -5.5696   29.4427 C   0  0  0  0  0  0  0  0  0  0  0  0
    8.2461   -3.6379   28.2882 C   0  0  0  0  0  0  0  0  0  0  0  0
   11.3982   -1.5486   23.6758 C   0  0  0  0  0  0  0  0  0  0  0  0
    8.3252   -4.3140   27.0814 C   0  0  0  0  0  0  0  0  0  0  0  0
    9.4568   -1.4777   25.2382 C   0  0  0  0  0  0  0  0  0  0  0  0
    8.2231   -2.2522   25.6624 C   0  0  0  0  0  0  0  0  0  0  0  0
    9.6699   -3.3696   23.6748 C   0  0  0  0  0  0  0  0  0  0  0  0
    9.2197   -4.3425   24.7700 C   0  0  0  0  0  0  0  0  0  0  0  0
    7.9798   -4.2324   29.4728 N   0  0  0  0  0  0  0  0  0  0  0  0
   10.2056   -2.1243   24.2354 N   0  0  0  0  0  0  0  0  0  0  0  0
    8.6036   -3.6388   25.8964 N   0  0  3  0  0  0  0  0  0  0  0  0
    9.6698   -0.3645   25.7168 O   0  0  0  0  0  0  0  0  0  0  0  0
   14.6129    0.0047   22.1671 H   0  0  0  0  0  0  0  0  0  0  0  0
   13.9780    0.5013   24.5141 H   0  0  0  0  0  0  0  0  0  0  0  0
   13.1896   -1.4853   20.7862 H   0  0  0  0  0  0  0  0  0  0  0  0
    7.6753   -7.4070   28.3213 H   0  0  0  0  0  0  0  0  0  0  0  0
   11.9305   -0.4857   25.4816 H   0  0  0  0  0  0  0  0  0  0  0  0
   11.1389   -2.4793   21.7418 H   0  0  0  0  0  0  0  0  0  0  0  0
    8.1684   -6.2643   26.1704 H   0  0  0  0  0  0  0  0  0  0  0  0
    7.5712   -6.0267   30.4035 H   0  0  0  0  0  0  0  0  0  0  0  0
    8.3990   -2.5643   28.3444 H   0  0  0  0  0  0  0  0  0  0  0  0
    7.8224   -1.8037   26.5621 H   0  0  0  0  0  0  0  0  0  0  0  0
    7.4992   -2.1927   24.8588 H   0  0  0  0  0  0  0  0  0  0  0  0
   10.4581   -3.8252   23.0566 H   0  0  0  0  0  0  0  0  0  0  0  0
    8.8216   -3.1390   23.0137 H   0  0  0  0  0  0  0  0  0  0  0  0
    8.4963   -5.0577   24.3597 H   0  0  0  0  0  0  0  0  0  0  0  0
   10.0935   -4.9179   25.1014 H   0  0  0  0  0  0  0  0  0  0  0  0
  1  2  1  0  0  0  0
  1  3  2  0  0  0  0
  2  5  2  0  0  0  0
  3  6  1  0  0  0  0
  4  7  2  0  0  0  0
  4  8  1  0  0  0  0
  5 10  1  0  0  0  0
  6 10  2  0  0  0  0
  7 11  1  0  0  0  0
  8 16  2  0  0  0  0
  9 11  2  0  0  0  0
  9 16  1  0  0  0  0
 10 17  1  0  0  0  0
 11 18  1  6  0  0  0
 12 13  1  0  0  0  0
 12 17  1  0  0  0  0
 12 19  2  0  0  0  0
 13 18  1  0  0  0  0
 14 15  1  0  0  0  0
 14 17  1  0  0  0  0
 15 18  1  0  0  0  0
  1 20  1  0  0  0  0
  2 21  1  0  0  0  0
  3 22  1  0  0  0  0
  4 23  1  0  0  0  0
  5 24  1  0  0  0  0
  6 25  1  0  0  0  0
  7 26  1  0  0  0  0
  8 27  1  0  0  0  0
  9 28  1  0  0  0  0
 13 29  1  0  0  0  0
 13 30  1  0  0  0  0
 14 31  1  0  0  0  0
 14 32  1  0  0  0  0
 15 33  1  0  0  0  0
 15 34  1  0  0  0  0
M  END
> <Chemgauss4 Score>
-6.14447593688965

> <Number of Confs>
30

$$$$
CHR-SOS-709-14
  -OEChem-03242005443D

 35 37  0     0  0  0  0  0  0999 V2000
    5.4396   -3.4915   23.2958 C   0  0  0  0  0  0  0  0  0  0  0  0
    6.3236   -4.1599   22.4488 C   0  0  0  0  0  0  0  0  0  0  0  0
    5.8761   -2.3881   24.0291 C   0  0  0  0  0  0  0  0  0  0  0  0
    7.9851   -6.5208   27.6453 C   0  0  0  0  0  0  0  0  0  0  0  0
    7.6440   -3.7250   22.3351 C   0  0  0  0  0  0  0  0  0  0  0  0
    7.1965   -1.9532   23.9155 C   0  0  0  0  0  0  0  0  0  0  0  0
    9.9196   -1.7700   21.6992 C   0  0  0  0  0  0  0  0  0  0  0  0
    8.4961   -5.8821   26.5209 C   0  0  0  0  0  0  0  0  0  0  0  0
   11.2356   -1.3303   21.5562 C   0  0  0  0  0  0  0  0  0  0  0  0
   11.6128   -1.6920   23.9150 C   0  0  0  0  0  0  0  0  0  0  0  0
    7.8846   -5.7887   28.8174 C   0  0  0  0  0  0  0  0  0  0  0  0
    8.7445   -3.9059   27.8205 C   0  0  0  0  0  0  0  0  0  0  0  0
    8.0805   -2.6216   23.0685 C   0  0  0  0  0  0  0  0  0  0  0  0
    9.4502   -2.1707   22.9501 C   0  0  0  0  0  0  0  0  0  0  0  0
   10.2968   -2.1317   24.0580 C   0  0  0  0  0  0  0  0  0  0  0  0
    8.8854   -4.5498   26.6018 C   0  0  0  0  0  0  0  0  0  0  0  0
   12.0822   -1.2913   22.6640 C   0  0  0  0  0  0  0  0  0  0  0  0
    9.8461   -2.5427   25.3831 C   0  0  0  0  0  0  0  0  0  0  0  0
    8.2524   -4.4931   28.9344 N   0  0  0  0  0  0  0  0  0  0  0  0
    9.4102   -3.8718   25.4726 N   0  0  0  0  0  0  0  0  0  0  0  0
    9.8254   -1.7518   26.3334 O   0  0  0  0  0  0  0  0  0  0  0  0
   13.7065   -0.7494   22.4875 Cl  0  0  0  0  0  0  0  0  0  0  0  0
    4.4111   -3.8292   23.3829 H   0  0  0  0  0  0  0  0  0  0  0  0
    5.9835   -5.0180   21.8765 H   0  0  0  0  0  0  0  0  0  0  0  0
    5.1880   -1.8663   24.6878 H   0  0  0  0  0  0  0  0  0  0  0  0
    7.6753   -7.5588   27.6054 H   0  0  0  0  0  0  0  0  0  0  0  0
    8.3209   -4.2565   21.6704 H   0  0  0  0  0  0  0  0  0  0  0  0
    7.5223   -1.0912   24.4928 H   0  0  0  0  0  0  0  0  0  0  0  0
    9.2730   -1.7943   20.8251 H   0  0  0  0  0  0  0  0  0  0  0  0
    8.5865   -6.4315   25.5875 H   0  0  0  0  0  0  0  0  0  0  0  0
   11.5876   -1.0207   20.5755 H   0  0  0  0  0  0  0  0  0  0  0  0
   12.2725   -1.6625   24.7799 H   0  0  0  0  0  0  0  0  0  0  0  0
    7.4932   -6.2413   29.7225 H   0  0  0  0  0  0  0  0  0  0  0  0
    9.0308   -2.8659   27.9459 H   0  0  0  0  0  0  0  0  0  0  0  0
    9.4791   -4.4198   24.6186 H   0  0  0  0  0  0  0  0  0  0  0  0
  1  2  1  0  0  0  0
  1  3  2  0  0  0  0
  2  5  2  0  0  0  0
  3  6  1  0  0  0  0
  4  8  2  0  0  0  0
  4 11  1  0  0  0  0
  5 13  1  0  0  0  0
  6 13  2  0  0  0  0
  7  9  2  0  0  0  0
  7 14  1  0  0  0  0
  8 16  1  0  0  0  0
  9 17  1  0  0  0  0
 10 15  1  0  0  0  0
 10 17  2  0  0  0  0
 11 19  2  0  0  0  0
 12 16  2  0  0  0  0
 12 19  1  0  0  0  0
 13 14  1  0  0  0  0
 14 15  2  0  0  0  0
 15 18  1  0  0  0  0
 16 20  1  0  0  0  0
 17 22  1  0  0  0  0
 18 20  1  0  0  0  0
 18 21  2  0  0  0  0
  1 23  1  0  0  0  0
  2 24  1  0  0  0  0
  3 25  1  0  0  0  0
  4 26  1  0  0  0  0
  5 27  1  0  0  0  0
  6 28  1  0  0  0  0
  7 29  1  0  0  0  0
  8 30  1  0  0  0  0
  9 31  1  0  0  0  0
 10 32  1  0  0  0  0
 11 33  1  0  0  0  0
 12 34  1  0  0  0  0
 20 35  1  0  0  0  0
M  END
> <Chemgauss4 Score>
-6.1440896987915

> <Number of Confs>
16

$$$$
CHR-SOS-6c4-10
  -OEChem-03242005443D

 38 40  0     0  0  0  0  0  0999 V2000
    9.9289   -1.5996   22.4387 C   0  0  0  0  0  0  0  0  0  0  0  0
    8.7925   -1.9883   22.4271 C   0  0  0  0  0  0  0  0  0  0  0  0
   12.9643    0.4411   23.0297 C   0  0  0  0  0  0  0  0  0  0  0  0
   13.9011   -0.3715   22.4011 C   0  0  0  0  0  0  0  0  0  0  0  0
   11.6281    0.0577   23.0595 C   0  0  0  0  0  0  0  0  0  0  0  0
   10.3680   -4.3489   27.4998 C   0  0  0  0  0  0  0  0  0  0  0  0
   13.4543   -1.5482   21.8218 C   0  0  0  0  0  0  0  0  0  0  0  0
    9.7271   -3.9141   28.6488 C   0  0  0  0  0  0  0  0  0  0  0  0
    8.0929   -2.8438   27.4396 C   0  0  0  0  0  0  0  0  0  0  0  0
   11.2829   -1.1380   22.4505 C   0  0  0  0  0  0  0  0  0  0  0  0
    9.8165   -3.9951   26.2735 C   0  0  0  0  0  0  0  0  0  0  0  0
    8.6573   -3.2282   26.2340 C   0  0  0  0  0  0  0  0  0  0  0  0
    6.9022   -2.0796   24.8265 C   0  0  0  0  0  0  0  0  0  0  0  0
    7.1922   -3.8757   21.9512 C   0  0  0  0  0  0  0  0  0  0  0  0
    6.8108   -2.7340   21.0607 C   0  0  0  0  0  0  0  0  0  0  0  0
    7.4320   -2.4541   22.4124 C   0  0  0  0  0  0  0  0  0  0  0  0
   10.4871   -4.4499   25.0188 C   0  0  0  0  0  0  0  0  0  0  0  0
    8.5997   -3.1679   28.6503 N   0  0  0  0  0  0  0  0  0  0  0  0
   12.1647   -1.9539   21.8304 N   0  0  0  0  0  0  0  0  0  0  0  0
    8.0581   -2.8433   25.0120 N   0  0  0  0  0  0  0  0  0  0  0  0
    6.6260   -1.9101   23.4554 N   0  0  0  0  0  0  0  0  0  0  0  0
    6.1919   -1.6003   25.7070 O   0  0  0  0  0  0  0  0  0  0  0  0
   13.2749    1.3717   23.4953 H   0  0  0  0  0  0  0  0  0  0  0  0
   14.9480   -0.0927   22.3658 H   0  0  0  0  0  0  0  0  0  0  0  0
   10.8896    0.6858   23.5474 H   0  0  0  0  0  0  0  0  0  0  0  0
   11.2712   -4.9459   27.5651 H   0  0  0  0  0  0  0  0  0  0  0  0
   14.1452   -2.2169   21.3191 H   0  0  0  0  0  0  0  0  0  0  0  0
   10.1171   -4.1630   29.6302 H   0  0  0  0  0  0  0  0  0  0  0  0
    7.1877   -2.2448   27.4742 H   0  0  0  0  0  0  0  0  0  0  0  0
    6.3909   -4.4396   22.4152 H   0  0  0  0  0  0  0  0  0  0  0  0
    8.0399   -4.4829   21.6547 H   0  0  0  0  0  0  0  0  0  0  0  0
    7.4025   -2.5747   20.1665 H   0  0  0  0  0  0  0  0  0  0  0  0
    5.7539   -2.5327   20.9278 H   0  0  0  0  0  0  0  0  0  0  0  0
   10.0904   -5.4231   24.7074 H   0  0  0  0  0  0  0  0  0  0  0  0
   10.3319   -3.7321   24.2039 H   0  0  0  0  0  0  0  0  0  0  0  0
   11.5710   -4.5430   25.1602 H   0  0  0  0  0  0  0  0  0  0  0  0
    8.5292   -3.1627   24.1693 H   0  0  0  0  0  0  0  0  0  0  0  0
    5.7995   -1.3653   23.1929 H   0  0  0  0  0  0  0  0  0  0  0  0
  1  2  3  0  0  0  0
  1 10  1  0  0  0  0
  2 16  1  0  0  0  0
  3  4  1  0  0  0  0
  3  5  2  0  0  0  0
  4  7  2  0  0  0  0
  5 10  1  0  0  0  0
  6  8  2  0  0  0  0
  6 11  1  0  0  0  0
  7 19  1  0  0  0  0
  8 18  1  0  0  0  0
  9 12  1  0  0  0  0
  9 18  2  0  0  0  0
 10 19  2  0  0  0  0
 11 12  2  0  0  0  0
 11 17  1  0  0  0  0
 12 20  1  0  0  0  0
 13 20  1  0  0  0  0
 13 21  1  0  0  0  0
 13 22  2  0  0  0  0
 14 15  1  0  0  0  0
 14 16  1  0  0  0  0
 15 16  1  0  0  0  0
 16 21  1  0  0  0  0
  3 23  1  0  0  0  0
  4 24  1  0  0  0  0
  5 25  1  0  0  0  0
  6 26  1  0  0  0  0
  7 27  1  0  0  0  0
  8 28  1  0  0  0  0
  9 29  1  0  0  0  0
 14 30  1  0  0  0  0
 14 31  1  0  0  0  0
 15 32  1  0  0  0  0
 15 33  1  0  0  0  0
 17 34  1  0  0  0  0
 17 35  1  0  0  0  0
 17 36  1  0  0  0  0
 20 37  1  0  0  0  0
 21 38  1  0  0  0  0
M  END
> <Chemgauss4 Score>
-6.13563013076782

> <Number of Confs>
5

$$$$
NIM-UNI-36e-5
  -OEChem-03242005443D

 31 33  0     0  0  0  0  0  0999 V2000
    7.7062   -6.4544   27.9532 C   0  0  0  0  0  0  0  0  0  0  0  0
   11.7775   -1.5271   22.5761 C   0  0  0  0  0  0  0  0  0  0  0  0
    6.5467   -4.5572   26.9245 C   0  0  0  0  0  0  0  0  0  0  0  0
    6.5557   -3.4081   26.1138 C   0  0  0  0  0  0  0  0  0  0  0  0
   11.3115   -2.6026   23.3242 C   0  0  0  0  0  0  0  0  0  0  0  0
   11.6425   -0.2569   23.1127 C   0  0  0  0  0  0  0  0  0  0  0  0
   10.6447   -1.0697   25.0159 C   0  0  0  0  0  0  0  0  0  0  0  0
    7.7209   -5.2713   27.1549 C   0  0  0  0  0  0  0  0  0  0  0  0
    7.7414   -2.9404   25.5305 C   0  0  0  0  0  0  0  0  0  0  0  0
   10.7328   -2.3780   24.5683 C   0  0  0  0  0  0  0  0  0  0  0  0
    8.8736   -4.7879   26.5694 C   0  0  0  0  0  0  0  0  0  0  0  0
    8.9130   -3.6277   25.7918 C   0  0  0  0  0  0  0  0  0  0  0  0
   11.0353   -4.5509   25.8472 C   0  0  0  0  0  0  0  0  0  0  0  0
    7.6938   -1.7497   24.6969 C   0  0  0  0  0  0  0  0  0  0  0  0
    7.4437   -1.9402   23.2291 C   0  0  0  0  0  0  0  0  0  0  0  0
    7.6943   -7.4164   28.6022 N   0  0  0  0  0  0  0  0  0  0  0  0
   11.0861    0.0005   24.3176 N   0  0  0  0  0  0  0  0  0  0  0  0
   10.1449   -5.3520   26.6093 N   0  0  0  0  0  0  0  0  0  0  0  0
   10.2487   -3.4530   25.3532 N   0  0  0  0  0  0  0  0  0  0  0  0
   12.2303   -4.7705   25.7019 O   0  0  0  0  0  0  0  0  0  0  0  0
    7.8481   -0.5960   25.1034 O   0  0  0  0  0  0  0  0  0  0  0  0
   12.2321   -1.6786   21.6038 H   0  0  0  0  0  0  0  0  0  0  0  0
    5.6033   -4.8847   27.3563 H   0  0  0  0  0  0  0  0  0  0  0  0
    5.6181   -2.8832   25.9424 H   0  0  0  0  0  0  0  0  0  0  0  0
   11.4041   -3.6105   22.9284 H   0  0  0  0  0  0  0  0  0  0  0  0
   11.9894    0.6152   22.5683 H   0  0  0  0  0  0  0  0  0  0  0  0
   10.2033   -0.8310   25.9790 H   0  0  0  0  0  0  0  0  0  0  0  0
    6.3778   -1.9248   22.9518 H   0  0  0  0  0  0  0  0  0  0  0  0
    7.8742   -2.8735   22.8340 H   0  0  0  0  0  0  0  0  0  0  0  0
    7.8887   -1.1453   22.6045 H   0  0  0  0  0  0  0  0  0  0  0  0
   10.3952   -6.1997   27.1036 H   0  0  0  0  0  0  0  0  0  0  0  0
  1  8  1  0  0  0  0
  1 16  3  0  0  0  0
  2  5  2  0  0  0  0
  2  6  1  0  0  0  0
  3  4  2  0  0  0  0
  3  8  1  0  0  0  0
  4  9  1  0  0  0  0
  5 10  1  0  0  0  0
  6 17  2  0  0  0  0
  7 10  2  0  0  0  0
  7 17  1  0  0  0  0
  8 11  2  0  0  0  0
  9 12  2  0  0  0  0
  9 14  1  0  0  0  0
 10 19  1  0  0  0  0
 11 12  1  0  0  0  0
 11 18  1  0  0  0  0
 12 19  1  0  0  0  0
 13 18  1  0  0  0  0
 13 19  1  0  0  0  0
 13 20  2  0  0  0  0
 14 15  1  0  0  0  0
 14 21  2  0  0  0  0
  2 22  1  0  0  0  0
  3 23  1  0  0  0  0
  4 24  1  0  0  0  0
  5 25  1  0  0  0  0
  6 26  1  0  0  0  0
  7 27  1  0  0  0  0
 15 28  1  0  0  0  0
 15 29  1  0  0  0  0
 15 30  1  0  0  0  0
 18 31  1  0  0  0  0
M  END
> <Chemgauss4 Score>
-6.12904930114746

> <Number of Confs>
8

$$$$
DAR-DIA-23a-3
  -OEChem-03242005443D

 31 32  0     0  0  0  0  0  0999 V2000
   12.5824   -1.3917   22.5059 C   0  0  0  0  0  0  0  0  0  0  0  0
    8.8821   -1.2412   22.1305 C   0  0  0  0  0  0  0  0  0  0  0  0
   10.2383   -0.9663   21.9555 C   0  0  0  0  0  0  0  0  0  0  0  0
    8.4807   -2.2232   23.0362 C   0  0  0  0  0  0  0  0  0  0  0  0
   10.7918   -2.6555   23.5918 C   0  0  0  0  0  0  0  0  0  0  0  0
    6.7475   -4.6257   26.8306 C   0  0  0  0  0  0  0  0  0  0  0  0
    8.4049   -4.5926   28.5360 C   0  0  0  0  0  0  0  0  0  0  0  0
    6.3525   -3.6535   28.9649 C   0  0  0  0  0  0  0  0  0  0  0  0
   11.1932   -1.6735   22.6861 C   0  0  0  0  0  0  0  0  0  0  0  0
    8.0333   -4.9488   27.2496 C   0  0  0  0  0  0  0  0  0  0  0  0
    9.4355   -2.9304   23.7668 C   0  0  0  0  0  0  0  0  0  0  0  0
    5.8848   -3.9656   27.6985 C   0  0  0  0  0  0  0  0  0  0  0  0
    9.8392   -4.7210   25.4918 C   0  0  0  0  0  0  0  0  0  0  0  0
    8.9923   -5.6627   26.3333 C   0  0  0  0  0  0  0  0  0  0  0  0
   13.7107   -1.1627   22.3596 N   0  0  0  0  0  0  0  0  0  0  0  0
    7.5948   -3.9510   29.4076 N   0  0  0  0  0  0  0  0  0  0  0  0
    4.5804   -3.6272   27.3030 N   0  0  0  0  0  0  0  0  0  0  0  0
    9.0336   -3.9116   24.6734 N   0  0  0  0  0  0  0  0  0  0  0  0
   11.0644   -4.7089   25.5539 O   0  0  0  0  0  0  0  0  0  0  0  0
    8.1385   -0.6899   21.5622 H   0  0  0  0  0  0  0  0  0  0  0  0
   10.5353   -0.1984   21.2453 H   0  0  0  0  0  0  0  0  0  0  0  0
    7.4209   -2.4289   23.1643 H   0  0  0  0  0  0  0  0  0  0  0  0
   11.5342   -3.2096   24.1631 H   0  0  0  0  0  0  0  0  0  0  0  0
    6.4195   -4.8896   25.8277 H   0  0  0  0  0  0  0  0  0  0  0  0
    9.3954   -4.8188   28.9186 H   0  0  0  0  0  0  0  0  0  0  0  0
    5.7252   -3.1392   29.6869 H   0  0  0  0  0  0  0  0  0  0  0  0
    9.6598   -6.3022   26.9248 H   0  0  0  0  0  0  0  0  0  0  0  0
    8.4331   -6.3283   25.6635 H   0  0  0  0  0  0  0  0  0  0  0  0
    4.2822   -3.8228   26.3657 H   0  0  0  0  0  0  0  0  0  0  0  0
    3.9931   -3.1097   27.9299 H   0  0  0  0  0  0  0  0  0  0  0  0
    8.0210   -4.0611   24.7526 H   0  0  0  0  0  0  0  0  0  0  0  0
  1  9  1  0  0  0  0
  1 15  3  0  0  0  0
  2  3  2  0  0  0  0
  2  4  1  0  0  0  0
  3  9  1  0  0  0  0
  4 11  2  0  0  0  0
  5  9  2  0  0  0  0
  5 11  1  0  0  0  0
  6 10  2  0  0  0  0
  6 12  1  0  0  0  0
  7 10  1  0  0  0  0
  7 16  2  0  0  0  0
  8 12  2  0  0  0  0
  8 16  1  0  0  0  0
 10 14  1  0  0  0  0
 11 18  1  0  0  0  0
 12 17  1  0  0  0  0
 13 14  1  0  0  0  0
 13 18  1  0  0  0  0
 13 19  2  0  0  0  0
  2 20  1  0  0  0  0
  3 21  1  0  0  0  0
  4 22  1  0  0  0  0
  5 23  1  0  0  0  0
  6 24  1  0  0  0  0
  7 25  1  0  0  0  0
  8 26  1  0  0  0  0
 14 27  1  0  0  0  0
 14 28  1  0  0  0  0
 17 29  1  0  0  0  0
 17 30  1  0  0  0  0
 18 31  1  0  0  0  0
M  END
> <Chemgauss4 Score>
-6.12448024749756

> <Number of Confs>
40

$$$$
NIM-UNI-36e-1
  -OEChem-03242005443D

 34 36  0     1  0  0  0  0  0999 V2000
   12.1138    0.1093   23.0302 C   0  0  0  0  0  0  0  0  0  0  0  0
   11.4416   -0.2359   24.1974 C   0  0  0  0  0  0  0  0  0  0  0  0
   12.3418   -0.8867   22.0943 C   0  0  0  0  0  0  0  0  0  0  0  0
   11.3004   -2.4697   23.3934 C   0  0  0  0  0  0  0  0  0  0  0  0
   11.0238   -1.5480   24.3903 C   0  0  0  0  0  0  0  0  0  0  0  0
    9.9849   -1.0900   26.6766 C   0  0  0  0  0  0  0  0  0  0  0  0
    7.8879   -3.0395   24.3168 C   0  0  0  0  0  0  0  0  0  0  0  0
    8.6241   -5.3949   27.1502 C   0  0  0  0  0  0  0  0  0  0  0  0
    8.2071   -5.1134   25.7034 C   0  0  0  0  0  0  0  0  0  0  0  0
    9.7624   -3.3187   27.3850 C   0  0  1  0  0  0  0  0  0  0  0  0
    9.8998   -3.3041   25.8507 C   0  0  2  0  0  0  0  0  0  0  0  0
    7.0691   -3.8331   23.3250 C   0  0  0  0  0  0  0  0  0  0  0  0
   11.9510   -2.1719   22.2464 N   0  0  0  0  0  0  0  0  0  0  0  0
    9.5426   -1.9380   27.7135 N   0  0  0  0  0  0  0  0  0  0  0  0
    8.6945   -4.1523   27.9233 N   0  0  0  0  0  0  0  0  0  0  0  0
   10.3313   -1.9332   25.5790 N   0  0  0  0  0  0  0  0  0  0  0  0
    8.6348   -3.7832   25.2389 N   0  0  0  0  0  0  0  0  0  0  0  0
   10.0450    0.1285   26.7711 O   0  0  0  0  0  0  0  0  0  0  0  0
    7.8436   -1.8092   24.2598 O   0  0  0  0  0  0  0  0  0  0  0  0
   12.4486    1.1259   22.8586 H   0  0  0  0  0  0  0  0  0  0  0  0
   11.2487    0.5247   24.9494 H   0  0  0  0  0  0  0  0  0  0  0  0
   12.8626   -0.6688   21.1678 H   0  0  0  0  0  0  0  0  0  0  0  0
   10.9994   -3.5090   23.4863 H   0  0  0  0  0  0  0  0  0  0  0  0
    7.9316   -6.1003   27.6161 H   0  0  0  0  0  0  0  0  0  0  0  0
    9.6068   -5.8723   27.1527 H   0  0  0  0  0  0  0  0  0  0  0  0
    8.6513   -5.8719   25.0537 H   0  0  0  0  0  0  0  0  0  0  0  0
    7.1200   -5.1756   25.5951 H   0  0  0  0  0  0  0  0  0  0  0  0
   10.7214   -3.6150   27.8523 H   0  0  0  0  0  0  0  0  0  0  0  0
   10.7298   -3.9623   25.5668 H   0  0  0  0  0  0  0  0  0  0  0  0
    6.0838   -4.0113   23.7419 H   0  0  0  0  0  0  0  0  0  0  0  0
    7.5666   -4.7774   23.1301 H   0  0  0  0  0  0  0  0  0  0  0  0
    6.9860   -3.2684   22.4024 H   0  0  0  0  0  0  0  0  0  0  0  0
    9.1280   -1.6128   28.5694 H   0  0  0  0  0  0  0  0  0  0  0  0
    7.8189   -3.6608   27.8719 H   0  0  0  0  0  0  0  0  0  0  0  0
  1  2  2  0  0  0  0
  1  3  1  0  0  0  0
  2  5  1  0  0  0  0
  3 13  2  0  0  0  0
  4  5  2  0  0  0  0
  4 13  1  0  0  0  0
  5 16  1  0  0  0  0
  6 14  1  0  0  0  0
  6 16  1  0  0  0  0
  6 18  2  0  0  0  0
  7 12  1  0  0  0  0
  7 17  1  0  0  0  0
  7 19  2  0  0  0  0
  8  9  1  0  0  0  0
  8 15  1  0  0  0  0
  9 17  1  0  0  0  0
 10 11  1  0  0  0  0
 10 14  1  0  0  0  0
 10 15  1  1  0  0  0
 11 16  1  0  0  0  0
 11 17  1  6  0  0  0
  1 20  1  0  0  0  0
  2 21  1  0  0  0  0
  3 22  1  0  0  0  0
  4 23  1  0  0  0  0
  8 24  1  0  0  0  0
  8 25  1  0  0  0  0
  9 26  1  0  0  0  0
  9 27  1  0  0  0  0
 10 28  1  0  0  0  0
 11 29  1  0  0  0  0
 12 30  1  0  0  0  0
 12 31  1  0  0  0  0
 12 32  1  0  0  0  0
 14 33  1  0  0  0  0
 15 34  1  0  0  0  0
M  END
> <Chemgauss4 Score>
-6.10377883911133

> <Number of Confs>
8

$$$$
HEI-REL-0c9-5
  -OEChem-03242005443D

 49 51  0     1  0  0  0  0  0999 V2000
    9.9916   -2.1588   24.2937 C   0  0  0  0  0  0  0  0  0  0  0  0
    9.2794    0.0448   24.9666 C   0  0  0  0  0  0  0  0  0  0  0  0
    9.8844   -2.6162   25.6164 C   0  0  0  0  0  0  0  0  0  0  0  0
    9.4905   -1.7200   26.6259 C   0  0  0  0  0  0  0  0  0  0  0  0
    9.6881   -0.8367   23.9708 C   0  0  0  0  0  0  0  0  0  0  0  0
    9.1785   -0.3944   26.2861 C   0  0  0  0  0  0  0  0  0  0  0  0
    5.9771   -0.7660   18.5696 C   0  0  0  0  0  0  0  0  0  0  0  0
   10.2565   -4.0462   25.9246 C   0  0  0  0  0  0  0  0  0  0  0  0
    9.3327   -2.1597   28.0586 C   0  0  0  0  0  0  0  0  0  0  0  0
   10.0151   -3.4915   28.3702 C   0  0  0  0  0  0  0  0  0  0  0  0
    7.2283    0.8472   20.0823 C   0  0  0  0  0  0  0  0  0  0  0  0
    6.5831   -1.3901   20.8839 C   0  0  0  0  0  0  0  0  0  0  0  0
    8.5946    0.6615   20.7449 C   0  0  0  0  0  0  0  0  0  0  0  0
    7.9626   -1.5354   21.5253 C   0  0  0  0  0  0  0  0  0  0  0  0
    9.7702   -4.5392   27.2886 C   0  0  1  0  0  0  0  0  0  0  0  0
    5.9307    0.3163   17.5207 C   0  0  0  0  0  0  0  0  0  0  0  0
    9.8013   -0.3692   22.5592 C   0  0  0  0  0  0  0  0  0  0  0  0
    6.6135   -0.4458   19.7680 N   0  0  0  0  0  0  0  0  0  0  0  0
    8.4964   -0.2224   21.9158 N   0  0  0  0  0  0  0  0  0  0  0  0
    7.8611   -5.5185   28.8529 N   0  0  0  0  0  0  0  0  0  0  0  0
    5.4667   -1.8629   18.3286 O   0  0  0  0  0  0  0  0  0  0  0  0
    7.2651   -3.8674   26.9726 O   0  0  0  0  0  0  0  0  0  0  0  0
    7.9844   -6.2163   26.3801 O   0  0  0  0  0  0  0  0  0  0  0  0
    8.0703   -5.0451   27.2301 S   0  0  0  0  0  0  0  0  0  0  0  0
    8.6325    0.7611   27.4561 Cl  0  0  0  0  0  0  0  0  0  0  0  0
   10.3150   -2.8426   23.5115 H   0  0  0  0  0  0  0  0  0  0  0  0
    9.0378    1.0730   24.7058 H   0  0  0  0  0  0  0  0  0  0  0  0
    9.8766   -4.7048   25.1338 H   0  0  0  0  0  0  0  0  0  0  0  0
   11.3525   -4.1062   25.9013 H   0  0  0  0  0  0  0  0  0  0  0  0
    9.7616   -1.4148   28.7392 H   0  0  0  0  0  0  0  0  0  0  0  0
    8.2619   -2.2370   28.2837 H   0  0  0  0  0  0  0  0  0  0  0  0
   11.0972   -3.3258   28.4578 H   0  0  0  0  0  0  0  0  0  0  0  0
    9.6733   -3.8543   29.3468 H   0  0  0  0  0  0  0  0  0  0  0  0
    6.5422    1.3713   20.7592 H   0  0  0  0  0  0  0  0  0  0  0  0
    7.3424    1.4693   19.1924 H   0  0  0  0  0  0  0  0  0  0  0  0
    6.2244   -2.3700   20.5527 H   0  0  0  0  0  0  0  0  0  0  0  0
    5.8580   -1.0065   21.6123 H   0  0  0  0  0  0  0  0  0  0  0  0
    9.3053    0.2625   20.0127 H   0  0  0  0  0  0  0  0  0  0  0  0
    8.9577    1.6452   21.0583 H   0  0  0  0  0  0  0  0  0  0  0  0
    7.8608   -2.1682   22.4125 H   0  0  0  0  0  0  0  0  0  0  0  0
    8.6404   -2.0434   20.8303 H   0  0  0  0  0  0  0  0  0  0  0  0
   10.3137   -5.4567   27.5465 H   0  0  0  0  0  0  0  0  0  0  0  0
    6.8102    0.2374   16.8902 H   0  0  0  0  0  0  0  0  0  0  0  0
    5.9109    1.2848   18.0101 H   0  0  0  0  0  0  0  0  0  0  0  0
    5.0333    0.1932   16.9230 H   0  0  0  0  0  0  0  0  0  0  0  0
   10.3079    0.6046   22.5038 H   0  0  0  0  0  0  0  0  0  0  0  0
   10.3903   -1.0680   21.9492 H   0  0  0  0  0  0  0  0  0  0  0  0
    7.2803   -4.9226   29.4556 H   0  0  0  0  0  0  0  0  0  0  0  0
    7.7703   -6.5223   29.0520 H   0  0  0  0  0  0  0  0  0  0  0  0
  1  3  1  0  0  0  0
  1  5  2  0  0  0  0
  2  5  1  0  0  0  0
  2  6  2  0  0  0  0
  3  4  2  0  0  0  0
  3  8  1  0  0  0  0
  4  6  1  0  0  0  0
  4  9  1  0  0  0  0
  5 17  1  0  0  0  0
  6 25  1  0  0  0  0
  7 16  1  0  0  0  0
  7 18  1  0  0  0  0
  7 21  2  0  0  0  0
  8 15  1  0  0  0  0
  9 10  1  0  0  0  0
 10 15  1  0  0  0  0
 11 13  1  0  0  0  0
 11 18  1  0  0  0  0
 12 14  1  0  0  0  0
 12 18  1  0  0  0  0
 13 19  1  0  0  0  0
 14 19  1  0  0  0  0
 15 24  1  6  0  0  0
 17 19  1  0  0  0  0
 20 24  1  0  0  0  0
 22 24  2  0  0  0  0
 23 24  2  0  0  0  0
  1 26  1  0  0  0  0
  2 27  1  0  0  0  0
  8 28  1  0  0  0  0
  8 29  1  0  0  0  0
  9 30  1  0  0  0  0
  9 31  1  0  0  0  0
 10 32  1  0  0  0  0
 10 33  1  0  0  0  0
 11 34  1  0  0  0  0
 11 35  1  0  0  0  0
 12 36  1  0  0  0  0
 12 37  1  0  0  0  0
 13 38  1  0  0  0  0
 13 39  1  0  0  0  0
 14 40  1  0  0  0  0
 14 41  1  0  0  0  0
 15 42  1  0  0  0  0
 16 43  1  0  0  0  0
 16 44  1  0  0  0  0
 16 45  1  0  0  0  0
 17 46  1  0  0  0  0
 17 47  1  0  0  0  0
 20 48  1  0  0  0  0
 20 49  1  0  0  0  0
M  END
> <Chemgauss4 Score>
-6.09450769424438

> <Number of Confs>
200

$$$$
TRY-UNI-714-1
  -OEChem-03242005443D

 39 40  0     0  0  0  0  0  0999 V2000
    8.7030   -4.9914   28.0465 C   0  0  0  0  0  0  0  0  0  0  0  0
    8.7221   -2.7592   27.5032 C   0  0  0  0  0  0  0  0  0  0  0  0
    8.9078   -4.3671   25.7607 C   0  0  0  0  0  0  0  0  0  0  0  0
    8.8323   -5.3706   26.7201 C   0  0  0  0  0  0  0  0  0  0  0  0
    8.8525   -3.0339   26.1514 C   0  0  0  0  0  0  0  0  0  0  0  0
    9.4408   -0.6983   25.4157 C   0  0  0  0  0  0  0  0  0  0  0  0
   13.0221   -1.3935   22.3977 C   0  0  0  0  0  0  0  0  0  0  0  0
   13.0863   -0.1215   23.2374 C   0  0  0  0  0  0  0  0  0  0  0  0
   11.7507   -1.4468   21.5564 C   0  0  0  0  0  0  0  0  0  0  0  0
   11.8372    0.0482   24.0992 C   0  0  0  0  0  0  0  0  0  0  0  0
   10.4993   -1.2791   22.4153 C   0  0  0  0  0  0  0  0  0  0  0  0
   10.5563    0.0041   23.2551 C   0  0  0  0  0  0  0  0  0  0  0  0
    9.0485   -4.7201   24.3131 C   0  0  0  0  0  0  0  0  0  0  0  0
    9.3199    0.1221   24.1444 C   0  0  0  0  0  0  0  0  0  0  0  0
    8.6457   -3.7070   28.4642 N   0  0  0  0  0  0  0  0  0  0  0  0
    8.8835   -6.7330   26.3746 N   0  0  0  0  0  0  0  0  0  0  0  0
    8.9242   -1.9752   25.2150 N   0  0  0  0  0  0  0  0  0  0  0  0
    9.9337   -0.2466   26.4441 O   0  0  0  0  0  0  0  0  0  0  0  0
    8.6390   -5.7290   28.8411 H   0  0  0  0  0  0  0  0  0  0  0  0
    8.6727   -1.7383   27.8701 H   0  0  0  0  0  0  0  0  0  0  0  0
   13.8996   -1.4480   21.7435 H   0  0  0  0  0  0  0  0  0  0  0  0
   13.0592   -2.2685   23.0582 H   0  0  0  0  0  0  0  0  0  0  0  0
   13.9754   -0.1479   23.8777 H   0  0  0  0  0  0  0  0  0  0  0  0
   13.1943    0.7475   22.5767 H   0  0  0  0  0  0  0  0  0  0  0  0
   11.7811   -0.6550   20.7978 H   0  0  0  0  0  0  0  0  0  0  0  0
   11.7045   -2.4012   21.0197 H   0  0  0  0  0  0  0  0  0  0  0  0
   11.8124   -0.7452   24.8573 H   0  0  0  0  0  0  0  0  0  0  0  0
   11.8970    1.0007   24.6393 H   0  0  0  0  0  0  0  0  0  0  0  0
    9.6150   -1.2633   21.7670 H   0  0  0  0  0  0  0  0  0  0  0  0
   10.3947   -2.1516   23.0731 H   0  0  0  0  0  0  0  0  0  0  0  0
   10.5634    0.8637   22.5716 H   0  0  0  0  0  0  0  0  0  0  0  0
    8.0603   -4.8237   23.8528 H   0  0  0  0  0  0  0  0  0  0  0  0
    9.6096   -3.9491   23.7731 H   0  0  0  0  0  0  0  0  0  0  0  0
    9.5952   -5.6620   24.1894 H   0  0  0  0  0  0  0  0  0  0  0  0
    8.4450   -0.2187   23.5849 H   0  0  0  0  0  0  0  0  0  0  0  0
    9.1728    1.1714   24.4127 H   0  0  0  0  0  0  0  0  0  0  0  0
    8.8733   -7.4249   27.0991 H   0  0  0  0  0  0  0  0  0  0  0  0
    9.0245   -6.9924   25.4171 H   0  0  0  0  0  0  0  0  0  0  0  0
    8.5514   -2.1855   24.2914 H   0  0  0  0  0  0  0  0  0  0  0  0
  1  4  2  0  0  0  0
  1 15  1  0  0  0  0
  2  5  1  0  0  0  0
  2 15  2  0  0  0  0
  3  4  1  0  0  0  0
  3  5  2  0  0  0  0
  3 13  1  0  0  0  0
  4 16  1  0  0  0  0
  5 17  1  0  0  0  0
  6 14  1  0  0  0  0
  6 17  1  0  0  0  0
  6 18  2  0  0  0  0
  7  8  1  0  0  0  0
  7  9  1  0  0  0  0
  8 10  1  0  0  0  0
  9 11  1  0  0  0  0
 10 12  1  0  0  0  0
 11 12  1  0  0  0  0
 12 14  1  0  0  0  0
  1 19  1  0  0  0  0
  2 20  1  0  0  0  0
  7 21  1  0  0  0  0
  7 22  1  0  0  0  0
  8 23  1  0  0  0  0
  8 24  1  0  0  0  0
  9 25  1  0  0  0  0
  9 26  1  0  0  0  0
 10 27  1  0  0  0  0
 10 28  1  0  0  0  0
 11 29  1  0  0  0  0
 11 30  1  0  0  0  0
 12 31  1  0  0  0  0
 13 32  1  0  0  0  0
 13 33  1  0  0  0  0
 13 34  1  0  0  0  0
 14 35  1  0  0  0  0
 14 36  1  0  0  0  0
 16 37  1  0  0  0  0
 16 38  1  0  0  0  0
 17 39  1  0  0  0  0
M  END
> <Chemgauss4 Score>
-6.08684635162354

> <Number of Confs>
39

$$$$
DAR-DIA-842-21
  -OEChem-03242005443D

 31 33  0     0  0  0  0  0  0999 V2000
   11.4674    0.1899   22.8581 C   0  0  0  0  0  0  0  0  0  0  0  0
   11.0371   -0.2255   24.1169 C   0  0  0  0  0  0  0  0  0  0  0  0
   10.5036   -2.4246   25.4306 C   0  0  0  0  0  0  0  0  0  0  0  0
   11.7360   -0.7717   21.8932 C   0  0  0  0  0  0  0  0  0  0  0  0
    4.5105   -4.0901   24.9049 C   0  0  0  0  0  0  0  0  0  0  0  0
   10.8983   -1.6050   24.3402 C   0  0  0  0  0  0  0  0  0  0  0  0
   10.5768   -3.7362   25.0135 C   0  0  0  0  0  0  0  0  0  0  0  0
    4.6599   -5.4422   25.0891 C   0  0  0  0  0  0  0  0  0  0  0  0
   11.2020   -2.4585   23.2836 C   0  0  0  0  0  0  0  0  0  0  0  0
    6.5585   -4.4634   25.2040 C   0  0  0  0  0  0  0  0  0  0  0  0
    8.8320   -5.4697   25.6082 C   0  0  0  0  0  0  0  0  0  0  0  0
    3.7464   -6.5886   25.1167 C   0  0  0  0  0  0  0  0  0  0  0  0
   10.2835   -4.9911   25.7311 C   0  0  0  0  0  0  0  0  0  0  0  0
   11.6204   -2.1107   22.0520 N   0  0  0  0  0  0  0  0  0  0  0  0
    5.7305   -3.4681   24.9798 N   0  0  0  0  0  0  0  0  0  0  0  0
   11.0017   -3.7449   23.7102 N   0  0  0  0  0  0  0  0  0  0  0  0
    7.9628   -4.4079   25.3708 N   0  0  0  0  0  0  0  0  0  0  0  0
    8.5422   -6.6568   25.7176 O   0  0  0  0  0  0  0  0  0  0  0  0
    5.9841   -5.6949   25.2838 O   0  0  0  0  0  0  0  0  0  0  0  0
   11.5900    1.2449   22.6384 H   0  0  0  0  0  0  0  0  0  0  0  0
   10.8196    0.4994   24.8948 H   0  0  0  0  0  0  0  0  0  0  0  0
   10.1997   -2.0930   26.4144 H   0  0  0  0  0  0  0  0  0  0  0  0
   12.0728   -0.4655   20.9062 H   0  0  0  0  0  0  0  0  0  0  0  0
    3.6016   -3.5353   24.7244 H   0  0  0  0  0  0  0  0  0  0  0  0
    3.6179   -7.0312   24.1113 H   0  0  0  0  0  0  0  0  0  0  0  0
    4.1001   -7.3963   25.7863 H   0  0  0  0  0  0  0  0  0  0  0  0
    2.7381   -6.3182   25.4859 H   0  0  0  0  0  0  0  0  0  0  0  0
   10.9324   -5.8160   25.3750 H   0  0  0  0  0  0  0  0  0  0  0  0
   10.5079   -4.8934   26.8120 H   0  0  0  0  0  0  0  0  0  0  0  0
   11.1460   -4.5716   23.1467 H   0  0  0  0  0  0  0  0  0  0  0  0
    8.3867   -3.4845   25.3102 H   0  0  0  0  0  0  0  0  0  0  0  0
  1  2  2  0  0  0  0
  1  4  1  0  0  0  0
  2  6  1  0  0  0  0
  3  6  1  0  0  0  0
  3  7  2  0  0  0  0
  4 14  2  0  0  0  0
  5  8  2  0  0  0  0
  5 15  1  0  0  0  0
  6  9  2  0  0  0  0
  7 13  1  0  0  0  0
  7 16  1  0  0  0  0
  8 12  1  0  0  0  0
  8 19  1  0  0  0  0
  9 14  1  0  0  0  0
  9 16  1  0  0  0  0
 10 15  2  0  0  0  0
 10 17  1  0  0  0  0
 10 19  1  0  0  0  0
 11 13  1  0  0  0  0
 11 17  1  0  0  0  0
 11 18  2  0  0  0  0
  1 20  1  0  0  0  0
  2 21  1  0  0  0  0
  3 22  1  0  0  0  0
  4 23  1  0  0  0  0
  5 24  1  0  0  0  0
 12 25  1  0  0  0  0
 12 26  1  0  0  0  0
 12 27  1  0  0  0  0
 13 28  1  0  0  0  0
 13 29  1  0  0  0  0
 16 30  1  0  0  0  0
 17 31  1  0  0  0  0
M  END
> <Chemgauss4 Score>
-6.06421232223511

> <Number of Confs>
59

$$$$
KIM-UNI-60f-10
  -OEChem-03242005443D

 43 45  0     1  0  0  0  0  0999 V2000
   12.9643   -0.8073   22.7588 C   0  0  0  0  0  0  0  0  0  0  0  0
   12.7336    0.3744   23.4444 C   0  0  0  0  0  0  0  0  0  0  0  0
   10.5976   -0.2616   24.0021 C   0  0  0  0  0  0  0  0  0  0  0  0
   11.9373   -1.7434   22.7115 C   0  0  0  0  0  0  0  0  0  0  0  0
   10.7281   -1.4730   23.3424 C   0  0  0  0  0  0  0  0  0  0  0  0
    7.4014   -4.0711   23.2548 C   0  0  0  0  0  0  0  0  0  0  0  0
    7.5418   -3.1737   22.2794 C   0  0  0  0  0  0  0  0  0  0  0  0
    8.3791   -4.2305   24.3159 C   0  0  0  0  0  0  0  0  0  0  0  0
    9.4611   -3.4082   24.3103 C   0  0  0  0  0  0  0  0  0  0  0  0
    8.7052   -2.2585   22.2685 C   0  0  0  0  0  0  0  0  0  0  0  0
    6.3117   -5.1444   27.6496 C   0  0  0  0  0  0  0  0  0  0  0  0
   10.5640   -3.6366   25.3310 C   0  0  0  0  0  0  0  0  0  0  0  0
   10.5427   -5.0433   25.9252 C   0  0  0  0  0  0  0  0  0  0  0  0
    9.1419   -5.4119   26.3855 C   0  0  0  0  0  0  0  0  0  0  0  0
   12.1585   -3.0259   21.9786 C   0  0  0  0  0  0  0  0  0  0  0  0
    5.8941   -5.4014   26.2129 C   0  0  0  0  0  0  0  0  0  0  0  0
    6.9828   -6.0584   25.3758 C   0  0  0  0  0  0  0  0  0  0  0  0
   11.5726    0.6725   24.0695 N   0  0  0  0  0  0  0  0  0  0  0  0
    9.6329   -2.4109   23.3227 N   0  0  0  0  0  0  0  0  0  0  0  0
    8.1866   -5.2326   25.2869 N   0  0  3  0  0  0  0  0  0  0  0  0
    6.2623   -3.8060   27.9769 N   0  0  0  0  0  0  0  0  0  0  0  0
    8.7515   -1.4122   21.3746 O   0  0  0  0  0  0  0  0  0  0  0  0
    6.6453   -6.0255   28.4364 O   0  0  0  0  0  0  0  0  0  0  0  0
   13.9192   -0.9874   22.2769 H   0  0  0  0  0  0  0  0  0  0  0  0
   13.5024    1.1372   23.5106 H   0  0  0  0  0  0  0  0  0  0  0  0
    9.6781    0.0070   24.5139 H   0  0  0  0  0  0  0  0  0  0  0  0
    6.5063   -4.6832   23.2540 H   0  0  0  0  0  0  0  0  0  0  0  0
    6.8269   -3.1025   21.4678 H   0  0  0  0  0  0  0  0  0  0  0  0
   11.5317   -3.4489   24.8494 H   0  0  0  0  0  0  0  0  0  0  0  0
   10.4729   -2.9324   26.1663 H   0  0  0  0  0  0  0  0  0  0  0  0
   10.8943   -5.7653   25.1795 H   0  0  0  0  0  0  0  0  0  0  0  0
   11.2373   -5.0997   26.7735 H   0  0  0  0  0  0  0  0  0  0  0  0
    9.1111   -6.4555   26.7208 H   0  0  0  0  0  0  0  0  0  0  0  0
    8.8785   -4.7799   27.2417 H   0  0  0  0  0  0  0  0  0  0  0  0
   12.5689   -3.7841   22.6554 H   0  0  0  0  0  0  0  0  0  0  0  0
   11.2213   -3.4065   21.5542 H   0  0  0  0  0  0  0  0  0  0  0  0
   12.8555   -2.8893   21.1425 H   0  0  0  0  0  0  0  0  0  0  0  0
    5.5870   -4.4500   25.7617 H   0  0  0  0  0  0  0  0  0  0  0  0
    5.0174   -6.0596   26.2401 H   0  0  0  0  0  0  0  0  0  0  0  0
    7.2767   -7.0284   25.7896 H   0  0  0  0  0  0  0  0  0  0  0  0
    6.6285   -6.2137   24.3520 H   0  0  0  0  0  0  0  0  0  0  0  0
    5.9675   -3.1401   27.2704 H   0  0  0  0  0  0  0  0  0  0  0  0
    6.5104   -3.4631   28.8995 H   0  0  0  0  0  0  0  0  0  0  0  0
  1  2  2  0  0  0  0
  1  4  1  0  0  0  0
  2 18  1  0  0  0  0
  3  5  1  0  0  0  0
  3 18  2  0  0  0  0
  4  5  2  0  0  0  0
  4 15  1  0  0  0  0
  5 19  1  0  0  0  0
  6  7  2  0  0  0  0
  6  8  1  0  0  0  0
  7 10  1  0  0  0  0
  8  9  2  0  0  0  0
  8 20  1  0  0  0  0
  9 12  1  0  0  0  0
  9 19  1  0  0  0  0
 10 19  1  0  0  0  0
 10 22  2  0  0  0  0
 11 16  1  0  0  0  0
 11 21  1  0  0  0  0
 11 23  2  0  0  0  0
 12 13  1  0  0  0  0
 13 14  1  0  0  0  0
 14 20  1  0  0  0  0
 16 17  1  0  0  0  0
 17 20  1  1  0  0  0
  1 24  1  0  0  0  0
  2 25  1  0  0  0  0
  3 26  1  0  0  0  0
  6 27  1  0  0  0  0
  7 28  1  0  0  0  0
 12 29  1  0  0  0  0
 12 30  1  0  0  0  0
 13 31  1  0  0  0  0
 13 32  1  0  0  0  0
 14 33  1  0  0  0  0
 14 34  1  0  0  0  0
 15 35  1  0  0  0  0
 15 36  1  0  0  0  0
 15 37  1  0  0  0  0
 16 38  1  0  0  0  0
 16 39  1  0  0  0  0
 17 40  1  0  0  0  0
 17 41  1  0  0  0  0
 21 42  1  0  0  0  0
 21 43  1  0  0  0  0
M  END
> <Chemgauss4 Score>
-6.05218362808228

> <Number of Confs>
40

$$$$
AMD-U.A-3d2-2
  -OEChem-03242005443D

 25 26  0     0  0  0  0  0  0999 V2000
    8.3788   -2.5119   23.1897 C   0  0  0  0  0  0  0  0  0  0  0  0
    7.3265   -4.3374   24.4399 C   0  0  0  0  0  0  0  0  0  0  0  0
    9.5079   -1.7520   22.8829 C   0  0  0  0  0  0  0  0  0  0  0  0
    7.4183   -5.3773   25.3654 C   0  0  0  0  0  0  0  0  0  0  0  0
   10.8159   -3.0708   24.4248 C   0  0  0  0  0  0  0  0  0  0  0  0
    9.7637   -4.8964   25.6749 C   0  0  0  0  0  0  0  0  0  0  0  0
    8.4528   -3.5623   24.1189 C   0  0  0  0  0  0  0  0  0  0  0  0
    9.6896   -3.8460   24.7457 C   0  0  0  0  0  0  0  0  0  0  0  0
   10.7241   -2.0309   23.4992 C   0  0  0  0  0  0  0  0  0  0  0  0
    8.6345   -5.6563   25.9817 C   0  0  0  0  0  0  0  0  0  0  0  0
   11.9002   -1.2383   23.1765 C   0  0  0  0  0  0  0  0  0  0  0  0
   13.8024   -0.9882   21.7308 N   0  0  0  0  0  0  0  0  0  0  0  0
   12.6817   -1.7017   22.1149 N   0  0  0  0  0  0  0  0  0  0  0  0
   12.1942   -0.1953   23.7828 O   0  0  0  0  0  0  0  0  0  0  0  0
    8.7230   -6.6708   26.8848 O   0  0  0  0  0  0  0  0  0  0  0  0
    7.4383   -2.2766   22.6958 H   0  0  0  0  0  0  0  0  0  0  0  0
    6.3660   -4.1377   23.9695 H   0  0  0  0  0  0  0  0  0  0  0  0
    9.4259   -0.9443   22.1600 H   0  0  0  0  0  0  0  0  0  0  0  0
    6.5362   -5.9667   25.6004 H   0  0  0  0  0  0  0  0  0  0  0  0
   11.7731   -3.2796   24.9005 H   0  0  0  0  0  0  0  0  0  0  0  0
   10.7074   -5.1264   26.1663 H   0  0  0  0  0  0  0  0  0  0  0  0
   13.8908   -1.0998   20.7216 H   0  0  0  0  0  0  0  0  0  0  0  0
   13.5922   -0.0034   21.8869 H   0  0  0  0  0  0  0  0  0  0  0  0
   12.4287   -2.5555   21.6293 H   0  0  0  0  0  0  0  0  0  0  0  0
    9.6293   -6.7404   27.2247 H   0  0  0  0  0  0  0  0  0  0  0  0
  1  3  2  0  0  0  0
  1  7  1  0  0  0  0
  2  4  2  0  0  0  0
  2  7  1  0  0  0  0
  3  9  1  0  0  0  0
  4 10  1  0  0  0  0
  5  8  1  0  0  0  0
  5  9  2  0  0  0  0
  6  8  1  0  0  0  0
  6 10  2  0  0  0  0
  7  8  2  0  0  0  0
  9 11  1  0  0  0  0
 10 15  1  0  0  0  0
 11 13  1  0  0  0  0
 11 14  2  0  0  0  0
 12 13  1  0  0  0  0
  1 16  1  0  0  0  0
  2 17  1  0  0  0  0
  3 18  1  0  0  0  0
  4 19  1  0  0  0  0
  5 20  1  0  0  0  0
  6 21  1  0  0  0  0
 12 22  1  0  0  0  0
 12 23  1  0  0  0  0
 13 24  1  0  0  0  0
 15 25  1  0  0  0  0
M  END
> <Chemgauss4 Score>
-6.04354906082153

> <Number of Confs>
3

$$$$
AGN-NEW-891-3
  -OEChem-03242005443D

 30 31  0     0  0  0  0  0  0999 V2000
   13.2213   -1.3610   22.0028 C   0  0  0  0  0  0  0  0  0  0  0  0
   11.8402   -1.2000   22.0014 C   0  0  0  0  0  0  0  0  0  0  0  0
    9.8367   -4.2220   24.8259 C   0  0  0  0  0  0  0  0  0  0  0  0
    8.4645   -3.2729   26.5732 C   0  0  0  0  0  0  0  0  0  0  0  0
    8.6119   -5.6712   26.3214 C   0  0  0  0  0  0  0  0  0  0  0  0
   13.9609   -0.6090   22.9013 C   0  0  0  0  0  0  0  0  0  0  0  0
   12.0772    0.3999   23.7450 C   0  0  0  0  0  0  0  0  0  0  0  0
    9.3302   -3.1062   25.4923 C   0  0  0  0  0  0  0  0  0  0  0  0
   11.2493   -0.3046   22.8859 C   0  0  0  0  0  0  0  0  0  0  0  0
    9.4775   -5.5045   25.2405 C   0  0  0  0  0  0  0  0  0  0  0  0
    8.1053   -4.5554   26.9878 C   0  0  0  0  0  0  0  0  0  0  0  0
    9.7142   -1.7355   25.0479 C   0  0  0  0  0  0  0  0  0  0  0  0
   13.4226    0.2704   23.7755 N   0  0  0  0  0  0  0  0  0  0  0  0
    9.8230   -0.1177   22.9097 N   0  0  0  0  0  0  0  0  0  0  0  0
    7.5619   -0.8350   23.8971 O   0  0  0  0  0  0  0  0  0  0  0  0
    8.9351   -2.5700   22.6932 O   0  0  0  0  0  0  0  0  0  0  0  0
    9.9715   -6.5935   24.5904 O   0  0  0  0  0  0  0  0  0  0  0  0
    8.8590   -1.3929   23.5438 S   0  0  0  0  0  0  0  0  0  0  0  0
    7.0382   -4.7614   28.3222 Cl  0  0  0  0  0  0  0  0  0  0  0  0
   13.7036   -2.0534   21.3226 H   0  0  0  0  0  0  0  0  0  0  0  0
   11.2339   -1.7775   21.3091 H   0  0  0  0  0  0  0  0  0  0  0  0
   10.5098   -4.0946   23.9818 H   0  0  0  0  0  0  0  0  0  0  0  0
    8.0724   -2.3993   27.0894 H   0  0  0  0  0  0  0  0  0  0  0  0
    8.3369   -6.6746   26.6384 H   0  0  0  0  0  0  0  0  0  0  0  0
   15.0415   -0.6982   22.9426 H   0  0  0  0  0  0  0  0  0  0  0  0
   11.6735    1.1114   24.4593 H   0  0  0  0  0  0  0  0  0  0  0  0
   10.7889   -1.6473   24.8521 H   0  0  0  0  0  0  0  0  0  0  0  0
    9.4331   -0.9674   25.7776 H   0  0  0  0  0  0  0  0  0  0  0  0
    9.5349    0.8285   23.1936 H   0  0  0  0  0  0  0  0  0  0  0  0
   10.5552   -6.3167   23.8661 H   0  0  0  0  0  0  0  0  0  0  0  0
  1  2  2  0  0  0  0
  1  6  1  0  0  0  0
  2  9  1  0  0  0  0
  3  8  1  0  0  0  0
  3 10  2  0  0  0  0
  4  8  2  0  0  0  0
  4 11  1  0  0  0  0
  5 10  1  0  0  0  0
  5 11  2  0  0  0  0
  6 13  2  0  0  0  0
  7  9  2  0  0  0  0
  7 13  1  0  0  0  0
  8 12  1  0  0  0  0
  9 14  1  0  0  0  0
 10 17  1  0  0  0  0
 11 19  1  0  0  0  0
 12 18  1  0  0  0  0
 14 18  1  0  0  0  0
 15 18  2  0  0  0  0
 16 18  2  0  0  0  0
  1 20  1  0  0  0  0
  2 21  1  0  0  0  0
  3 22  1  0  0  0  0
  4 23  1  0  0  0  0
  5 24  1  0  0  0  0
  6 25  1  0  0  0  0
  7 26  1  0  0  0  0
 12 27  1  0  0  0  0
 12 28  1  0  0  0  0
 14 29  1  0  0  0  0
 17 30  1  0  0  0  0
M  END
> <Chemgauss4 Score>
-6.0377721786499

> <Number of Confs>
200

$$$$
SAL-INS-1c7-5
  -OEChem-03242005443D

 44 47  0     1  0  0  0  0  0999 V2000
    6.7813    0.7791   21.6836 C   0  0  0  0  0  0  0  0  0  0  0  0
    7.1455    0.5291   23.0067 C   0  0  0  0  0  0  0  0  0  0  0  0
    7.2532   -0.0459   20.6626 C   0  0  0  0  0  0  0  0  0  0  0  0
    6.0317   -6.1887   26.4177 C   0  0  0  0  0  0  0  0  0  0  0  0
    6.3732   -5.5383   25.2318 C   0  0  0  0  0  0  0  0  0  0  0  0
    7.9816   -0.5457   23.3087 C   0  0  0  0  0  0  0  0  0  0  0  0
    8.0893   -1.1207   20.9646 C   0  0  0  0  0  0  0  0  0  0  0  0
    6.8238   -6.0312   27.5506 C   0  0  0  0  0  0  0  0  0  0  0  0
    7.8725   -4.0598   23.9800 C   0  0  0  0  0  0  0  0  0  0  0  0
    9.4556   -3.7413   26.2475 C   0  0  0  0  0  0  0  0  0  0  0  0
    7.5133   -4.7206   25.1651 C   0  0  0  0  0  0  0  0  0  0  0  0
    8.3170   -4.5601   26.3150 C   0  0  0  0  0  0  0  0  0  0  0  0
    8.4535   -1.3707   22.2877 C   0  0  0  0  0  0  0  0  0  0  0  0
    9.8084   -3.0766   25.0624 C   0  0  0  0  0  0  0  0  0  0  0  0
    9.0144   -3.2436   23.9170 C   0  0  0  0  0  0  0  0  0  0  0  0
    7.9594   -5.2223   27.5010 C   0  0  0  0  0  0  0  0  0  0  0  0
   11.9125   -0.2283   23.7394 C   0  0  0  0  0  0  0  0  0  0  0  0
   11.0445   -2.2104   25.0573 C   0  0  0  0  0  0  0  0  0  0  0  0
   10.8477   -2.1343   22.5841 C   0  0  0  0  0  0  0  0  0  0  0  0
    9.3665   -2.5441   22.6167 C   0  0  2  0  0  0  0  0  0  0  0  0
   12.6431    0.0614   22.4517 C   0  0  0  0  0  0  0  0  0  0  0  0
   11.2496   -1.4555   23.8150 N   0  0  0  0  0  0  0  0  0  0  0  0
    8.7277   -5.1033   28.6967 N   0  3  0  0  0  0  0  0  0  0  0  0
    9.6551   -5.9192   28.8998 O   0  5  0  0  0  0  0  0  0  0  0  0
   11.9370    0.6045   24.6489 O   0  0  0  0  0  0  0  0  0  0  0  0
    8.4485   -4.1871   29.5027 O   0  0  0  0  0  0  0  0  0  0  0  0
   13.8723   -1.1860   22.2795 Cl  0  0  0  0  0  0  0  0  0  0  0  0
    6.1292    1.6153   21.4488 H   0  0  0  0  0  0  0  0  0  0  0  0
    6.7773    1.1707   23.8020 H   0  0  0  0  0  0  0  0  0  0  0  0
    6.9689    0.1478   19.6325 H   0  0  0  0  0  0  0  0  0  0  0  0
    5.1472   -6.8179   26.4557 H   0  0  0  0  0  0  0  0  0  0  0  0
    5.7395   -5.6762   24.3581 H   0  0  0  0  0  0  0  0  0  0  0  0
    8.2603   -0.7328   24.3425 H   0  0  0  0  0  0  0  0  0  0  0  0
    8.4522   -1.7580   20.1626 H   0  0  0  0  0  0  0  0  0  0  0  0
    6.5435   -6.5448   28.4673 H   0  0  0  0  0  0  0  0  0  0  0  0
    7.2590   -4.1805   23.0880 H   0  0  0  0  0  0  0  0  0  0  0  0
   10.0935   -3.5996   27.1185 H   0  0  0  0  0  0  0  0  0  0  0  0
   10.9902   -1.5202   25.9038 H   0  0  0  0  0  0  0  0  0  0  0  0
   11.9296   -2.8448   25.1867 H   0  0  0  0  0  0  0  0  0  0  0  0
   11.4810   -3.0278   22.5037 H   0  0  0  0  0  0  0  0  0  0  0  0
   11.0602   -1.5147   21.7054 H   0  0  0  0  0  0  0  0  0  0  0  0
    9.2272   -3.2870   21.7839 H   0  0  0  0  0  0  0  0  0  0  0  0
   13.1096    1.0368   22.5254 H   0  0  0  0  0  0  0  0  0  0  0  0
   11.9391    0.0073   21.6298 H   0  0  0  0  0  0  0  0  0  0  0  0
  1  2  1  0  0  0  0
  1  3  2  0  0  0  0
  2  6  2  0  0  0  0
  3  7  1  0  0  0  0
  4  5  2  0  0  0  0
  4  8  1  0  0  0  0
  5 11  1  0  0  0  0
  6 13  1  0  0  0  0
  7 13  2  0  0  0  0
  8 16  2  0  0  0  0
  9 11  2  0  0  0  0
  9 15  1  0  0  0  0
 10 12  2  0  0  0  0
 10 14  1  0  0  0  0
 11 12  1  0  0  0  0
 12 16  1  0  0  0  0
 13 20  1  1  0  0  0
 14 15  2  0  0  0  0
 14 18  1  0  0  0  0
 15 20  1  0  0  0  0
 16 23  1  0  0  0  0
 17 21  1  0  0  0  0
 17 22  1  0  0  0  0
 17 25  2  0  0  0  0
 18 22  1  0  0  0  0
 19 20  1  0  0  0  0
 19 22  1  0  0  0  0
 21 27  1  0  0  0  0
 23 24  1  0  0  0  0
 23 26  2  0  0  0  0
  1 28  1  0  0  0  0
  2 29  1  0  0  0  0
  3 30  1  0  0  0  0
  4 31  1  0  0  0  0
  5 32  1  0  0  0  0
  6 33  1  0  0  0  0
  7 34  1  0  0  0  0
  8 35  1  0  0  0  0
  9 36  1  0  0  0  0
 10 37  1  0  0  0  0
 18 38  1  0  0  0  0
 18 39  1  0  0  0  0
 19 40  1  0  0  0  0
 19 41  1  0  0  0  0
 20 42  1  0  0  0  0
 21 43  1  0  0  0  0
 21 44  1  0  0  0  0
M  CHG  2  23   1  24  -1
M  END
> <Chemgauss4 Score>
-6.03107118606567

> <Number of Confs>
8

$$$$
JOH-MEM-5e3-5
  -OEChem-03242005443D

 48 51  0     1  0  0  0  0  0999 V2000
   10.8325   -2.6454   22.6675 C   0  0  0  0  0  0  0  0  0  0  0  0
   11.1391   -3.1524   23.9338 C   0  0  0  0  0  0  0  0  0  0  0  0
    9.0409   -2.3308   24.8437 C   0  0  0  0  0  0  0  0  0  0  0  0
    8.7069   -1.8101   23.5798 C   0  0  0  0  0  0  0  0  0  0  0  0
    7.6126   -1.1037   23.0524 C   0  0  0  0  0  0  0  0  0  0  0  0
    9.6122   -1.9779   22.5113 C   0  0  0  0  0  0  0  0  0  0  0  0
   10.2600   -2.9989   25.0046 C   0  0  0  0  0  0  0  0  0  0  0  0
    7.8660   -0.8689   21.7346 C   0  0  0  0  0  0  0  0  0  0  0  0
    6.6195   -5.8580   25.3806 C   0  0  0  0  0  0  0  0  0  0  0  0
    6.9149    0.1632   19.7684 C   0  0  0  0  0  0  0  0  0  0  0  0
    6.3001   -0.5424   23.4565 C   0  0  0  0  0  0  0  0  0  0  0  0
    5.7869    0.0916   22.1099 C   0  0  0  0  0  0  0  0  0  0  0  0
    7.7531   -5.7573   26.3815 C   0  0  2  0  0  0  0  0  0  0  0  0
    7.1339   -5.3817   27.7263 C   0  0  2  0  0  0  0  0  0  0  0  0
    8.2263   -4.9872   28.7244 C   0  0  1  0  0  0  0  0  0  0  0  0
    9.1814   -3.9614   28.1152 C   0  0  1  0  0  0  0  0  0  0  0  0
    9.7135   -4.4817   26.7801 C   0  0  1  0  0  0  0  0  0  0  0  0
    5.7066    0.9188   19.2745 C   0  0  0  0  0  0  0  0  0  0  0  0
    9.0624   -1.3834   21.3816 N   0  0  0  0  0  0  0  0  0  0  0  0
    6.8633   -0.1803   21.1025 N   0  0  0  0  0  0  0  0  0  0  0  0
    6.5118   -5.1774   24.3714 O   0  0  0  0  0  0  0  0  0  0  0  0
    7.8399   -0.0970   18.9982 O   0  0  0  0  0  0  0  0  0  0  0  0
    8.6240   -4.7421   25.8931 O   0  0  0  0  0  0  0  0  0  0  0  0
    5.7311   -6.8099   25.7576 O   0  0  0  0  0  0  0  0  0  0  0  0
    6.4256   -6.5106   28.2377 O   0  0  0  0  0  0  0  0  0  0  0  0
    7.6177   -4.4544   29.8974 O   0  0  0  0  0  0  0  0  0  0  0  0
    8.4804   -2.7377   27.8723 O   0  0  0  0  0  0  0  0  0  0  0  0
   10.5906   -3.5058   26.2262 O   0  0  0  0  0  0  0  0  0  0  0  0
   11.5200   -2.7674   21.8371 H   0  0  0  0  0  0  0  0  0  0  0  0
   12.0823   -3.6747   24.0781 H   0  0  0  0  0  0  0  0  0  0  0  0
    8.3619   -2.2158   25.6843 H   0  0  0  0  0  0  0  0  0  0  0  0
    5.6180   -1.3246   23.8023 H   0  0  0  0  0  0  0  0  0  0  0  0
    6.4117    0.2240   24.2289 H   0  0  0  0  0  0  0  0  0  0  0  0
    4.8543   -0.3713   21.7714 H   0  0  0  0  0  0  0  0  0  0  0  0
    5.6434    1.1734   22.1980 H   0  0  0  0  0  0  0  0  0  0  0  0
    8.2476   -6.7281   26.4183 H   0  0  0  0  0  0  0  0  0  0  0  0
    6.4100   -4.5648   27.6183 H   0  0  0  0  0  0  0  0  0  0  0  0
    8.7810   -5.8819   29.0311 H   0  0  0  0  0  0  0  0  0  0  0  0
    9.9986   -3.7229   28.8044 H   0  0  0  0  0  0  0  0  0  0  0  0
   10.2892   -5.4044   26.9315 H   0  0  0  0  0  0  0  0  0  0  0  0
    5.8762    1.9825   19.4040 H   0  0  0  0  0  0  0  0  0  0  0  0
    4.8367    0.6095   19.8449 H   0  0  0  0  0  0  0  0  0  0  0  0
    5.5516    0.6927   18.2245 H   0  0  0  0  0  0  0  0  0  0  0  0
    9.4926   -1.3503   20.4669 H   0  0  0  0  0  0  0  0  0  0  0  0
    4.9876   -6.8892   25.1226 H   0  0  0  0  0  0  0  0  0  0  0  0
    7.0769   -7.2216   28.3368 H   0  0  0  0  0  0  0  0  0  0  0  0
    8.3395   -4.2182   30.5005 H   0  0  0  0  0  0  0  0  0  0  0  0
    7.7645   -2.9535   27.2573 H   0  0  0  0  0  0  0  0  0  0  0  0
  1  2  2  0  0  0  0
  1  6  1  0  0  0  0
  2  7  1  0  0  0  0
  3  4  1  0  0  0  0
  3  7  2  0  0  0  0
  4  5  1  0  0  0  0
  4  6  2  0  0  0  0
  5  8  2  0  0  0  0
  5 11  1  0  0  0  0
  6 19  1  0  0  0  0
  7 28  1  0  0  0  0
  8 19  1  0  0  0  0
  8 20  1  0  0  0  0
  9 13  1  6  0  0  0
  9 21  2  0  0  0  0
  9 24  1  0  0  0  0
 10 18  1  0  0  0  0
 10 20  1  0  0  0  0
 10 22  2  0  0  0  0
 11 12  1  0  0  0  0
 12 20  1  0  0  0  0
 13 14  1  0  0  0  0
 13 23  1  0  0  0  0
 14 15  1  0  0  0  0
 14 25  1  1  0  0  0
 15 16  1  0  0  0  0
 15 26  1  6  0  0  0
 16 17  1  0  0  0  0
 16 27  1  6  0  0  0
 17 23  1  0  0  0  0
 17 28  1  1  0  0  0
  1 29  1  0  0  0  0
  2 30  1  0  0  0  0
  3 31  1  0  0  0  0
 11 32  1  0  0  0  0
 11 33  1  0  0  0  0
 12 34  1  0  0  0  0
 12 35  1  0  0  0  0
 13 36  1  0  0  0  0
 14 37  1  0  0  0  0
 15 38  1  0  0  0  0
 16 39  1  0  0  0  0
 17 40  1  0  0  0  0
 18 41  1  0  0  0  0
 18 42  1  0  0  0  0
 18 43  1  0  0  0  0
 19 44  1  0  0  0  0
 24 45  1  0  0  0  0
 25 46  1  0  0  0  0
 26 47  1  0  0  0  0
 27 48  1  0  0  0  0
M  END
> <Chemgauss4 Score>
-6.02192449569702

> <Number of Confs>
84

$$$$
CHR-SOS-709-20
  -OEChem-03242005443D

 36 38  0     0  0  0  0  0  0999 V2000
    7.3384   -5.8052   26.4153 C   0  0  0  0  0  0  0  0  0  0  0  0
    8.1681   -6.3934   25.4607 C   0  0  0  0  0  0  0  0  0  0  0  0
    7.7254   -4.6197   27.0403 C   0  0  0  0  0  0  0  0  0  0  0  0
    5.4514   -0.3045   19.1743 C   0  0  0  0  0  0  0  0  0  0  0  0
    6.4043   -0.7120   20.1012 C   0  0  0  0  0  0  0  0  0  0  0  0
    9.3848   -5.7962   25.1311 C   0  0  0  0  0  0  0  0  0  0  0  0
    8.9421   -4.0225   26.7107 C   0  0  0  0  0  0  0  0  0  0  0  0
    9.8041   -2.8095   23.7409 C   0  0  0  0  0  0  0  0  0  0  0  0
   11.0037   -1.2561   22.3322 C   0  0  0  0  0  0  0  0  0  0  0  0
   12.1789   -2.4873   24.0469 C   0  0  0  0  0  0  0  0  0  0  0  0
    5.8913    0.0776   17.9172 C   0  0  0  0  0  0  0  0  0  0  0  0
    8.0860   -0.3240   18.4649 C   0  0  0  0  0  0  0  0  0  0  0  0
    9.8122   -1.8813   22.6998 C   0  0  0  0  0  0  0  0  0  0  0  0
    7.7490   -0.7247   19.7477 C   0  0  0  0  0  0  0  0  0  0  0  0
    9.7718   -4.6107   25.7561 C   0  0  0  0  0  0  0  0  0  0  0  0
   10.9874   -3.1125   24.4145 C   0  0  0  0  0  0  0  0  0  0  0  0
   12.1871   -1.5590   23.0057 C   0  0  0  0  0  0  0  0  0  0  0  0
    8.5788   -1.5667   21.9962 C   0  0  0  0  0  0  0  0  0  0  0  0
    7.1887    0.0783   17.5372 N   0  0  0  0  0  0  0  0  0  0  0  0
    8.7436   -1.1348   20.6710 N   0  0  0  0  0  0  0  0  0  0  0  0
    7.4742   -1.6457   22.5513 O   0  0  0  0  0  0  0  0  0  0  0  0
   10.9803   -4.0182   25.4305 O   0  0  0  0  0  0  0  0  0  0  0  0
   13.6569   -0.7870   22.5537 Cl  0  0  0  0  0  0  0  0  0  0  0  0
    6.3907   -6.2697   26.6717 H   0  0  0  0  0  0  0  0  0  0  0  0
    7.8670   -7.3166   24.9740 H   0  0  0  0  0  0  0  0  0  0  0  0
    7.0787   -4.1622   27.7834 H   0  0  0  0  0  0  0  0  0  0  0  0
    4.3976   -0.2866   19.4280 H   0  0  0  0  0  0  0  0  0  0  0  0
    6.0884   -1.0172   21.0953 H   0  0  0  0  0  0  0  0  0  0  0  0
   10.0272   -6.2602   24.3877 H   0  0  0  0  0  0  0  0  0  0  0  0
    9.2392   -3.1000   27.2021 H   0  0  0  0  0  0  0  0  0  0  0  0
    8.8772   -3.2985   24.0316 H   0  0  0  0  0  0  0  0  0  0  0  0
   11.0070   -0.5331   21.5194 H   0  0  0  0  0  0  0  0  0  0  0  0
   13.0969   -2.7296   24.5772 H   0  0  0  0  0  0  0  0  0  0  0  0
    5.1876    0.4045   17.1587 H   0  0  0  0  0  0  0  0  0  0  0  0
    9.1190   -0.3127   18.1301 H   0  0  0  0  0  0  0  0  0  0  0  0
    9.7010   -1.1133   20.3286 H   0  0  0  0  0  0  0  0  0  0  0  0
  1  2  1  0  0  0  0
  1  3  2  0  0  0  0
  2  6  2  0  0  0  0
  3  7  1  0  0  0  0
  4  5  2  0  0  0  0
  4 11  1  0  0  0  0
  5 14  1  0  0  0  0
  6 15  1  0  0  0  0
  7 15  2  0  0  0  0
  8 13  2  0  0  0  0
  8 16  1  0  0  0  0
  9 13  1  0  0  0  0
  9 17  2  0  0  0  0
 10 16  2  0  0  0  0
 10 17  1  0  0  0  0
 11 19  2  0  0  0  0
 12 14  2  0  0  0  0
 12 19  1  0  0  0  0
 13 18  1  0  0  0  0
 14 20  1  0  0  0  0
 15 22  1  0  0  0  0
 16 22  1  0  0  0  0
 17 23  1  0  0  0  0
 18 20  1  0  0  0  0
 18 21  2  0  0  0  0
  1 24  1  0  0  0  0
  2 25  1  0  0  0  0
  3 26  1  0  0  0  0
  4 27  1  0  0  0  0
  5 28  1  0  0  0  0
  6 29  1  0  0  0  0
  7 30  1  0  0  0  0
  8 31  1  0  0  0  0
  9 32  1  0  0  0  0
 10 33  1  0  0  0  0
 11 34  1  0  0  0  0
 12 35  1  0  0  0  0
 20 36  1  0  0  0  0
M  END
> <Chemgauss4 Score>
-6.00681209564209

> <Number of Confs>
116

$$$$
CHR-SOS-709-18
  -OEChem-03242005443D

 36 38  0     0  0  0  0  0  0999 V2000
    7.3384   -5.8052   26.4153 C   0  0  0  0  0  0  0  0  0  0  0  0
    8.1681   -6.3934   25.4607 C   0  0  0  0  0  0  0  0  0  0  0  0
    7.7254   -4.6197   27.0403 C   0  0  0  0  0  0  0  0  0  0  0  0
    5.4514   -0.3045   19.1743 C   0  0  0  0  0  0  0  0  0  0  0  0
    6.4043   -0.7120   20.1012 C   0  0  0  0  0  0  0  0  0  0  0  0
    9.3848   -5.7962   25.1311 C   0  0  0  0  0  0  0  0  0  0  0  0
    8.9421   -4.0225   26.7107 C   0  0  0  0  0  0  0  0  0  0  0  0
    9.8041   -2.8095   23.7409 C   0  0  0  0  0  0  0  0  0  0  0  0
   11.0037   -1.2561   22.3322 C   0  0  0  0  0  0  0  0  0  0  0  0
   12.1789   -2.4873   24.0469 C   0  0  0  0  0  0  0  0  0  0  0  0
    5.8913    0.0776   17.9172 C   0  0  0  0  0  0  0  0  0  0  0  0
    8.0860   -0.3240   18.4649 C   0  0  0  0  0  0  0  0  0  0  0  0
    9.8122   -1.8813   22.6998 C   0  0  0  0  0  0  0  0  0  0  0  0
    7.7490   -0.7247   19.7477 C   0  0  0  0  0  0  0  0  0  0  0  0
    9.7718   -4.6107   25.7561 C   0  0  0  0  0  0  0  0  0  0  0  0
   10.9874   -3.1125   24.4145 C   0  0  0  0  0  0  0  0  0  0  0  0
   12.1871   -1.5590   23.0057 C   0  0  0  0  0  0  0  0  0  0  0  0
    8.5788   -1.5667   21.9962 C   0  0  0  0  0  0  0  0  0  0  0  0
    7.1887    0.0783   17.5372 N   0  0  0  0  0  0  0  0  0  0  0  0
    8.7436   -1.1348   20.6710 N   0  0  0  0  0  0  0  0  0  0  0  0
    7.4742   -1.6457   22.5513 O   0  0  0  0  0  0  0  0  0  0  0  0
   10.9803   -4.0182   25.4305 O   0  0  0  0  0  0  0  0  0  0  0  0
   13.6569   -0.7870   22.5537 Cl  0  0  0  0  0  0  0  0  0  0  0  0
    6.3907   -6.2697   26.6717 H   0  0  0  0  0  0  0  0  0  0  0  0
    7.8670   -7.3166   24.9740 H   0  0  0  0  0  0  0  0  0  0  0  0
    7.0787   -4.1622   27.7834 H   0  0  0  0  0  0  0  0  0  0  0  0
    4.3976   -0.2866   19.4280 H   0  0  0  0  0  0  0  0  0  0  0  0
    6.0884   -1.0172   21.0953 H   0  0  0  0  0  0  0  0  0  0  0  0
   10.0272   -6.2602   24.3877 H   0  0  0  0  0  0  0  0  0  0  0  0
    9.2392   -3.1000   27.2021 H   0  0  0  0  0  0  0  0  0  0  0  0
    8.8772   -3.2985   24.0316 H   0  0  0  0  0  0  0  0  0  0  0  0
   11.0070   -0.5331   21.5194 H   0  0  0  0  0  0  0  0  0  0  0  0
   13.0969   -2.7296   24.5772 H   0  0  0  0  0  0  0  0  0  0  0  0
    5.1876    0.4045   17.1587 H   0  0  0  0  0  0  0  0  0  0  0  0
    9.1190   -0.3127   18.1301 H   0  0  0  0  0  0  0  0  0  0  0  0
    9.7010   -1.1133   20.3286 H   0  0  0  0  0  0  0  0  0  0  0  0
  1  2  1  0  0  0  0
  1  3  2  0  0  0  0
  2  6  2  0  0  0  0
  3  7  1  0  0  0  0
  4  5  2  0  0  0  0
  4 11  1  0  0  0  0
  5 14  1  0  0  0  0
  6 15  1  0  0  0  0
  7 15  2  0  0  0  0
  8 13  2  0  0  0  0
  8 16  1  0  0  0  0
  9 13  1  0  0  0  0
  9 17  2  0  0  0  0
 10 16  2  0  0  0  0
 10 17  1  0  0  0  0
 11 19  2  0  0  0  0
 12 14  2  0  0  0  0
 12 19  1  0  0  0  0
 13 18  1  0  0  0  0
 14 20  1  0  0  0  0
 15 22  1  0  0  0  0
 16 22  1  0  0  0  0
 17 23  1  0  0  0  0
 18 20  1  0  0  0  0
 18 21  2  0  0  0  0
  1 24  1  0  0  0  0
  2 25  1  0  0  0  0
  3 26  1  0  0  0  0
  4 27  1  0  0  0  0
  5 28  1  0  0  0  0
  6 29  1  0  0  0  0
  7 30  1  0  0  0  0
  8 31  1  0  0  0  0
  9 32  1  0  0  0  0
 10 33  1  0  0  0  0
 11 34  1  0  0  0  0
 12 35  1  0  0  0  0
 20 36  1  0  0  0  0
M  END
> <Chemgauss4 Score>
-6.00681209564209

> <Number of Confs>
116

$$$$
JOR-UNI-2fc-3
  -OEChem-03242005443D

 46 48  0     0  0  0  0  0  0999 V2000
   12.2196   -0.9229   22.6371 C   0  0  0  0  0  0  0  0  0  0  0  0
    7.1823   -6.5952   28.7239 C   0  0  0  0  0  0  0  0  0  0  0  0
   11.5643   -2.0928   23.0212 C   0  0  0  0  0  0  0  0  0  0  0  0
    7.9341   -6.3401   27.5824 C   0  0  0  0  0  0  0  0  0  0  0  0
   12.2116    0.1894   23.4788 C   0  0  0  0  0  0  0  0  0  0  0  0
   10.8928   -1.0380   25.0885 C   0  0  0  0  0  0  0  0  0  0  0  0
    7.1397   -5.6171   29.7044 C   0  0  0  0  0  0  0  0  0  0  0  0
    8.5041   -4.2192   28.4951 C   0  0  0  0  0  0  0  0  0  0  0  0
   10.9009   -2.1504   24.2468 C   0  0  0  0  0  0  0  0  0  0  0  0
    8.6108   -5.1318   27.4580 C   0  0  0  0  0  0  0  0  0  0  0  0
   11.5481    0.1319   24.7044 C   0  0  0  0  0  0  0  0  0  0  0  0
   10.1177   -3.6778   26.0404 C   0  0  0  0  0  0  0  0  0  0  0  0
    6.0509   -3.1619   23.9201 C   0  0  0  0  0  0  0  0  0  0  0  0
    6.1452   -5.5007   22.9898 C   0  0  0  0  0  0  0  0  0  0  0  0
    7.5595   -3.0549   23.6762 C   0  0  0  0  0  0  0  0  0  0  0  0
    7.6504   -5.3060   22.7812 C   0  0  0  0  0  0  0  0  0  0  0  0
    5.3836   -4.1763   22.9929 C   0  0  0  0  0  0  0  0  0  0  0  0
    9.6529   -4.2432   23.5948 C   0  0  0  0  0  0  0  0  0  0  0  0
    7.7835   -4.4315   29.6191 N   0  0  0  0  0  0  0  0  0  0  0  0
    8.2060   -4.3707   23.7686 N   0  0  0  0  0  0  0  0  0  0  0  0
    9.3853   -4.8432   26.3064 N   0  0  0  0  0  0  0  0  0  0  0  0
   10.2191   -3.3670   24.6445 N   0  0  0  0  0  0  0  0  0  0  0  0
   10.5814   -2.9633   26.9313 O   0  0  0  0  0  0  0  0  0  0  0  0
    5.3024   -3.6530   21.6693 O   0  0  0  0  0  0  0  0  0  0  0  0
   11.5381    1.5043   25.7429 Cl  0  0  0  0  0  0  0  0  0  0  0  0
   12.7362   -0.8782   21.6827 H   0  0  0  0  0  0  0  0  0  0  0  0
    6.6466   -7.5301   28.8422 H   0  0  0  0  0  0  0  0  0  0  0  0
   11.5773   -2.9534   22.3569 H   0  0  0  0  0  0  0  0  0  0  0  0
    7.9857   -7.0891   26.7966 H   0  0  0  0  0  0  0  0  0  0  0  0
   12.7268    1.0939   23.1661 H   0  0  0  0  0  0  0  0  0  0  0  0
   10.3747   -1.0865   26.0438 H   0  0  0  0  0  0  0  0  0  0  0  0
    6.5680   -5.7680   30.6142 H   0  0  0  0  0  0  0  0  0  0  0  0
    9.0092   -3.2586   28.4560 H   0  0  0  0  0  0  0  0  0  0  0  0
    5.8585   -3.4367   24.9683 H   0  0  0  0  0  0  0  0  0  0  0  0
    5.5794   -2.1743   23.7902 H   0  0  0  0  0  0  0  0  0  0  0  0
    5.7401   -6.1600   22.2049 H   0  0  0  0  0  0  0  0  0  0  0  0
    5.9647   -6.0343   23.9353 H   0  0  0  0  0  0  0  0  0  0  0  0
    7.7127   -2.6335   22.6753 H   0  0  0  0  0  0  0  0  0  0  0  0
    7.9981   -2.3513   24.3962 H   0  0  0  0  0  0  0  0  0  0  0  0
    8.1567   -6.2790   22.8349 H   0  0  0  0  0  0  0  0  0  0  0  0
    7.8047   -4.9134   21.7687 H   0  0  0  0  0  0  0  0  0  0  0  0
    4.3446   -4.3533   23.3386 H   0  0  0  0  0  0  0  0  0  0  0  0
   10.1251   -5.2291   23.6653 H   0  0  0  0  0  0  0  0  0  0  0  0
    9.8988   -3.8758   22.5930 H   0  0  0  0  0  0  0  0  0  0  0  0
    9.4128   -5.5631   25.5922 H   0  0  0  0  0  0  0  0  0  0  0  0
    4.7733   -2.8409   21.7218 H   0  0  0  0  0  0  0  0  0  0  0  0
  1  3  2  0  0  0  0
  1  5  1  0  0  0  0
  2  4  2  0  0  0  0
  2  7  1  0  0  0  0
  3  9  1  0  0  0  0
  4 10  1  0  0  0  0
  5 11  2  0  0  0  0
  6  9  2  0  0  0  0
  6 11  1  0  0  0  0
  7 19  2  0  0  0  0
  8 10  2  0  0  0  0
  8 19  1  0  0  0  0
  9 22  1  0  0  0  0
 10 21  1  0  0  0  0
 11 25  1  0  0  0  0
 12 21  1  0  0  0  0
 12 22  1  0  0  0  0
 12 23  2  0  0  0  0
 13 15  1  0  0  0  0
 13 17  1  0  0  0  0
 14 16  1  0  0  0  0
 14 17  1  0  0  0  0
 15 20  1  0  0  0  0
 16 20  1  0  0  0  0
 17 24  1  0  0  0  0
 18 20  1  0  0  0  0
 18 22  1  0  0  0  0
  1 26  1  0  0  0  0
  2 27  1  0  0  0  0
  3 28  1  0  0  0  0
  4 29  1  0  0  0  0
  5 30  1  0  0  0  0
  6 31  1  0  0  0  0
  7 32  1  0  0  0  0
  8 33  1  0  0  0  0
 13 34  1  0  0  0  0
 13 35  1  0  0  0  0
 14 36  1  0  0  0  0
 14 37  1  0  0  0  0
 15 38  1  0  0  0  0
 15 39  1  0  0  0  0
 16 40  1  0  0  0  0
 16 41  1  0  0  0  0
 17 42  1  0  0  0  0
 18 43  1  0  0  0  0
 18 44  1  0  0  0  0
 21 45  1  0  0  0  0
 24 46  1  0  0  0  0
M  END
> <Chemgauss4 Score>
-6.00397062301636

> <Number of Confs>
200

$$$$
HEI-REL-0c9-2
  -OEChem-03242005443D

 48 50  0     1  0  0  0  0  0999 V2000
   10.9098   -4.0827   24.6333 C   0  0  0  0  0  0  0  0  0  0  0  0
    9.8029   -4.8414   25.0075 C   0  0  0  0  0  0  0  0  0  0  0  0
    8.3861   -2.9093   24.7101 C   0  0  0  0  0  0  0  0  0  0  0  0
   10.7625   -2.7277   24.3032 C   0  0  0  0  0  0  0  0  0  0  0  0
    9.4859   -2.1317   24.3182 C   0  0  0  0  0  0  0  0  0  0  0  0
    8.5422   -4.2541   25.0500 C   0  0  0  0  0  0  0  0  0  0  0  0
    6.0536    1.0493   18.6440 C   0  0  0  0  0  0  0  0  0  0  0  0
   11.9714   -1.9275   23.8873 C   0  0  0  0  0  0  0  0  0  0  0  0
   11.7292   -0.4286   24.0620 C   0  0  0  0  0  0  0  0  0  0  0  0
    6.9367    1.2080   21.0213 C   0  0  0  0  0  0  0  0  0  0  0  0
    7.4971   -0.7189   19.5938 C   0  0  0  0  0  0  0  0  0  0  0  0
    8.3914    1.2478   21.4929 C   0  0  0  0  0  0  0  0  0  0  0  0
    8.9412   -0.6383   20.0876 C   0  0  0  0  0  0  0  0  0  0  0  0
   10.3919    0.0119   23.4586 C   0  0  1  0  0  0  0  0  0  0  0  0
    4.8087    1.8184   19.0082 C   0  0  0  0  0  0  0  0  0  0  0  0
   10.3759   -0.0480   21.9323 C   0  0  0  0  0  0  0  0  0  0  0  0
    9.3038   -0.7934   23.9929 N   0  0  0  0  0  0  0  0  0  0  0  0
    6.8258    0.5753   19.7036 N   0  0  0  0  0  0  0  0  0  0  0  0
    8.9956   -0.0919   21.4514 N   0  0  0  0  0  0  0  0  0  0  0  0
    6.6389   -5.8121   24.0233 N   0  0  0  0  0  0  0  0  0  0  0  0
    6.3320    0.8793   17.4544 O   0  0  0  0  0  0  0  0  0  0  0  0
    7.6176   -6.3063   26.3564 O   0  0  0  0  0  0  0  0  0  0  0  0
    6.1345   -4.2940   26.0426 O   0  0  0  0  0  0  0  0  0  0  0  0
    7.1551   -5.1986   25.5321 S   0  0  0  0  0  0  0  0  0  0  0  0
   11.8893   -4.5536   24.5949 H   0  0  0  0  0  0  0  0  0  0  0  0
    9.9353   -5.8897   25.2604 H   0  0  0  0  0  0  0  0  0  0  0  0
    7.3968   -2.4568   24.7555 H   0  0  0  0  0  0  0  0  0  0  0  0
   12.8258   -2.2420   24.4991 H   0  0  0  0  0  0  0  0  0  0  0  0
   12.2172   -2.1281   22.8379 H   0  0  0  0  0  0  0  0  0  0  0  0
   11.7629   -0.1788   25.1372 H   0  0  0  0  0  0  0  0  0  0  0  0
   12.5571    0.1386   23.5965 H   0  0  0  0  0  0  0  0  0  0  0  0
    6.3257    0.6149   21.7130 H   0  0  0  0  0  0  0  0  0  0  0  0
    6.5316    2.2218   21.0200 H   0  0  0  0  0  0  0  0  0  0  0  0
    7.4796   -1.0781   18.5597 H   0  0  0  0  0  0  0  0  0  0  0  0
    6.9230   -1.4331   20.1969 H   0  0  0  0  0  0  0  0  0  0  0  0
    8.9572    1.9487   20.8722 H   0  0  0  0  0  0  0  0  0  0  0  0
    8.4051    1.6213   22.5196 H   0  0  0  0  0  0  0  0  0  0  0  0
    9.3581   -1.6484   20.0831 H   0  0  0  0  0  0  0  0  0  0  0  0
    9.5313   -0.0272   19.3986 H   0  0  0  0  0  0  0  0  0  0  0  0
   10.1999    1.0715   23.7585 H   0  0  0  0  0  0  0  0  0  0  0  0
    5.0542    2.8720   19.0919 H   0  0  0  0  0  0  0  0  0  0  0  0
    4.4277    1.4500   19.9553 H   0  0  0  0  0  0  0  0  0  0  0  0
    4.0618    1.6718   18.2347 H   0  0  0  0  0  0  0  0  0  0  0  0
   10.8799    0.8460   21.5671 H   0  0  0  0  0  0  0  0  0  0  0  0
   10.9126   -0.9487   21.6372 H   0  0  0  0  0  0  0  0  0  0  0  0
    8.4857   -0.3168   24.3760 H   0  0  0  0  0  0  0  0  0  0  0  0
    6.7839   -6.8114   23.8343 H   0  0  0  0  0  0  0  0  0  0  0  0
    5.7724   -5.4350   23.6206 H   0  0  0  0  0  0  0  0  0  0  0  0
  1  2  2  0  0  0  0
  1  4  1  0  0  0  0
  2  6  1  0  0  0  0
  3  5  1  0  0  0  0
  3  6  2  0  0  0  0
  4  5  2  0  0  0  0
  4  8  1  0  0  0  0
  5 17  1  0  0  0  0
  6 24  1  0  0  0  0
  7 15  1  0  0  0  0
  7 18  1  0  0  0  0
  7 21  2  0  0  0  0
  8  9  1  0  0  0  0
  9 14  1  0  0  0  0
 10 12  1  0  0  0  0
 10 18  1  0  0  0  0
 11 13  1  0  0  0  0
 11 18  1  0  0  0  0
 12 19  1  0  0  0  0
 13 19  1  0  0  0  0
 14 16  1  1  0  0  0
 14 17  1  0  0  0  0
 16 19  1  0  0  0  0
 20 24  1  0  0  0  0
 22 24  2  0  0  0  0
 23 24  2  0  0  0  0
  1 25  1  0  0  0  0
  2 26  1  0  0  0  0
  3 27  1  0  0  0  0
  8 28  1  0  0  0  0
  8 29  1  0  0  0  0
  9 30  1  0  0  0  0
  9 31  1  0  0  0  0
 10 32  1  0  0  0  0
 10 33  1  0  0  0  0
 11 34  1  0  0  0  0
 11 35  1  0  0  0  0
 12 36  1  0  0  0  0
 12 37  1  0  0  0  0
 13 38  1  0  0  0  0
 13 39  1  0  0  0  0
 14 40  1  0  0  0  0
 15 41  1  0  0  0  0
 15 42  1  0  0  0  0
 15 43  1  0  0  0  0
 16 44  1  0  0  0  0
 16 45  1  0  0  0  0
 17 46  1  0  0  0  0
 20 47  1  0  0  0  0
 20 48  1  0  0  0  0
M  END
> <Chemgauss4 Score>
-6.00144577026367

> <Number of Confs>
52

$$$$
KIM-UNI-60f-7
  -OEChem-03242005443D

 41 43  0     1  0  0  0  0  0999 V2000
   12.8177   -0.9484   22.6341 C   0  0  0  0  0  0  0  0  0  0  0  0
   12.8311    0.0899   23.5515 C   0  0  0  0  0  0  0  0  0  0  0  0
   10.7968   -0.5317   24.4194 C   0  0  0  0  0  0  0  0  0  0  0  0
   11.7220   -1.8044   22.6361 C   0  0  0  0  0  0  0  0  0  0  0  0
   10.6879   -1.5989   23.5425 C   0  0  0  0  0  0  0  0  0  0  0  0
    7.2992   -4.1159   23.4729 C   0  0  0  0  0  0  0  0  0  0  0  0
    7.2964   -3.0135   22.7238 C   0  0  0  0  0  0  0  0  0  0  0  0
    8.3981   -4.4553   24.3585 C   0  0  0  0  0  0  0  0  0  0  0  0
    9.4669   -3.6167   24.3934 C   0  0  0  0  0  0  0  0  0  0  0  0
    8.4596   -2.0981   22.7379 C   0  0  0  0  0  0  0  0  0  0  0  0
    6.1896   -5.7283   26.2645 C   0  0  0  0  0  0  0  0  0  0  0  0
   10.5726   -3.8757   25.4037 C   0  0  0  0  0  0  0  0  0  0  0  0
   10.1228   -4.7613   26.5638 C   0  0  0  0  0  0  0  0  0  0  0  0
    9.4067   -5.9993   26.0496 C   0  0  0  0  0  0  0  0  0  0  0  0
   11.6811   -2.9319   21.6573 C   0  0  0  0  0  0  0  0  0  0  0  0
    7.0989   -6.4245   25.2799 C   0  0  0  0  0  0  0  0  0  0  0  0
   11.8454    0.3211   24.4473 N   0  0  0  0  0  0  0  0  0  0  0  0
    5.3605   -4.8414   25.8057 N   0  0  0  0  0  0  0  0  0  0  0  0
    9.5309   -2.4584   23.5849 N   0  0  0  0  0  0  0  0  0  0  0  0
    8.3093   -5.6129   25.1564 N   0  0  3  0  0  0  0  0  0  0  0  0
    6.2869   -6.0881   27.5831 N   0  0  0  0  0  0  0  0  0  0  0  0
    8.4234   -1.1251   21.9831 O   0  0  0  0  0  0  0  0  0  0  0  0
   13.6405   -1.0811   21.9400 H   0  0  0  0  0  0  0  0  0  0  0  0
   13.6629    0.7855   23.5907 H   0  0  0  0  0  0  0  0  0  0  0  0
   10.0223   -0.3198   25.1507 H   0  0  0  0  0  0  0  0  0  0  0  0
    6.4303   -4.7628   23.4242 H   0  0  0  0  0  0  0  0  0  0  0  0
    6.4608   -2.7695   22.0780 H   0  0  0  0  0  0  0  0  0  0  0  0
   11.4197   -4.3413   24.8848 H   0  0  0  0  0  0  0  0  0  0  0  0
   10.9320   -2.9349   25.8369 H   0  0  0  0  0  0  0  0  0  0  0  0
   10.9915   -5.0533   27.1648 H   0  0  0  0  0  0  0  0  0  0  0  0
    9.4543   -4.1960   27.2263 H   0  0  0  0  0  0  0  0  0  0  0  0
   10.1037   -6.6456   25.5026 H   0  0  0  0  0  0  0  0  0  0  0  0
    9.0317   -6.5675   26.9089 H   0  0  0  0  0  0  0  0  0  0  0  0
   12.1464   -3.8259   22.0882 H   0  0  0  0  0  0  0  0  0  0  0  0
   10.6491   -3.1756   21.3765 H   0  0  0  0  0  0  0  0  0  0  0  0
   12.2111   -2.6730   20.7323 H   0  0  0  0  0  0  0  0  0  0  0  0
    6.6256   -6.5008   24.2976 H   0  0  0  0  0  0  0  0  0  0  0  0
    7.3805   -7.4179   25.6381 H   0  0  0  0  0  0  0  0  0  0  0  0
    4.8131   -4.4664   26.5883 H   0  0  0  0  0  0  0  0  0  0  0  0
    6.9473   -6.7957   27.8867 H   0  0  0  0  0  0  0  0  0  0  0  0
    5.7083   -5.6606   28.2984 H   0  0  0  0  0  0  0  0  0  0  0  0
  1  2  2  0  0  0  0
  1  4  1  0  0  0  0
  2 17  1  0  0  0  0
  3  5  1  0  0  0  0
  3 17  2  0  0  0  0
  4  5  2  0  0  0  0
  4 15  1  0  0  0  0
  5 19  1  0  0  0  0
  6  7  2  0  0  0  0
  6  8  1  0  0  0  0
  7 10  1  0  0  0  0
  8  9  2  0  0  0  0
  8 20  1  0  0  0  0
  9 12  1  0  0  0  0
  9 19  1  0  0  0  0
 10 19  1  0  0  0  0
 10 22  2  0  0  0  0
 11 16  1  0  0  0  0
 11 18  2  0  0  0  0
 11 21  1  0  0  0  0
 12 13  1  0  0  0  0
 13 14  1  0  0  0  0
 14 20  1  0  0  0  0
 16 20  1  1  0  0  0
  1 23  1  0  0  0  0
  2 24  1  0  0  0  0
  3 25  1  0  0  0  0
  6 26  1  0  0  0  0
  7 27  1  0  0  0  0
 12 28  1  0  0  0  0
 12 29  1  0  0  0  0
 13 30  1  0  0  0  0
 13 31  1  0  0  0  0
 14 32  1  0  0  0  0
 14 33  1  0  0  0  0
 15 34  1  0  0  0  0
 15 35  1  0  0  0  0
 15 36  1  0  0  0  0
 16 37  1  0  0  0  0
 16 38  1  0  0  0  0
 18 39  1  0  0  0  0
 21 40  1  0  0  0  0
 21 41  1  0  0  0  0
M  END
> <Chemgauss4 Score>
-5.99012565612793

> <Number of Confs>
10

$$$$
HEI-REL-0c9-1
  -OEChem-03242005443D

 51 53  0     1  0  0  0  0  0999 V2000
   10.4837   -2.0998   26.3705 C   0  0  0  0  0  0  0  0  0  0  0  0
    9.5516   -2.9891   26.8923 C   0  0  0  0  0  0  0  0  0  0  0  0
    8.7208   -3.3896   24.6609 C   0  0  0  0  0  0  0  0  0  0  0  0
   10.5468   -1.8568   24.9866 C   0  0  0  0  0  0  0  0  0  0  0  0
    9.6475   -2.4900   24.0960 C   0  0  0  0  0  0  0  0  0  0  0  0
    8.6719   -3.6364   26.0366 C   0  0  0  0  0  0  0  0  0  0  0  0
    5.8187    1.4166   18.4825 C   0  0  0  0  0  0  0  0  0  0  0  0
   11.5719   -0.8704   24.4866 C   0  0  0  0  0  0  0  0  0  0  0  0
   11.8468   -1.0641   23.0027 C   0  0  0  0  0  0  0  0  0  0  0  0
    6.2747    0.8097   20.9073 C   0  0  0  0  0  0  0  0  0  0  0  0
    7.6019   -0.1855   19.0874 C   0  0  0  0  0  0  0  0  0  0  0  0
    7.5644    1.0011   21.7074 C   0  0  0  0  0  0  0  0  0  0  0  0
    8.8659    0.0304   19.9189 C   0  0  0  0  0  0  0  0  0  0  0  0
   10.5525   -1.1678   22.1945 C   0  0  2  0  0  0  0  0  0  0  0  0
    4.6583    2.2569   18.9528 C   0  0  0  0  0  0  0  0  0  0  0  0
    9.0524   -3.1317   21.7709 C   0  0  0  0  0  0  0  0  0  0  0  0
    9.7766    0.1508   22.1473 C   0  0  0  0  0  0  0  0  0  0  0  0
    9.6963   -2.2371   22.7250 N   0  0  3  0  0  0  0  0  0  0  0  0
    6.5490    0.7546   19.4684 N   0  0  0  0  0  0  0  0  0  0  0  0
    8.5593   -0.0228   21.3558 N   0  0  0  0  0  0  0  0  0  0  0  0
    8.3773   -6.2206   26.6196 N   0  0  0  0  0  0  0  0  0  0  0  0
    6.0696    1.3544   17.2762 O   0  0  0  0  0  0  0  0  0  0  0  0
    7.2510   -4.4143   28.0736 O   0  0  0  0  0  0  0  0  0  0  0  0
    6.3820   -4.8437   25.7481 O   0  0  0  0  0  0  0  0  0  0  0  0
    7.4973   -4.7574   26.6802 S   0  0  0  0  0  0  0  0  0  0  0  0
   11.1692   -1.5941   27.0465 H   0  0  0  0  0  0  0  0  0  0  0  0
    9.5218   -3.1685   27.9632 H   0  0  0  0  0  0  0  0  0  0  0  0
    8.0075   -3.9150   24.0292 H   0  0  0  0  0  0  0  0  0  0  0  0
   11.2079    0.1455   24.6796 H   0  0  0  0  0  0  0  0  0  0  0  0
   12.5126   -0.9926   25.0371 H   0  0  0  0  0  0  0  0  0  0  0  0
   12.4675   -0.2401   22.6313 H   0  0  0  0  0  0  0  0  0  0  0  0
   12.4303   -1.9836   22.8571 H   0  0  0  0  0  0  0  0  0  0  0  0
    5.7932   -0.1384   21.1775 H   0  0  0  0  0  0  0  0  0  0  0  0
    5.5752    1.6100   21.1567 H   0  0  0  0  0  0  0  0  0  0  0  0
    7.8393   -0.0908   18.0227 H   0  0  0  0  0  0  0  0  0  0  0  0
    7.2053   -1.1962   19.2444 H   0  0  0  0  0  0  0  0  0  0  0  0
    7.9597    2.0047   21.5276 H   0  0  0  0  0  0  0  0  0  0  0  0
    7.3199    0.9208   22.7691 H   0  0  0  0  0  0  0  0  0  0  0  0
    9.5757   -0.7615   19.6688 H   0  0  0  0  0  0  0  0  0  0  0  0
    9.3213    0.9883   19.6526 H   0  0  0  0  0  0  0  0  0  0  0  0
   10.8412   -1.4177   21.1648 H   0  0  0  0  0  0  0  0  0  0  0  0
    5.0067    3.2657   19.1477 H   0  0  0  0  0  0  0  0  0  0  0  0
    4.2505    1.8235   19.8604 H   0  0  0  0  0  0  0  0  0  0  0  0
    3.8944    2.2705   18.1820 H   0  0  0  0  0  0  0  0  0  0  0  0
    9.2089   -2.7537   20.7498 H   0  0  0  0  0  0  0  0  0  0  0  0
    9.4882   -4.1378   21.8600 H   0  0  0  0  0  0  0  0  0  0  0  0
    7.9741   -3.1792   21.9830 H   0  0  0  0  0  0  0  0  0  0  0  0
    9.5347    0.4159   23.1741 H   0  0  0  0  0  0  0  0  0  0  0  0
   10.4311    0.8903   21.6916 H   0  0  0  0  0  0  0  0  0  0  0  0
    8.6972   -6.6276   27.5070 H   0  0  0  0  0  0  0  0  0  0  0  0
    8.1039   -6.9187   25.9174 H   0  0  0  0  0  0  0  0  0  0  0  0
  1  2  2  0  0  0  0
  1  4  1  0  0  0  0
  2  6  1  0  0  0  0
  3  5  1  0  0  0  0
  3  6  2  0  0  0  0
  4  5  2  0  0  0  0
  4  8  1  0  0  0  0
  5 18  1  0  0  0  0
  6 25  1  0  0  0  0
  7 15  1  0  0  0  0
  7 19  1  0  0  0  0
  7 22  2  0  0  0  0
  8  9  1  0  0  0  0
  9 14  1  0  0  0  0
 10 12  1  0  0  0  0
 10 19  1  0  0  0  0
 11 13  1  0  0  0  0
 11 19  1  0  0  0  0
 12 20  1  0  0  0  0
 13 20  1  0  0  0  0
 14 17  1  6  0  0  0
 14 18  1  0  0  0  0
 16 18  1  1  0  0  0
 17 20  1  0  0  0  0
 21 25  1  0  0  0  0
 23 25  2  0  0  0  0
 24 25  2  0  0  0  0
  1 26  1  0  0  0  0
  2 27  1  0  0  0  0
  3 28  1  0  0  0  0
  8 29  1  0  0  0  0
  8 30  1  0  0  0  0
  9 31  1  0  0  0  0
  9 32  1  0  0  0  0
 10 33  1  0  0  0  0
 10 34  1  0  0  0  0
 11 35  1  0  0  0  0
 11 36  1  0  0  0  0
 12 37  1  0  0  0  0
 12 38  1  0  0  0  0
 13 39  1  0  0  0  0
 13 40  1  0  0  0  0
 14 41  1  0  0  0  0
 15 42  1  0  0  0  0
 15 43  1  0  0  0  0
 15 44  1  0  0  0  0
 16 45  1  0  0  0  0
 16 46  1  0  0  0  0
 16 47  1  0  0  0  0
 17 48  1  0  0  0  0
 17 49  1  0  0  0  0
 21 50  1  0  0  0  0
 21 51  1  0  0  0  0
M  END
> <Chemgauss4 Score>
-5.97662162780762

> <Number of Confs>
42

$$$$
ELE-IMP-dfb-5
  -OEChem-03242005443D

 44 45  0     0  0  0  0  0  0999 V2000
    9.4407   -1.7009   26.6546 C   0  0  0  0  0  0  0  0  0  0  0  0
    9.9421   -0.8632   25.6517 C   0  0  0  0  0  0  0  0  0  0  0  0
    9.6424   -3.0786   26.6000 C   0  0  0  0  0  0  0  0  0  0  0  0
   11.8399   -1.9502   22.7230 C   0  0  0  0  0  0  0  0  0  0  0  0
   10.6582   -1.4289   24.5781 C   0  0  0  0  0  0  0  0  0  0  0  0
   10.3494   -3.6623   25.5449 C   0  0  0  0  0  0  0  0  0  0  0  0
   11.2912   -0.8981   23.4194 C   0  0  0  0  0  0  0  0  0  0  0  0
   10.8449   -2.8126   24.5495 C   0  0  0  0  0  0  0  0  0  0  0  0
    6.3193   -6.3590   23.4150 C   0  0  0  0  0  0  0  0  0  0  0  0
    7.5168    0.5832   20.0117 C   0  0  0  0  0  0  0  0  0  0  0  0
   10.5472   -5.1413   25.5176 C   0  0  0  0  0  0  0  0  0  0  0  0
   11.3531    0.5240   23.0254 C   0  0  0  0  0  0  0  0  0  0  0  0
    9.2963   -5.9184   25.0907 C   0  0  0  0  0  0  0  0  0  0  0  0
   10.3888    0.9021   21.8864 C   0  0  0  0  0  0  0  0  0  0  0  0
   11.5653   -3.1008   23.4123 N   0  0  0  0  0  0  0  0  0  0  0  0
    8.8649   -5.5734   23.7627 N   0  0  0  0  0  0  0  0  0  0  0  0
    9.0141    0.6708   22.2407 N   0  0  0  0  0  0  0  0  0  0  0  0
    7.2760   -4.2438   22.2063 O   0  0  0  0  0  0  0  0  0  0  0  0
    6.8943   -4.1610   24.6971 O   0  0  0  0  0  0  0  0  0  0  0  0
    6.9014   -0.8255   22.1300 O   0  0  0  0  0  0  0  0  0  0  0  0
    8.9272   -1.4738   20.7764 O   0  0  0  0  0  0  0  0  0  0  0  0
    7.3053   -4.8821   23.5077 S   0  0  0  0  0  0  0  0  0  0  0  0
    8.0640   -0.4571   21.3460 S   0  0  0  0  0  0  0  0  0  0  0  0
    8.8870   -1.2701   27.4848 H   0  0  0  0  0  0  0  0  0  0  0  0
    9.7761    0.2087   25.7095 H   0  0  0  0  0  0  0  0  0  0  0  0
    9.2391   -3.7029   27.3943 H   0  0  0  0  0  0  0  0  0  0  0  0
   12.4008   -1.9850   21.7993 H   0  0  0  0  0  0  0  0  0  0  0  0
    5.2801   -6.0695   23.2512 H   0  0  0  0  0  0  0  0  0  0  0  0
    6.6833   -6.9643   22.5835 H   0  0  0  0  0  0  0  0  0  0  0  0
    6.4216   -6.9008   24.3564 H   0  0  0  0  0  0  0  0  0  0  0  0
    6.8884   -0.0115   19.3468 H   0  0  0  0  0  0  0  0  0  0  0  0
    6.9486    1.4137   20.4333 H   0  0  0  0  0  0  0  0  0  0  0  0
    8.3953    0.9515   19.4798 H   0  0  0  0  0  0  0  0  0  0  0  0
   10.8498   -5.4872   26.5201 H   0  0  0  0  0  0  0  0  0  0  0  0
   11.3872   -5.4079   24.8540 H   0  0  0  0  0  0  0  0  0  0  0  0
   12.3800    0.7841   22.7009 H   0  0  0  0  0  0  0  0  0  0  0  0
   11.1583    1.1905   23.8897 H   0  0  0  0  0  0  0  0  0  0  0  0
    9.4963   -6.9946   25.0880 H   0  0  0  0  0  0  0  0  0  0  0  0
    8.4588   -5.7286   25.7700 H   0  0  0  0  0  0  0  0  0  0  0  0
   10.4756    1.9639   21.6350 H   0  0  0  0  0  0  0  0  0  0  0  0
   10.5999    0.3193   20.9838 H   0  0  0  0  0  0  0  0  0  0  0  0
   11.8510   -4.0272   23.1268 H   0  0  0  0  0  0  0  0  0  0  0  0
    9.1868   -6.2106   23.0021 H   0  0  0  0  0  0  0  0  0  0  0  0
    8.4889    1.5038   22.5851 H   0  0  0  0  0  0  0  0  0  0  0  0
  1  2  2  0  0  0  0
  1  3  1  0  0  0  0
  2  5  1  0  0  0  0
  3  6  2  0  0  0  0
  4  7  2  0  0  0  0
  4 15  1  0  0  0  0
  5  7  1  0  0  0  0
  5  8  2  0  0  0  0
  6  8  1  0  0  0  0
  6 11  1  0  0  0  0
  7 12  1  0  0  0  0
  8 15  1  0  0  0  0
  9 22  1  0  0  0  0
 10 23  1  0  0  0  0
 11 13  1  0  0  0  0
 12 14  1  0  0  0  0
 13 16  1  0  0  0  0
 14 17  1  0  0  0  0
 16 22  1  0  0  0  0
 17 23  1  0  0  0  0
 18 22  2  0  0  0  0
 19 22  2  0  0  0  0
 20 23  2  0  0  0  0
 21 23  2  0  0  0  0
  1 24  1  0  0  0  0
  2 25  1  0  0  0  0
  3 26  1  0  0  0  0
  4 27  1  0  0  0  0
  9 28  1  0  0  0  0
  9 29  1  0  0  0  0
  9 30  1  0  0  0  0
 10 31  1  0  0  0  0
 10 32  1  0  0  0  0
 10 33  1  0  0  0  0
 11 34  1  0  0  0  0
 11 35  1  0  0  0  0
 12 36  1  0  0  0  0
 12 37  1  0  0  0  0
 13 38  1  0  0  0  0
 13 39  1  0  0  0  0
 14 40  1  0  0  0  0
 14 41  1  0  0  0  0
 15 42  1  0  0  0  0
 16 43  1  0  0  0  0
 17 44  1  0  0  0  0
M  END
> <Chemgauss4 Score>
-5.96837282180786

> <Number of Confs>
200

$$$$
GIA-UNK-995-17
  -OEChem-03242005443D

 33 34  0     0  0  0  0  0  0999 V2000
    7.8054   -4.6156   29.3546 C   0  0  0  0  0  0  0  0  0  0  0  0
    7.7095   -3.8917   28.1406 C   0  0  0  0  0  0  0  0  0  0  0  0
    7.7749   -5.9558   29.0378 C   0  0  0  0  0  0  0  0  0  0  0  0
    7.6231   -4.8115   27.1189 C   0  0  0  0  0  0  0  0  0  0  0  0
    7.5064   -4.5656   25.6863 C   0  0  0  0  0  0  0  0  0  0  0  0
   11.3348   -1.8558   23.6653 C   0  0  0  0  0  0  0  0  0  0  0  0
   10.4545   -2.5322   25.8970 C   0  0  0  0  0  0  0  0  0  0  0  0
    8.9031   -1.6057   24.1042 C   0  0  0  0  0  0  0  0  0  0  0  0
    9.9054   -3.9269   25.5952 C   0  0  0  0  0  0  0  0  0  0  0  0
    8.4163   -3.0319   23.8522 C   0  0  0  0  0  0  0  0  0  0  0  0
   10.2955   -1.5553   24.7328 C   0  0  0  0  0  0  0  0  0  0  0  0
   13.0571   -1.1784   21.6413 C   0  0  0  0  0  0  0  0  0  0  0  0
    7.6636   -6.0629   27.6761 N   0  0  0  0  0  0  0  0  0  0  0  0
    8.5437   -3.8438   25.0682 N   0  0  0  0  0  0  0  0  0  0  0  0
    6.5291   -4.9852   25.0641 O   0  0  0  0  0  0  0  0  0  0  0  0
   11.7594   -2.9836   23.4446 O   0  0  0  0  0  0  0  0  0  0  0  0
   14.0586   -1.7617   22.3526 F   0  0  0  0  0  0  0  0  0  0  0  0
   11.8687   -0.4307   22.7745 S   0  0  0  0  0  0  0  0  0  0  0  0
    7.8863   -4.2049   30.3511 H   0  0  0  0  0  0  0  0  0  0  0  0
    7.7044   -2.8161   28.0281 H   0  0  0  0  0  0  0  0  0  0  0  0
    7.8192   -6.8403   29.6575 H   0  0  0  0  0  0  0  0  0  0  0  0
    9.9195   -2.1307   26.7675 H   0  0  0  0  0  0  0  0  0  0  0  0
   11.5087   -2.6165   26.1878 H   0  0  0  0  0  0  0  0  0  0  0  0
    8.8891   -1.0485   23.1597 H   0  0  0  0  0  0  0  0  0  0  0  0
    8.1928   -1.1073   24.7765 H   0  0  0  0  0  0  0  0  0  0  0  0
   10.5206   -4.4302   24.8403 H   0  0  0  0  0  0  0  0  0  0  0  0
    9.9372   -4.5399   26.5015 H   0  0  0  0  0  0  0  0  0  0  0  0
    7.3853   -3.0031   23.4907 H   0  0  0  0  0  0  0  0  0  0  0  0
    9.0137   -3.5169   23.0717 H   0  0  0  0  0  0  0  0  0  0  0  0
   10.5050   -0.5462   25.0680 H   0  0  0  0  0  0  0  0  0  0  0  0
   13.5032   -0.4214   20.9911 H   0  0  0  0  0  0  0  0  0  0  0  0
   12.5809   -1.9526   21.0342 H   0  0  0  0  0  0  0  0  0  0  0  0
    7.6183   -6.9332   27.1637 H   0  0  0  0  0  0  0  0  0  0  0  0
  1  2  1  0  0  0  0
  1  3  2  0  0  0  0
  2  4  2  0  0  0  0
  3 13  1  0  0  0  0
  4  5  1  0  0  0  0
  4 13  1  0  0  0  0
  5 14  1  0  0  0  0
  5 15  2  0  0  0  0
  6 11  1  0  0  0  0
  6 16  2  0  0  0  0
  6 18  1  0  0  0  0
  7  9  1  0  0  0  0
  7 11  1  0  0  0  0
  8 10  1  0  0  0  0
  8 11  1  0  0  0  0
  9 14  1  0  0  0  0
 10 14  1  0  0  0  0
 12 17  1  0  0  0  0
 12 18  1  0  0  0  0
  1 19  1  0  0  0  0
  2 20  1  0  0  0  0
  3 21  1  0  0  0  0
  7 22  1  0  0  0  0
  7 23  1  0  0  0  0
  8 24  1  0  0  0  0
  8 25  1  0  0  0  0
  9 26  1  0  0  0  0
  9 27  1  0  0  0  0
 10 28  1  0  0  0  0
 10 29  1  0  0  0  0
 11 30  1  0  0  0  0
 12 31  1  0  0  0  0
 12 32  1  0  0  0  0
 13 33  1  0  0  0  0
M  END
> <Chemgauss4 Score>
-5.95411777496338

> <Number of Confs>
200

$$$$
CHR-SOS-597-1
  -OEChem-03242005443D

 44 46  0     0  0  0  0  0  0999 V2000
    7.0308   -5.7520   21.7167 C   0  0  0  0  0  0  0  0  0  0  0  0
    7.8383   -4.6351   21.9313 C   0  0  0  0  0  0  0  0  0  0  0  0
    6.3434   -6.3309   22.7835 C   0  0  0  0  0  0  0  0  0  0  0  0
   12.6372   -0.5091   22.0437 C   0  0  0  0  0  0  0  0  0  0  0  0
    7.9585   -4.0972   23.2126 C   0  0  0  0  0  0  0  0  0  0  0  0
    6.4636   -5.7930   24.0648 C   0  0  0  0  0  0  0  0  0  0  0  0
   12.1320   -1.7087   22.5327 C   0  0  0  0  0  0  0  0  0  0  0  0
   12.4410    0.6342   22.8013 C   0  0  0  0  0  0  0  0  0  0  0  0
   11.3122   -0.5300   24.4288 C   0  0  0  0  0  0  0  0  0  0  0  0
    7.2712   -4.6761   24.2794 C   0  0  0  0  0  0  0  0  0  0  0  0
   11.4554   -1.7279   23.7473 C   0  0  0  0  0  0  0  0  0  0  0  0
   10.2343   -3.1081   25.4636 C   0  0  0  0  0  0  0  0  0  0  0  0
    7.6367   -4.8641   28.6747 C   0  0  0  0  0  0  0  0  0  0  0  0
    7.3755   -6.1950   27.9698 C   0  0  0  0  0  0  0  0  0  0  0  0
    8.6931   -4.1416   27.8421 C   0  0  0  0  0  0  0  0  0  0  0  0
    8.2852   -6.2131   26.7435 C   0  0  0  0  0  0  0  0  0  0  0  0
    8.5658   -4.7364   26.4329 C   0  0  0  0  0  0  0  0  0  0  0  0
    7.4005   -4.0972   25.6603 C   0  0  0  0  0  0  0  0  0  0  0  0
    9.8571   -4.5650   25.6304 C   0  0  0  0  0  0  0  0  0  0  0  0
   11.7891    0.6548   23.9855 N   0  0  0  0  0  0  0  0  0  0  0  0
   10.9298   -2.9331   24.2706 N   0  0  0  0  0  0  0  0  0  0  0  0
    9.9436   -2.2496   26.2901 O   0  0  0  0  0  0  0  0  0  0  0  0
    6.9363   -6.1699   20.7187 H   0  0  0  0  0  0  0  0  0  0  0  0
    8.3728   -4.1835   21.1006 H   0  0  0  0  0  0  0  0  0  0  0  0
    5.7137   -7.1999   22.6166 H   0  0  0  0  0  0  0  0  0  0  0  0
   13.1679   -0.4706   21.0992 H   0  0  0  0  0  0  0  0  0  0  0  0
    8.5902   -3.2269   23.3704 H   0  0  0  0  0  0  0  0  0  0  0  0
    5.9244   -6.2508   24.8900 H   0  0  0  0  0  0  0  0  0  0  0  0
   12.2709   -2.6217   21.9598 H   0  0  0  0  0  0  0  0  0  0  0  0
   12.8150    1.5949   22.4631 H   0  0  0  0  0  0  0  0  0  0  0  0
   10.7941   -0.4812   25.3819 H   0  0  0  0  0  0  0  0  0  0  0  0
    6.7238   -4.2660   28.7616 H   0  0  0  0  0  0  0  0  0  0  0  0
    8.0054   -5.0455   29.6908 H   0  0  0  0  0  0  0  0  0  0  0  0
    7.6177   -7.0272   28.6407 H   0  0  0  0  0  0  0  0  0  0  0  0
    6.3238   -6.3038   27.6853 H   0  0  0  0  0  0  0  0  0  0  0  0
    8.4645   -3.0682   27.8301 H   0  0  0  0  0  0  0  0  0  0  0  0
    9.6954   -4.2579   28.2674 H   0  0  0  0  0  0  0  0  0  0  0  0
    9.1961   -6.7942   26.9213 H   0  0  0  0  0  0  0  0  0  0  0  0
    7.7502   -6.6875   25.9107 H   0  0  0  0  0  0  0  0  0  0  0  0
    7.5559   -3.0162   25.6014 H   0  0  0  0  0  0  0  0  0  0  0  0
    6.4718   -4.2464   26.2186 H   0  0  0  0  0  0  0  0  0  0  0  0
    9.7169   -5.0163   24.6483 H   0  0  0  0  0  0  0  0  0  0  0  0
   10.6596   -5.0887   26.1494 H   0  0  0  0  0  0  0  0  0  0  0  0
   11.0852   -3.7602   23.6980 H   0  0  0  0  0  0  0  0  0  0  0  0
  1  2  1  0  0  0  0
  1  3  2  0  0  0  0
  2  5  2  0  0  0  0
  3  6  1  0  0  0  0
  4  7  2  0  0  0  0
  4  8  1  0  0  0  0
  5 10  1  0  0  0  0
  6 10  2  0  0  0  0
  7 11  1  0  0  0  0
  8 20  2  0  0  0  0
  9 11  2  0  0  0  0
  9 20  1  0  0  0  0
 10 18  1  0  0  0  0
 11 21  1  0  0  0  0
 12 19  1  0  0  0  0
 12 21  1  0  0  0  0
 12 22  2  0  0  0  0
 13 14  1  0  0  0  0
 13 15  1  0  0  0  0
 14 16  1  0  0  0  0
 15 17  1  0  0  0  0
 16 17  1  0  0  0  0
 17 18  1  0  0  0  0
 17 19  1  0  0  0  0
  1 23  1  0  0  0  0
  2 24  1  0  0  0  0
  3 25  1  0  0  0  0
  4 26  1  0  0  0  0
  5 27  1  0  0  0  0
  6 28  1  0  0  0  0
  7 29  1  0  0  0  0
  8 30  1  0  0  0  0
  9 31  1  0  0  0  0
 13 32  1  0  0  0  0
 13 33  1  0  0  0  0
 14 34  1  0  0  0  0
 14 35  1  0  0  0  0
 15 36  1  0  0  0  0
 15 37  1  0  0  0  0
 16 38  1  0  0  0  0
 16 39  1  0  0  0  0
 18 40  1  0  0  0  0
 18 41  1  0  0  0  0
 19 42  1  0  0  0  0
 19 43  1  0  0  0  0
 21 44  1  0  0  0  0
M  END
> <Chemgauss4 Score>
-5.94241666793823

> <Number of Confs>
90

$$$$
SAL-INS-1c7-7
  -OEChem-03242005443D

 46 48  0     1  0  0  0  0  0999 V2000
    5.7591   -5.7366   21.9670 C   0  0  0  0  0  0  0  0  0  0  0  0
    5.6352   -5.6770   23.3550 C   0  0  0  0  0  0  0  0  0  0  0  0
    7.0224   -5.6951   21.3771 C   0  0  0  0  0  0  0  0  0  0  0  0
    6.7746   -5.5758   24.1532 C   0  0  0  0  0  0  0  0  0  0  0  0
    8.1618   -5.5938   22.1753 C   0  0  0  0  0  0  0  0  0  0  0  0
    8.6771   -3.1530   28.0122 C   0  0  0  0  0  0  0  0  0  0  0  0
    9.1002   -2.5079   26.8502 C   0  0  0  0  0  0  0  0  0  0  0  0
    8.6507   -5.2611   26.8322 C   0  0  0  0  0  0  0  0  0  0  0  0
    8.0379   -5.5342   23.5634 C   0  0  0  0  0  0  0  0  0  0  0  0
    8.4524   -4.5297   28.0033 C   0  0  0  0  0  0  0  0  0  0  0  0
    9.0738   -4.6159   25.6702 C   0  0  0  0  0  0  0  0  0  0  0  0
    9.2986   -3.2393   25.6792 C   0  0  0  0  0  0  0  0  0  0  0  0
   11.4410   -2.2207   22.7583 C   0  0  0  0  0  0  0  0  0  0  0  0
   11.7488   -1.0262   22.2432 C   0  0  0  0  0  0  0  0  0  0  0  0
    8.7113   -2.0459   23.6240 C   0  0  0  0  0  0  0  0  0  0  0  0
   11.5878   -0.9518   24.8319 C   0  0  0  0  0  0  0  0  0  0  0  0
   11.1535   -2.2939   24.2321 C   0  0  1  0  0  0  0  0  0  0  0  0
    7.9976   -5.2190   29.2453 C   0  0  0  0  0  0  0  0  0  0  0  0
    9.2753   -5.4241   24.4293 C   0  0  0  0  0  0  0  0  0  0  0  0
    7.3823   -1.8066   24.3185 C   0  0  0  0  0  0  0  0  0  0  0  0
    9.7377   -2.5511   24.4840 N   0  0  0  0  0  0  0  0  0  0  0  0
    8.8236   -1.8373   22.4133 O   0  0  0  0  0  0  0  0  0  0  0  0
   12.9798    0.8766   23.5321 O   0  0  0  0  0  0  0  0  0  0  0  0
   10.4536    0.9277   23.3692 O   0  0  0  0  0  0  0  0  0  0  0  0
   11.7021    0.1976   23.4612 S   0  0  0  0  0  0  0  0  0  0  0  0
    6.1834   -1.2092   23.1518 Cl  0  0  0  0  0  0  0  0  0  0  0  0
    4.8719   -5.8168   21.3457 H   0  0  0  0  0  0  0  0  0  0  0  0
    4.6516   -5.7105   23.8146 H   0  0  0  0  0  0  0  0  0  0  0  0
    7.1193   -5.7425   20.2965 H   0  0  0  0  0  0  0  0  0  0  0  0
    6.6684   -5.5298   25.2339 H   0  0  0  0  0  0  0  0  0  0  0  0
    9.1420   -5.5619   21.7070 H   0  0  0  0  0  0  0  0  0  0  0  0
    8.5252   -2.5751   28.9200 H   0  0  0  0  0  0  0  0  0  0  0  0
    9.2732   -1.4347   26.8696 H   0  0  0  0  0  0  0  0  0  0  0  0
    8.4732   -6.3340   26.8264 H   0  0  0  0  0  0  0  0  0  0  0  0
   11.4048   -3.1113   22.1419 H   0  0  0  0  0  0  0  0  0  0  0  0
   11.9801   -0.8271   21.2069 H   0  0  0  0  0  0  0  0  0  0  0  0
   10.9045   -0.5574   25.5886 H   0  0  0  0  0  0  0  0  0  0  0  0
   12.5899   -1.0381   25.2658 H   0  0  0  0  0  0  0  0  0  0  0  0
   11.7126   -3.1153   24.7163 H   0  0  0  0  0  0  0  0  0  0  0  0
    6.9020   -5.2339   29.2944 H   0  0  0  0  0  0  0  0  0  0  0  0
    8.3617   -6.2539   29.2826 H   0  0  0  0  0  0  0  0  0  0  0  0
    8.3795   -4.7154   30.1429 H   0  0  0  0  0  0  0  0  0  0  0  0
    9.6263   -6.4383   24.6846 H   0  0  0  0  0  0  0  0  0  0  0  0
   10.0989   -5.0040   23.8275 H   0  0  0  0  0  0  0  0  0  0  0  0
    7.0098   -2.7432   24.7409 H   0  0  0  0  0  0  0  0  0  0  0  0
    7.4740   -1.0416   25.0931 H   0  0  0  0  0  0  0  0  0  0  0  0
  1  2  1  0  0  0  0
  1  3  2  0  0  0  0
  2  4  2  0  0  0  0
  3  5  1  0  0  0  0
  4  9  1  0  0  0  0
  5  9  2  0  0  0  0
  6  7  2  0  0  0  0
  6 10  1  0  0  0  0
  7 12  1  0  0  0  0
  8 10  2  0  0  0  0
  8 11  1  0  0  0  0
  9 19  1  0  0  0  0
 10 18  1  0  0  0  0
 11 12  2  0  0  0  0
 11 19  1  0  0  0  0
 12 21  1  0  0  0  0
 13 14  2  0  0  0  0
 13 17  1  0  0  0  0
 14 25  1  0  0  0  0
 15 20  1  0  0  0  0
 15 21  1  0  0  0  0
 15 22  2  0  0  0  0
 16 17  1  0  0  0  0
 16 25  1  0  0  0  0
 17 21  1  6  0  0  0
 20 26  1  0  0  0  0
 23 25  2  0  0  0  0
 24 25  2  0  0  0  0
  1 27  1  0  0  0  0
  2 28  1  0  0  0  0
  3 29  1  0  0  0  0
  4 30  1  0  0  0  0
  5 31  1  0  0  0  0
  6 32  1  0  0  0  0
  7 33  1  0  0  0  0
  8 34  1  0  0  0  0
 13 35  1  0  0  0  0
 14 36  1  0  0  0  0
 16 37  1  0  0  0  0
 16 38  1  0  0  0  0
 17 39  1  0  0  0  0
 18 40  1  0  0  0  0
 18 41  1  0  0  0  0
 18 42  1  0  0  0  0
 19 43  1  0  0  0  0
 19 44  1  0  0  0  0
 20 45  1  0  0  0  0
 20 46  1  0  0  0  0
M  END
> <Chemgauss4 Score>
-5.93991708755493

> <Number of Confs>
187

$$$$
HAR-NEW-972-1
  -OEChem-03242005443D

 45 47  0     1  0  0  0  0  0999 V2000
   10.5220   -2.2418   25.7702 C   0  0  0  0  0  0  0  0  0  0  0  0
   10.9395   -1.3519   24.7505 C   0  0  0  0  0  0  0  0  0  0  0  0
   10.5362   -3.5133   25.2349 C   0  0  0  0  0  0  0  0  0  0  0  0
   11.1987   -2.1135   23.6289 C   0  0  0  0  0  0  0  0  0  0  0  0
    7.0760   -4.4847   24.2395 C   0  0  0  0  0  0  0  0  0  0  0  0
   11.1221    0.1269   24.7800 C   0  0  0  0  0  0  0  0  0  0  0  0
   11.6381   -1.6089   22.3027 C   0  0  0  0  0  0  0  0  0  0  0  0
   12.1254   -0.1531   22.4382 C   0  0  0  0  0  0  0  0  0  0  0  0
    8.3001   -4.4439   27.5875 C   0  0  0  0  0  0  0  0  0  0  0  0
    9.7599   -4.8533   27.3507 C   0  0  0  0  0  0  0  0  0  0  0  0
    7.3367   -5.1870   26.6686 C   0  0  0  0  0  0  0  0  0  0  0  0
    9.1238   -5.6230   25.0371 C   0  0  0  0  0  0  0  0  0  0  0  0
   10.1828   -4.8595   25.8617 C   0  0  1  0  0  0  0  0  0  0  0  0
   11.2302    0.7233   23.3523 C   0  0  1  0  0  0  0  0  0  0  0  0
    5.7376   -3.8878   24.5934 C   0  0  0  0  0  0  0  0  0  0  0  0
    9.8453    0.9450   22.7348 C   0  0  0  0  0  0  0  0  0  0  0  0
   10.9494   -3.4233   23.9289 N   0  0  0  0  0  0  0  0  0  0  0  0
    7.7845   -5.0864   25.2782 N   0  0  0  0  0  0  0  0  0  0  0  0
    9.2767    2.1470   23.2448 N   0  0  0  0  0  0  0  0  0  0  0  0
    7.4796   -4.4150   23.0758 O   0  0  0  0  0  0  0  0  0  0  0  0
    5.0969   -3.1765   23.1165 Cl  0  0  0  0  0  0  0  0  0  0  0  0
   10.2399   -1.9859   26.7825 H   0  0  0  0  0  0  0  0  0  0  0  0
   10.2651    0.5708   25.3080 H   0  0  0  0  0  0  0  0  0  0  0  0
   12.0219    0.3846   25.3563 H   0  0  0  0  0  0  0  0  0  0  0  0
   12.4589   -2.2355   21.9351 H   0  0  0  0  0  0  0  0  0  0  0  0
   10.8243   -1.6612   21.5720 H   0  0  0  0  0  0  0  0  0  0  0  0
   13.1627   -0.1581   22.8131 H   0  0  0  0  0  0  0  0  0  0  0  0
   12.1696    0.3064   21.4343 H   0  0  0  0  0  0  0  0  0  0  0  0
    8.0331   -4.6409   28.6357 H   0  0  0  0  0  0  0  0  0  0  0  0
    8.1967   -3.3609   27.4354 H   0  0  0  0  0  0  0  0  0  0  0  0
   10.4201   -4.1684   27.9217 H   0  0  0  0  0  0  0  0  0  0  0  0
    9.9331   -5.8543   27.7934 H   0  0  0  0  0  0  0  0  0  0  0  0
    7.2574   -6.2293   26.9809 H   0  0  0  0  0  0  0  0  0  0  0  0
    6.3386   -4.7448   26.7224 H   0  0  0  0  0  0  0  0  0  0  0  0
    9.3242   -5.5188   23.9622 H   0  0  0  0  0  0  0  0  0  0  0  0
    9.1848   -6.6913   25.2620 H   0  0  0  0  0  0  0  0  0  0  0  0
   11.1313   -5.4909   25.7932 H   0  0  0  0  0  0  0  0  0  0  0  0
   11.7200    1.7158   23.4360 H   0  0  0  0  0  0  0  0  0  0  0  0
    5.8829   -3.1193   25.3440 H   0  0  0  0  0  0  0  0  0  0  0  0
    5.0817   -4.6775   24.9414 H   0  0  0  0  0  0  0  0  0  0  0  0
    9.9796    1.0116   21.6565 H   0  0  0  0  0  0  0  0  0  0  0  0
    9.2315    0.0866   23.0023 H   0  0  0  0  0  0  0  0  0  0  0  0
   11.0554   -4.2019   23.2926 H   0  0  0  0  0  0  0  0  0  0  0  0
    8.3989    1.9527   23.6927 H   0  0  0  0  0  0  0  0  0  0  0  0
    9.8959    2.5654   23.9159 H   0  0  0  0  0  0  0  0  0  0  0  0
  1  2  1  0  0  0  0
  1  3  2  0  0  0  0
  2  4  2  0  0  0  0
  2  6  1  0  0  0  0
  3 13  1  6  0  0  0
  3 17  1  0  0  0  0
  4  7  1  0  0  0  0
  4 17  1  0  0  0  0
  5 15  1  0  0  0  0
  5 18  1  0  0  0  0
  5 20  2  0  0  0  0
  6 14  1  0  0  0  0
  7  8  1  0  0  0  0
  8 14  1  0  0  0  0
  9 10  1  0  0  0  0
  9 11  1  0  0  0  0
 10 13  1  0  0  0  0
 11 18  1  0  0  0  0
 12 13  1  0  0  0  0
 12 18  1  0  0  0  0
 14 16  1  1  0  0  0
 15 21  1  0  0  0  0
 16 19  1  0  0  0  0
  1 22  1  0  0  0  0
  6 23  1  0  0  0  0
  6 24  1  0  0  0  0
  7 25  1  0  0  0  0
  7 26  1  0  0  0  0
  8 27  1  0  0  0  0
  8 28  1  0  0  0  0
  9 29  1  0  0  0  0
  9 30  1  0  0  0  0
 10 31  1  0  0  0  0
 10 32  1  0  0  0  0
 11 33  1  0  0  0  0
 11 34  1  0  0  0  0
 12 35  1  0  0  0  0
 12 36  1  0  0  0  0
 13 37  1  0  0  0  0
 14 38  1  0  0  0  0
 15 39  1  0  0  0  0
 15 40  1  0  0  0  0
 16 41  1  0  0  0  0
 16 42  1  0  0  0  0
 17 43  1  0  0  0  0
 19 44  1  0  0  0  0
 19 45  1  0  0  0  0
M  END
> <Chemgauss4 Score>
-5.92894077301025

> <Number of Confs>
200

$$$$
NAU-LAT-ec9-5
  -OEChem-03242005443D

 38 41  0     1  0  0  0  0  0999 V2000
    8.4241   -2.2635   29.0655 C   0  0  0  0  0  0  0  0  0  0  0  0
    8.8703   -3.5471   28.7512 C   0  0  0  0  0  0  0  0  0  0  0  0
    8.3725   -1.2813   28.0763 C   0  0  0  0  0  0  0  0  0  0  0  0
    6.2788   -3.7563   23.1950 C   0  0  0  0  0  0  0  0  0  0  0  0
   11.9877   -0.2117   24.5148 C   0  0  0  0  0  0  0  0  0  0  0  0
    6.5090   -5.0782   22.7774 C   0  0  0  0  0  0  0  0  0  0  0  0
   11.9334   -0.0324   23.1326 C   0  0  0  0  0  0  0  0  0  0  0  0
    9.2650   -3.8486   27.4477 C   0  0  0  0  0  0  0  0  0  0  0  0
    8.7673   -1.5828   26.7729 C   0  0  0  0  0  0  0  0  0  0  0  0
    7.2433   -3.0582   23.9289 C   0  0  0  0  0  0  0  0  0  0  0  0
   11.2509   -1.2328   25.1151 C   0  0  0  0  0  0  0  0  0  0  0  0
    7.7060   -5.7237   23.0878 C   0  0  0  0  0  0  0  0  0  0  0  0
   11.1423   -0.8741   22.3507 C   0  0  0  0  0  0  0  0  0  0  0  0
    9.2135   -2.8664   26.4586 C   0  0  0  0  0  0  0  0  0  0  0  0
    8.4360   -3.6993   24.2326 C   0  0  0  0  0  0  0  0  0  0  0  0
   10.4598   -2.0744   24.3332 C   0  0  0  0  0  0  0  0  0  0  0  0
    8.6423   -5.0126   23.8133 C   0  0  0  0  0  0  0  0  0  0  0  0
   10.4055   -1.8951   22.9510 C   0  0  0  0  0  0  0  0  0  0  0  0
   10.5665   -4.4817   24.9603 C   0  0  0  0  0  0  0  0  0  0  0  0
    9.6505   -3.1994   25.0157 C   0  0  1  0  0  0  0  0  0  0  0  0
    9.8843   -5.4618   24.2359 N   0  0  0  0  0  0  0  0  0  0  0  0
   11.6772   -4.5962   25.4605 O   0  0  0  0  0  0  0  0  0  0  0  0
    9.6371   -2.7078   22.1729 O   0  0  0  0  0  0  0  0  0  0  0  0
    8.1155   -2.0293   30.0801 H   0  0  0  0  0  0  0  0  0  0  0  0
    8.9095   -4.3123   29.5210 H   0  0  0  0  0  0  0  0  0  0  0  0
    8.0241   -0.2821   28.3204 H   0  0  0  0  0  0  0  0  0  0  0  0
    5.3387   -3.2719   22.9448 H   0  0  0  0  0  0  0  0  0  0  0  0
   12.6032    0.4438   25.1243 H   0  0  0  0  0  0  0  0  0  0  0  0
    5.7450   -5.6014   22.2088 H   0  0  0  0  0  0  0  0  0  0  0  0
   12.5065    0.7632   22.6658 H   0  0  0  0  0  0  0  0  0  0  0  0
    9.6115   -4.8514   27.2121 H   0  0  0  0  0  0  0  0  0  0  0  0
    8.7238   -0.8112   26.0088 H   0  0  0  0  0  0  0  0  0  0  0  0
    7.0563   -2.0386   24.2489 H   0  0  0  0  0  0  0  0  0  0  0  0
   11.2988   -1.3633   26.1930 H   0  0  0  0  0  0  0  0  0  0  0  0
    7.8849   -6.7447   22.7702 H   0  0  0  0  0  0  0  0  0  0  0  0
   11.1040   -0.7294   21.2744 H   0  0  0  0  0  0  0  0  0  0  0  0
   10.2395   -6.3909   24.0432 H   0  0  0  0  0  0  0  0  0  0  0  0
    9.7118   -2.4481   21.2413 H   0  0  0  0  0  0  0  0  0  0  0  0
  1  2  1  0  0  0  0
  1  3  2  0  0  0  0
  2  8  2  0  0  0  0
  3  9  1  0  0  0  0
  4  6  1  0  0  0  0
  4 10  2  0  0  0  0
  5  7  1  0  0  0  0
  5 11  2  0  0  0  0
  6 12  2  0  0  0  0
  7 13  2  0  0  0  0
  8 14  1  0  0  0  0
  9 14  2  0  0  0  0
 10 15  1  0  0  0  0
 11 16  1  0  0  0  0
 12 17  1  0  0  0  0
 13 18  1  0  0  0  0
 14 20  1  1  0  0  0
 15 17  2  0  0  0  0
 15 20  1  0  0  0  0
 16 18  2  0  0  0  0
 16 20  1  6  0  0  0
 17 21  1  0  0  0  0
 18 23  1  0  0  0  0
 19 20  1  0  0  0  0
 19 21  1  0  0  0  0
 19 22  2  0  0  0  0
  1 24  1  0  0  0  0
  2 25  1  0  0  0  0
  3 26  1  0  0  0  0
  4 27  1  0  0  0  0
  5 28  1  0  0  0  0
  6 29  1  0  0  0  0
  7 30  1  0  0  0  0
  8 31  1  0  0  0  0
  9 32  1  0  0  0  0
 10 33  1  0  0  0  0
 11 34  1  0  0  0  0
 12 35  1  0  0  0  0
 13 36  1  0  0  0  0
 21 37  1  0  0  0  0
 23 38  1  0  0  0  0
M  END
> <Chemgauss4 Score>
-5.9029688835144

> <Number of Confs>
2

$$$$
DAR-DIA-842-18
  -OEChem-03242005443D

 32 34  0     0  0  0  0  0  0999 V2000
   12.0734   -1.2799   22.6984 C   0  0  0  0  0  0  0  0  0  0  0  0
   11.8558   -2.5831   23.1417 C   0  0  0  0  0  0  0  0  0  0  0  0
    4.2542   -5.4876   25.1597 C   0  0  0  0  0  0  0  0  0  0  0  0
    5.2859   -5.1348   26.0769 C   0  0  0  0  0  0  0  0  0  0  0  0
   10.8044   -3.8651   25.1658 C   0  0  0  0  0  0  0  0  0  0  0  0
   11.6427   -0.2243   23.4909 C   0  0  0  0  0  0  0  0  0  0  0  0
   11.2076   -2.7566   24.3752 C   0  0  0  0  0  0  0  0  0  0  0  0
   10.2000   -3.3691   26.3009 C   0  0  0  0  0  0  0  0  0  0  0  0
    4.7261   -5.6076   23.8711 C   0  0  0  0  0  0  0  0  0  0  0  0
   10.8290   -1.6094   25.0666 C   0  0  0  0  0  0  0  0  0  0  0  0
    6.5073   -4.9988   25.4543 C   0  0  0  0  0  0  0  0  0  0  0  0
    8.1078   -4.3834   27.2995 C   0  0  0  0  0  0  0  0  0  0  0  0
    3.9762   -5.9548   22.6445 C   0  0  0  0  0  0  0  0  0  0  0  0
    9.6001   -4.0669   27.4538 C   0  0  0  0  0  0  0  0  0  0  0  0
   11.0145   -0.3316   24.6847 N   0  0  0  0  0  0  0  0  0  0  0  0
   10.2202   -2.0003   26.2300 N   0  0  0  0  0  0  0  0  0  0  0  0
    7.7799   -4.6649   25.9756 N   0  0  0  0  0  0  0  0  0  0  0  0
    7.3517   -4.3707   28.2655 O   0  0  0  0  0  0  0  0  0  0  0  0
    6.4069   -5.2957   23.7709 S   0  0  0  0  0  0  0  0  0  0  0  0
   12.5697   -1.0957   21.7517 H   0  0  0  0  0  0  0  0  0  0  0  0
   12.1784   -3.4315   22.5466 H   0  0  0  0  0  0  0  0  0  0  0  0
    3.2189   -5.6441   25.4354 H   0  0  0  0  0  0  0  0  0  0  0  0
    5.1349   -4.9894   27.1391 H   0  0  0  0  0  0  0  0  0  0  0  0
   10.9399   -4.9124   24.9313 H   0  0  0  0  0  0  0  0  0  0  0  0
   11.8040    0.7985   23.1604 H   0  0  0  0  0  0  0  0  0  0  0  0
    3.5828   -5.0509   22.1538 H   0  0  0  0  0  0  0  0  0  0  0  0
    4.6070   -6.4880   21.9145 H   0  0  0  0  0  0  0  0  0  0  0  0
    3.1243   -6.6209   22.8586 H   0  0  0  0  0  0  0  0  0  0  0  0
   10.1196   -5.0249   27.6554 H   0  0  0  0  0  0  0  0  0  0  0  0
    9.7171   -3.4741   28.3828 H   0  0  0  0  0  0  0  0  0  0  0  0
    9.8448   -1.3720   26.9272 H   0  0  0  0  0  0  0  0  0  0  0  0
    8.5446   -4.6259   25.3049 H   0  0  0  0  0  0  0  0  0  0  0  0
  1  2  2  0  0  0  0
  1  6  1  0  0  0  0
  2  7  1  0  0  0  0
  3  4  1  0  0  0  0
  3  9  2  0  0  0  0
  4 11  2  0  0  0  0
  5  7  1  0  0  0  0
  5  8  2  0  0  0  0
  6 15  2  0  0  0  0
  7 10  2  0  0  0  0
  8 14  1  0  0  0  0
  8 16  1  0  0  0  0
  9 13  1  0  0  0  0
  9 19  1  0  0  0  0
 10 15  1  0  0  0  0
 10 16  1  0  0  0  0
 11 17  1  0  0  0  0
 11 19  1  0  0  0  0
 12 14  1  0  0  0  0
 12 17  1  0  0  0  0
 12 18  2  0  0  0  0
  1 20  1  0  0  0  0
  2 21  1  0  0  0  0
  3 22  1  0  0  0  0
  4 23  1  0  0  0  0
  5 24  1  0  0  0  0
  6 25  1  0  0  0  0
 13 26  1  0  0  0  0
 13 27  1  0  0  0  0
 13 28  1  0  0  0  0
 14 29  1  0  0  0  0
 14 30  1  0  0  0  0
 16 31  1  0  0  0  0
 17 32  1  0  0  0  0
M  END
> <Chemgauss4 Score>
-5.90234756469727

> <Number of Confs>
59

$$$$
PAU-WEI-b9b-3
  -OEChem-03242005443D

 53 55  0     1  0  0  0  0  0999 V2000
   11.9422   -0.0130   24.3545 C   0  0  0  0  0  0  0  0  0  0  0  0
   10.7237   -0.6836   24.2500 C   0  0  0  0  0  0  0  0  0  0  0  0
    6.9250    0.3365   17.9545 C   0  0  0  0  0  0  0  0  0  0  0  0
    5.0849    0.5286   19.5082 C   0  0  0  0  0  0  0  0  0  0  0  0
    7.7808    0.0144   19.0078 C   0  0  0  0  0  0  0  0  0  0  0  0
    5.9406    0.2064   20.5615 C   0  0  0  0  0  0  0  0  0  0  0  0
   12.9068   -0.1598   23.3576 C   0  0  0  0  0  0  0  0  0  0  0  0
   11.4343   -1.6480   22.1519 C   0  0  0  0  0  0  0  0  0  0  0  0
    5.5770    0.5937   18.2047 C   0  0  0  0  0  0  0  0  0  0  0  0
    7.2886   -0.0507   20.3113 C   0  0  0  0  0  0  0  0  0  0  0  0
   10.4697   -1.5011   23.1488 C   0  0  0  0  0  0  0  0  0  0  0  0
   12.6528   -0.9773   22.2564 C   0  0  0  0  0  0  0  0  0  0  0  0
    7.2745   -5.5598   26.3199 C   0  0  0  0  0  0  0  0  0  0  0  0
    9.0546   -4.0090   25.5926 C   0  0  0  0  0  0  0  0  0  0  0  0
    7.1565   -4.4028   24.0626 C   0  0  0  0  0  0  0  0  0  0  0  0
   10.0010   -4.0614   24.3924 C   0  0  0  0  0  0  0  0  0  0  0  0
    8.1453   -4.4419   22.8946 C   0  0  0  0  0  0  0  0  0  0  0  0
    4.6614    0.9383   17.0791 C   0  0  0  0  0  0  0  0  0  0  0  0
    8.2138   -0.4007   21.4489 C   0  0  0  0  0  0  0  0  0  0  0  0
    5.7749   -5.7195   26.3204 C   0  0  0  0  0  0  0  0  0  0  0  0
    8.3296   -1.9002   21.7694 C   0  0  0  0  0  0  0  0  0  0  0  0
    9.1475   -2.2296   23.0368 C   0  0  1  0  0  0  0  0  0  0  0  0
    7.8145   -4.7388   25.3295 N   0  0  0  0  0  0  0  0  0  0  0  0
    9.3740   -3.6702   23.1231 N   0  0  0  0  0  0  0  0  0  0  0  0
    7.9445   -6.1496   27.1714 O   0  0  0  0  0  0  0  0  0  0  0  0
   13.8437   -1.1590   21.0273 Cl  0  0  0  0  0  0  0  0  0  0  0  0
    5.0976   -4.1152   26.5761 Cl  0  0  0  0  0  0  0  0  0  0  0  0
   12.1397    0.6235   25.2123 H   0  0  0  0  0  0  0  0  0  0  0  0
    9.9779   -0.5634   25.0316 H   0  0  0  0  0  0  0  0  0  0  0  0
    7.3173    0.3856   16.9421 H   0  0  0  0  0  0  0  0  0  0  0  0
    4.0357    0.7264   19.7119 H   0  0  0  0  0  0  0  0  0  0  0  0
    8.8291   -0.1860   18.8034 H   0  0  0  0  0  0  0  0  0  0  0  0
    5.5490    0.1580   21.5742 H   0  0  0  0  0  0  0  0  0  0  0  0
   13.8522    0.3688   23.4523 H   0  0  0  0  0  0  0  0  0  0  0  0
   11.2312   -2.2862   21.2950 H   0  0  0  0  0  0  0  0  0  0  0  0
    9.5226   -4.4775   26.4696 H   0  0  0  0  0  0  0  0  0  0  0  0
    8.8641   -2.9639   25.8532 H   0  0  0  0  0  0  0  0  0  0  0  0
    6.6908   -3.4144   24.1197 H   0  0  0  0  0  0  0  0  0  0  0  0
    6.3541   -5.1349   23.9127 H   0  0  0  0  0  0  0  0  0  0  0  0
   10.8903   -3.4284   24.6008 H   0  0  0  0  0  0  0  0  0  0  0  0
   10.3869   -5.0977   24.3078 H   0  0  0  0  0  0  0  0  0  0  0  0
    8.4072   -5.5048   22.7072 H   0  0  0  0  0  0  0  0  0  0  0  0
    7.6317   -4.0976   21.9690 H   0  0  0  0  0  0  0  0  0  0  0  0
    4.2123    0.0295   16.6601 H   0  0  0  0  0  0  0  0  0  0  0  0
    3.8541    1.6038   17.4115 H   0  0  0  0  0  0  0  0  0  0  0  0
    5.1961    1.4638   16.2771 H   0  0  0  0  0  0  0  0  0  0  0  0
    7.8433    0.1202   22.3418 H   0  0  0  0  0  0  0  0  0  0  0  0
    9.2156    0.0073   21.2642 H   0  0  0  0  0  0  0  0  0  0  0  0
    5.4918   -6.3771   27.1343 H   0  0  0  0  0  0  0  0  0  0  0  0
    5.4625   -6.1064   25.3572 H   0  0  0  0  0  0  0  0  0  0  0  0
    8.7048   -2.4574   20.9026 H   0  0  0  0  0  0  0  0  0  0  0  0
    7.3054   -2.2662   21.9299 H   0  0  0  0  0  0  0  0  0  0  0  0
    8.5257   -1.9917   23.9090 H   0  0  0  0  0  0  0  0  0  0  0  0
  1  2  2  0  0  0  0
  1  7  1  0  0  0  0
  2 11  1  0  0  0  0
  3  5  2  0  0  0  0
  3  9  1  0  0  0  0
  4  6  1  0  0  0  0
  4  9  2  0  0  0  0
  5 10  1  0  0  0  0
  6 10  2  0  0  0  0
  7 12  2  0  0  0  0
  8 11  2  0  0  0  0
  8 12  1  0  0  0  0
  9 18  1  0  0  0  0
 10 19  1  0  0  0  0
 11 22  1  0  0  0  0
 12 26  1  0  0  0  0
 13 20  1  0  0  0  0
 13 23  1  0  0  0  0
 13 25  2  0  0  0  0
 14 16  1  0  0  0  0
 14 23  1  0  0  0  0
 15 17  1  0  0  0  0
 15 23  1  0  0  0  0
 16 24  1  0  0  0  0
 17 24  1  0  0  0  0
 19 21  1  0  0  0  0
 20 27  1  0  0  0  0
 21 22  1  6  0  0  0
 22 24  1  0  0  0  0
  1 28  1  0  0  0  0
  2 29  1  0  0  0  0
  3 30  1  0  0  0  0
  4 31  1  0  0  0  0
  5 32  1  0  0  0  0
  6 33  1  0  0  0  0
  7 34  1  0  0  0  0
  8 35  1  0  0  0  0
 14 36  1  0  0  0  0
 14 37  1  0  0  0  0
 15 38  1  0  0  0  0
 15 39  1  0  0  0  0
 16 40  1  0  0  0  0
 16 41  1  0  0  0  0
 17 42  1  0  0  0  0
 17 43  1  0  0  0  0
 18 44  1  0  0  0  0
 18 45  1  0  0  0  0
 18 46  1  0  0  0  0
 19 47  1  0  0  0  0
 19 48  1  0  0  0  0
 20 49  1  0  0  0  0
 20 50  1  0  0  0  0
 21 51  1  0  0  0  0
 21 52  1  0  0  0  0
 22 53  1  0  0  0  0
M  END
> <Chemgauss4 Score>
-5.90205192565918

> <Number of Confs>
182

$$$$
JOH-MSK-a63-3
  -OEChem-03242005443D

 54 56  0     1  0  0  0  0  0999 V2000
   11.0574   -1.7415   21.9703 C   0  0  0  0  0  0  0  0  0  0  0  0
   10.1383   -2.5069   22.6972 C   0  0  0  0  0  0  0  0  0  0  0  0
   12.9523    0.0278   22.2588 C   0  0  0  0  0  0  0  0  0  0  0  0
   10.9259   -1.5603   24.7920 C   0  0  0  0  0  0  0  0  0  0  0  0
   13.4607    0.6161   23.3939 C   0  0  0  0  0  0  0  0  0  0  0  0
   11.9252   -0.8716   22.6601 C   0  0  0  0  0  0  0  0  0  0  0  0
   11.8396   -0.8013   24.0522 C   0  0  0  0  0  0  0  0  0  0  0  0
   10.0753   -2.4161   24.0863 C   0  0  0  0  0  0  0  0  0  0  0  0
    6.0007   -6.0004   23.8625 C   0  0  0  0  0  0  0  0  0  0  0  0
    9.0825   -1.3454   28.9084 C   0  0  0  0  0  0  0  0  0  0  0  0
    9.6129   -5.3077   25.9430 C   0  0  1  0  0  0  0  0  0  0  0  0
    7.2113   -6.0649   26.0380 C   0  0  1  0  0  0  0  0  0  0  0  0
    9.2824   -4.5852   24.6282 C   0  0  1  0  0  0  0  0  0  0  0  0
    6.9670   -5.2668   24.7481 C   0  0  1  0  0  0  0  0  0  0  0  0
    8.3904   -5.5112   26.8651 C   0  0  2  0  0  0  0  0  0  0  0  0
    8.6652   -0.2933   29.8816 C   0  0  0  0  0  0  0  0  0  0  0  0
    6.1590   -3.2793   23.8217 C   0  0  0  0  0  0  0  0  0  0  0  0
    8.0447   -4.2544   27.6770 C   0  0  0  0  0  0  0  0  0  0  0  0
    9.1941   -3.8053   28.5638 C   0  0  0  0  0  0  0  0  0  0  0  0
   12.7834    0.1095   24.4705 N   0  0  0  0  0  0  0  0  0  0  0  0
    8.8667   -2.6440   29.3438 N   0  0  0  0  0  0  0  0  0  0  0  0
    6.2431   -6.3889   22.7295 O   0  0  0  0  0  0  0  0  0  0  0  0
    9.5670   -1.0151   27.8323 O   0  0  0  0  0  0  0  0  0  0  0  0
    8.1547   -5.1698   23.9691 O   0  0  0  0  0  0  0  0  0  0  0  0
    4.8123   -6.1738   24.4909 O   0  0  0  0  0  0  0  0  0  0  0  0
   10.1181   -6.6045   25.5873 O   0  0  0  0  0  0  0  0  0  0  0  0
    6.0259   -6.1157   26.8319 O   0  0  0  0  0  0  0  0  0  0  0  0
    8.7536   -6.5003   27.8453 O   0  0  0  0  0  0  0  0  0  0  0  0
    9.1679   -3.1752   24.7715 O   0  0  0  0  0  0  0  0  0  0  0  0
    6.3789   -4.0059   25.0180 O   0  0  0  0  0  0  0  0  0  0  0  0
   11.0958   -1.8220   20.8877 H   0  0  0  0  0  0  0  0  0  0  0  0
    9.4690   -3.1779   22.1643 H   0  0  0  0  0  0  0  0  0  0  0  0
   13.2845    0.2245   21.2486 H   0  0  0  0  0  0  0  0  0  0  0  0
   10.8803   -1.4865   25.8738 H   0  0  0  0  0  0  0  0  0  0  0  0
   14.2432    1.3489   23.5310 H   0  0  0  0  0  0  0  0  0  0  0  0
   10.4084   -4.7868   26.4626 H   0  0  0  0  0  0  0  0  0  0  0  0
    7.4387   -7.1318   25.7533 H   0  0  0  0  0  0  0  0  0  0  0  0
   10.1860   -4.7268   23.9120 H   0  0  0  0  0  0  0  0  0  0  0  0
    9.4774   -0.0122   30.5711 H   0  0  0  0  0  0  0  0  0  0  0  0
    8.3671    0.6442   29.3853 H   0  0  0  0  0  0  0  0  0  0  0  0
    7.8150   -0.5609   30.5293 H   0  0  0  0  0  0  0  0  0  0  0  0
    5.7059   -2.3137   24.0590 H   0  0  0  0  0  0  0  0  0  0  0  0
    5.5003   -3.8509   23.1630 H   0  0  0  0  0  0  0  0  0  0  0  0
    7.1176   -3.1167   23.3233 H   0  0  0  0  0  0  0  0  0  0  0  0
    7.1752   -4.4812   28.2985 H   0  0  0  0  0  0  0  0  0  0  0  0
    7.7601   -3.4589   26.9840 H   0  0  0  0  0  0  0  0  0  0  0  0
    9.4475   -4.6032   29.2689 H   0  0  0  0  0  0  0  0  0  0  0  0
   10.0878   -3.5734   27.9761 H   0  0  0  0  0  0  0  0  0  0  0  0
   12.9513    0.3665   25.4334 H   0  0  0  0  0  0  0  0  0  0  0  0
    8.4541   -2.7821   30.2658 H   0  0  0  0  0  0  0  0  0  0  0  0
    4.1659   -6.6500   23.9273 H   0  0  0  0  0  0  0  0  0  0  0  0
   10.9072   -6.4528   25.0449 H   0  0  0  0  0  0  0  0  0  0  0  0
    5.3544   -6.5495   26.2864 H   0  0  0  0  0  0  0  0  0  0  0  0
    9.5131   -6.1377   28.3219 H   0  0  0  0  0  0  0  0  0  0  0  0
  1  2  2  0  0  0  0
  1  6  1  0  0  0  0
  2  8  1  0  0  0  0
  3  5  2  0  0  0  0
  3  6  1  0  0  0  0
  4  7  1  0  0  0  0
  4  8  2  0  0  0  0
  5 20  1  0  0  0  0
  6  7  2  0  0  0  0
  7 20  1  0  0  0  0
  8 29  1  0  0  0  0
  9 14  1  1  0  0  0
  9 22  2  0  0  0  0
  9 25  1  0  0  0  0
 10 16  1  0  0  0  0
 10 21  1  0  0  0  0
 10 23  2  0  0  0  0
 11 13  1  0  0  0  0
 11 15  1  0  0  0  0
 11 26  1  6  0  0  0
 12 14  1  0  0  0  0
 12 15  1  0  0  0  0
 12 27  1  1  0  0  0
 13 24  1  0  0  0  0
 13 29  1  1  0  0  0
 14 24  1  0  0  0  0
 14 30  1  0  0  0  0
 15 18  1  0  0  0  0
 15 28  1  6  0  0  0
 17 30  1  0  0  0  0
 18 19  1  0  0  0  0
 19 21  1  0  0  0  0
  1 31  1  0  0  0  0
  2 32  1  0  0  0  0
  3 33  1  0  0  0  0
  4 34  1  0  0  0  0
  5 35  1  0  0  0  0
 11 36  1  0  0  0  0
 12 37  1  0  0  0  0
 13 38  1  0  0  0  0
 16 39  1  0  0  0  0
 16 40  1  0  0  0  0
 16 41  1  0  0  0  0
 17 42  1  0  0  0  0
 17 43  1  0  0  0  0
 17 44  1  0  0  0  0
 18 45  1  0  0  0  0
 18 46  1  0  0  0  0
 19 47  1  0  0  0  0
 19 48  1  0  0  0  0
 20 49  1  0  0  0  0
 21 50  1  0  0  0  0
 25 51  1  0  0  0  0
 26 52  1  0  0  0  0
 27 53  1  0  0  0  0
 28 54  1  0  0  0  0
M  END
> <Chemgauss4 Score>
-5.89641094207764

> <Number of Confs>
200

$$$$
DAR-DIA-43a-8
  -OEChem-03242005443D

 36 38  0     1  0  0  0  0  0999 V2000
    5.9182   -5.0450   23.5597 C   0  0  0  0  0  0  0  0  0  0  0  0
    6.8930   -4.0752   23.7938 C   0  0  0  0  0  0  0  0  0  0  0  0
    5.4769   -5.8568   24.6047 C   0  0  0  0  0  0  0  0  0  0  0  0
    6.9853   -4.7290   26.1179 C   0  0  0  0  0  0  0  0  0  0  0  0
   12.3146   -0.2408   23.9115 C   0  0  0  0  0  0  0  0  0  0  0  0
   14.1619    0.0535   22.7667 C   0  0  0  0  0  0  0  0  0  0  0  0
    7.4266   -3.9172   25.0728 C   0  0  0  0  0  0  0  0  0  0  0  0
    6.0105   -5.6988   25.8838 C   0  0  0  0  0  0  0  0  0  0  0  0
   11.9731   -0.9521   22.7803 C   0  0  0  0  0  0  0  0  0  0  0  0
    8.8157   -2.0586   24.0981 C   0  0  0  0  0  0  0  0  0  0  0  0
   10.0578   -2.2911   23.6552 C   0  0  0  0  0  0  0  0  0  0  0  0
    9.9071   -4.7193   26.3960 C   0  0  0  0  0  0  0  0  0  0  0  0
   10.7762   -3.2874   24.5108 C   0  0  0  0  0  0  0  0  0  0  0  0
    8.4869   -2.8639   25.3262 C   0  0  2  0  0  0  0  0  0  0  0  0
    9.8863   -3.3643   25.7572 C   0  0  1  0  0  0  0  0  0  0  0  0
   10.7031   -1.6985   22.4558 C   0  0  0  0  0  0  0  0  0  0  0  0
   13.5695    0.3362   23.9057 N   0  0  0  0  0  0  0  0  0  0  0  0
    9.7194   -4.6934   27.7577 N   0  0  0  0  0  0  0  0  0  0  0  0
   10.0621   -5.7473   25.7413 O   0  0  0  0  0  0  0  0  0  0  0  0
   13.2675   -0.9016   21.6564 S   0  0  0  0  0  0  0  0  0  0  0  0
    5.4664   -6.7013   27.1724 Cl  0  0  0  0  0  0  0  0  0  0  0  0
    5.5030   -5.1679   22.5636 H   0  0  0  0  0  0  0  0  0  0  0  0
    7.2310   -3.4472   22.9736 H   0  0  0  0  0  0  0  0  0  0  0  0
    4.7167   -6.6087   24.4076 H   0  0  0  0  0  0  0  0  0  0  0  0
    7.4041   -4.6015   27.1134 H   0  0  0  0  0  0  0  0  0  0  0  0
   11.6810   -0.1099   24.7788 H   0  0  0  0  0  0  0  0  0  0  0  0
   15.1593    0.4013   22.5354 H   0  0  0  0  0  0  0  0  0  0  0  0
    8.1373   -1.3386   23.6529 H   0  0  0  0  0  0  0  0  0  0  0  0
   10.8774   -4.2537   24.0070 H   0  0  0  0  0  0  0  0  0  0  0  0
   11.7737   -2.9108   24.7609 H   0  0  0  0  0  0  0  0  0  0  0  0
    8.0845   -2.1725   26.0828 H   0  0  0  0  0  0  0  0  0  0  0  0
   10.2920   -2.6599   26.5502 H   0  0  0  0  0  0  0  0  0  0  0  0
   10.0012   -1.0159   21.9571 H   0  0  0  0  0  0  0  0  0  0  0  0
   10.9144   -2.4900   21.7241 H   0  0  0  0  0  0  0  0  0  0  0  0
    9.5857   -3.7969   28.2139 H   0  0  0  0  0  0  0  0  0  0  0  0
    9.7090   -5.5349   28.3249 H   0  0  0  0  0  0  0  0  0  0  0  0
  1  2  2  0  0  0  0
  1  3  1  0  0  0  0
  2  7  1  0  0  0  0
  3  8  2  0  0  0  0
  4  7  2  0  0  0  0
  4  8  1  0  0  0  0
  5  9  2  0  0  0  0
  5 17  1  0  0  0  0
  6 17  2  0  0  0  0
  6 20  1  0  0  0  0
  7 14  1  0  0  0  0
  8 21  1  0  0  0  0
  9 16  1  0  0  0  0
  9 20  1  0  0  0  0
 10 11  2  0  0  0  0
 10 14  1  0  0  0  0
 11 13  1  0  0  0  0
 11 16  1  0  0  0  0
 12 15  1  0  0  0  0
 12 18  1  0  0  0  0
 12 19  2  0  0  0  0
 13 15  1  0  0  0  0
 14 15  1  0  0  0  0
  1 22  1  0  0  0  0
  2 23  1  0  0  0  0
  3 24  1  0  0  0  0
  4 25  1  0  0  0  0
  5 26  1  0  0  0  0
  6 27  1  0  0  0  0
 10 28  1  0  0  0  0
 13 29  1  0  0  0  0
 13 30  1  0  0  0  0
 14 31  1  6  0  0  0
 15 32  1  1  0  0  0
 16 33  1  0  0  0  0
 16 34  1  0  0  0  0
 18 35  1  0  0  0  0
 18 36  1  0  0  0  0
M  END
> <Chemgauss4 Score>
-5.89524698257446

> <Number of Confs>
200

$$$$
DUN-NEW-f8c-18
  -OEChem-03242005443D

 52 55  0     0  0  0  0  0  0999 V2000
   11.1795   -1.7069   21.9361 C   0  0  0  0  0  0  0  0  0  0  0  0
    6.2465   -0.7611   20.4675 C   0  0  0  0  0  0  0  0  0  0  0  0
   12.1611   -0.9353   22.5684 C   0  0  0  0  0  0  0  0  0  0  0  0
    6.4613   -0.7779   21.8411 C   0  0  0  0  0  0  0  0  0  0  0  0
   10.0199   -2.0799   22.6129 C   0  0  0  0  0  0  0  0  0  0  0  0
   12.7274    0.2286   24.8331 C   0  0  0  0  0  0  0  0  0  0  0  0
    6.9859    0.1298   19.7063 C   0  0  0  0  0  0  0  0  0  0  0  0
    8.0838    0.9374   21.5558 C   0  0  0  0  0  0  0  0  0  0  0  0
   12.0167    0.2885   26.0096 C   0  0  0  0  0  0  0  0  0  0  0  0
   11.9657   -0.5356   23.9053 C   0  0  0  0  0  0  0  0  0  0  0  0
    7.3957    0.0845   22.4037 C   0  0  0  0  0  0  0  0  0  0  0  0
   10.7941   -0.9240   24.5586 C   0  0  0  0  0  0  0  0  0  0  0  0
    9.8042   -1.6953   23.9393 C   0  0  0  0  0  0  0  0  0  0  0  0
    7.4254   -1.2670   24.5497 C   0  0  0  0  0  0  0  0  0  0  0  0
    8.0372   -4.4627   24.2670 C   0  0  0  0  0  0  0  0  0  0  0  0
    9.9627   -3.7719   25.7531 C   0  0  0  0  0  0  0  0  0  0  0  0
    8.0598   -5.8602   24.8869 C   0  0  0  0  0  0  0  0  0  0  0  0
    9.9869   -5.1702   26.3721 C   0  0  0  0  0  0  0  0  0  0  0  0
    8.5679   -3.4069   25.2392 C   0  0  0  0  0  0  0  0  0  0  0  0
    9.4450   -6.2331   25.4168 C   0  0  0  0  0  0  0  0  0  0  0  0
    9.8506   -0.5606   26.8688 C   0  0  0  0  0  0  0  0  0  0  0  0
    7.6523    0.0900   23.8915 C   0  0  0  0  0  0  0  0  0  0  0  0
    7.9023    0.9825   20.2169 N   0  0  0  0  0  0  0  0  0  0  0  0
   10.8522   -0.4099   25.8344 N   0  0  0  0  0  0  0  0  0  0  0  0
    8.5773   -2.1054   24.6161 N   0  0  0  0  0  0  0  0  0  0  0  0
    6.3120   -1.5438   25.0038 O   0  0  0  0  0  0  0  0  0  0  0  0
   10.3555   -6.3773   24.3288 O   0  0  0  0  0  0  0  0  0  0  0  0
   11.3259   -2.0175   20.9047 H   0  0  0  0  0  0  0  0  0  0  0  0
    5.5233   -1.4245   20.0072 H   0  0  0  0  0  0  0  0  0  0  0  0
   13.0601   -0.6516   22.0287 H   0  0  0  0  0  0  0  0  0  0  0  0
    5.8967   -1.4656   22.4648 H   0  0  0  0  0  0  0  0  0  0  0  0
    9.2776   -2.6804   22.0907 H   0  0  0  0  0  0  0  0  0  0  0  0
   13.6917    0.6865   24.6596 H   0  0  0  0  0  0  0  0  0  0  0  0
    6.8550    0.1819   18.6304 H   0  0  0  0  0  0  0  0  0  0  0  0
    8.8252    1.6327   21.9373 H   0  0  0  0  0  0  0  0  0  0  0  0
   12.2447    0.7685   26.9517 H   0  0  0  0  0  0  0  0  0  0  0  0
    8.6119   -4.4583   23.3381 H   0  0  0  0  0  0  0  0  0  0  0  0
    7.0057   -4.2123   24.0023 H   0  0  0  0  0  0  0  0  0  0  0  0
   10.2569   -3.0474   26.5162 H   0  0  0  0  0  0  0  0  0  0  0  0
   10.7007   -3.7067   24.9518 H   0  0  0  0  0  0  0  0  0  0  0  0
    7.3274   -5.9172   25.7036 H   0  0  0  0  0  0  0  0  0  0  0  0
    7.7302   -6.6064   24.1502 H   0  0  0  0  0  0  0  0  0  0  0  0
   11.0115   -5.4306   26.6728 H   0  0  0  0  0  0  0  0  0  0  0  0
    9.4016   -5.1753   27.3011 H   0  0  0  0  0  0  0  0  0  0  0  0
    7.8818   -3.3250   26.0886 H   0  0  0  0  0  0  0  0  0  0  0  0
    9.3923   -7.1997   25.9358 H   0  0  0  0  0  0  0  0  0  0  0  0
    9.1469    0.2713   26.7807 H   0  0  0  0  0  0  0  0  0  0  0  0
    9.3328   -1.5149   26.7381 H   0  0  0  0  0  0  0  0  0  0  0  0
   10.3377   -0.5487   27.8479 H   0  0  0  0  0  0  0  0  0  0  0  0
    8.6892    0.4026   24.0631 H   0  0  0  0  0  0  0  0  0  0  0  0
    6.9949    0.8314   24.3609 H   0  0  0  0  0  0  0  0  0  0  0  0
   10.0032   -7.0825   23.7631 H   0  0  0  0  0  0  0  0  0  0  0  0
  1  3  2  0  0  0  0
  1  5  1  0  0  0  0
  2  4  2  0  0  0  0
  2  7  1  0  0  0  0
  3 10  1  0  0  0  0
  4 11  1  0  0  0  0
  5 13  2  0  0  0  0
  6  9  2  0  0  0  0
  6 10  1  0  0  0  0
  7 23  2  0  0  0  0
  8 11  2  0  0  0  0
  8 23  1  0  0  0  0
  9 24  1  0  0  0  0
 10 12  2  0  0  0  0
 11 22  1  0  0  0  0
 12 13  1  0  0  0  0
 12 24  1  0  0  0  0
 13 25  1  0  0  0  0
 14 22  1  0  0  0  0
 14 25  1  0  0  0  0
 14 26  2  0  0  0  0
 15 17  1  0  0  0  0
 15 19  1  0  0  0  0
 16 18  1  0  0  0  0
 16 19  1  0  0  0  0
 17 20  1  0  0  0  0
 18 20  1  0  0  0  0
 19 25  1  0  0  0  0
 20 27  1  0  0  0  0
 21 24  1  0  0  0  0
  1 28  1  0  0  0  0
  2 29  1  0  0  0  0
  3 30  1  0  0  0  0
  4 31  1  0  0  0  0
  5 32  1  0  0  0  0
  6 33  1  0  0  0  0
  7 34  1  0  0  0  0
  8 35  1  0  0  0  0
  9 36  1  0  0  0  0
 15 37  1  0  0  0  0
 15 38  1  0  0  0  0
 16 39  1  0  0  0  0
 16 40  1  0  0  0  0
 17 41  1  0  0  0  0
 17 42  1  0  0  0  0
 18 43  1  0  0  0  0
 18 44  1  0  0  0  0
 19 45  1  0  0  0  0
 20 46  1  0  0  0  0
 21 47  1  0  0  0  0
 21 48  1  0  0  0  0
 21 49  1  0  0  0  0
 22 50  1  0  0  0  0
 22 51  1  0  0  0  0
 27 52  1  0  0  0  0
M  END
> <Chemgauss4 Score>
-5.8874135017395

> <Number of Confs>
60

$$$$
CHR-SOS-e96-3
  -OEChem-03242005443D

 43 45  0     0  0  0  0  0  0999 V2000
   10.0294   -1.6130   26.7336 C   0  0  0  0  0  0  0  0  0  0  0  0
    5.6334   -3.9446   22.7613 C   0  0  0  0  0  0  0  0  0  0  0  0
   10.6613   -1.0609   25.6194 C   0  0  0  0  0  0  0  0  0  0  0  0
    6.8352   -3.2919   22.5109 C   0  0  0  0  0  0  0  0  0  0  0  0
    9.5870   -2.9355   26.7005 C   0  0  0  0  0  0  0  0  0  0  0  0
   10.4083   -3.1536   24.4389 C   0  0  0  0  0  0  0  0  0  0  0  0
    4.8020   -3.4207   23.7380 C   0  0  0  0  0  0  0  0  0  0  0  0
    6.2643   -1.7073   24.1901 C   0  0  0  0  0  0  0  0  0  0  0  0
   10.8508   -1.8311   24.4721 C   0  0  0  0  0  0  0  0  0  0  0  0
    7.1643   -2.1512   23.2347 C   0  0  0  0  0  0  0  0  0  0  0  0
    9.7764   -3.7057   25.5532 C   0  0  0  0  0  0  0  0  0  0  0  0
    9.3749   -1.7887   22.0840 C   0  0  0  0  0  0  0  0  0  0  0  0
   13.5068   -0.6908   22.3426 C   0  0  0  0  0  0  0  0  0  0  0  0
   12.6429   -0.0795   23.4595 C   0  0  0  0  0  0  0  0  0  0  0  0
   12.7555   -2.0155   22.5630 C   0  0  0  0  0  0  0  0  0  0  0  0
   11.5760   -1.1964   23.1919 C   0  0  0  0  0  0  0  0  0  0  0  0
   10.5081   -0.7846   22.1684 C   0  0  0  0  0  0  0  0  0  0  0  0
    5.0875   -2.3149   24.4615 N   0  0  0  0  0  0  0  0  0  0  0  0
   10.6080   -6.1802   26.0921 N   0  0  0  0  0  0  0  0  0  0  0  0
    8.3803   -1.4654   23.0026 N   0  0  0  0  0  0  0  0  0  0  0  0
    9.3869   -2.7311   21.2989 O   0  0  0  0  0  0  0  0  0  0  0  0
    8.1490   -5.5117   26.4822 O   0  0  0  0  0  0  0  0  0  0  0  0
    9.0048   -5.7419   24.1238 O   0  0  0  0  0  0  0  0  0  0  0  0
    9.2248   -5.3616   25.5122 S   0  0  0  0  0  0  0  0  0  0  0  0
    9.8826   -1.0134   27.6274 H   0  0  0  0  0  0  0  0  0  0  0  0
    5.3563   -4.8355   22.2093 H   0  0  0  0  0  0  0  0  0  0  0  0
   11.0029   -0.0298   25.6526 H   0  0  0  0  0  0  0  0  0  0  0  0
    7.5074   -3.6802   21.7503 H   0  0  0  0  0  0  0  0  0  0  0  0
    9.0961   -3.3557   27.5744 H   0  0  0  0  0  0  0  0  0  0  0  0
   10.5582   -3.7510   23.5431 H   0  0  0  0  0  0  0  0  0  0  0  0
    3.8537   -3.8935   23.9717 H   0  0  0  0  0  0  0  0  0  0  0  0
    6.4650   -0.8225   24.7869 H   0  0  0  0  0  0  0  0  0  0  0  0
   13.3397   -0.2438   21.3564 H   0  0  0  0  0  0  0  0  0  0  0  0
   14.5818   -0.7188   22.5383 H   0  0  0  0  0  0  0  0  0  0  0  0
   13.1133   -0.1351   24.4492 H   0  0  0  0  0  0  0  0  0  0  0  0
   12.3192    0.9515   23.2888 H   0  0  0  0  0  0  0  0  0  0  0  0
   12.5247   -2.5787   21.6541 H   0  0  0  0  0  0  0  0  0  0  0  0
   13.2619   -2.6870   23.2672 H   0  0  0  0  0  0  0  0  0  0  0  0
   10.9774   -0.6930   21.1869 H   0  0  0  0  0  0  0  0  0  0  0  0
   10.1025    0.1880   22.4540 H   0  0  0  0  0  0  0  0  0  0  0  0
   10.5688   -6.5838   27.0360 H   0  0  0  0  0  0  0  0  0  0  0  0
   11.1530   -6.7387   25.4241 H   0  0  0  0  0  0  0  0  0  0  0  0
    8.5324   -0.6418   23.5812 H   0  0  0  0  0  0  0  0  0  0  0  0
  1  3  1  0  0  0  0
  1  5  2  0  0  0  0
  2  4  2  0  0  0  0
  2  7  1  0  0  0  0
  3  9  2  0  0  0  0
  4 10  1  0  0  0  0
  5 11  1  0  0  0  0
  6  9  1  0  0  0  0
  6 11  2  0  0  0  0
  7 18  2  0  0  0  0
  8 10  2  0  0  0  0
  8 18  1  0  0  0  0
  9 16  1  0  0  0  0
 10 20  1  0  0  0  0
 11 24  1  0  0  0  0
 12 17  1  0  0  0  0
 12 20  1  0  0  0  0
 12 21  2  0  0  0  0
 13 14  1  0  0  0  0
 13 15  1  0  0  0  0
 14 16  1  0  0  0  0
 15 16  1  0  0  0  0
 16 17  1  0  0  0  0
 19 24  1  0  0  0  0
 22 24  2  0  0  0  0
 23 24  2  0  0  0  0
  1 25  1  0  0  0  0
  2 26  1  0  0  0  0
  3 27  1  0  0  0  0
  4 28  1  0  0  0  0
  5 29  1  0  0  0  0
  6 30  1  0  0  0  0
  7 31  1  0  0  0  0
  8 32  1  0  0  0  0
 13 33  1  0  0  0  0
 13 34  1  0  0  0  0
 14 35  1  0  0  0  0
 14 36  1  0  0  0  0
 15 37  1  0  0  0  0
 15 38  1  0  0  0  0
 17 39  1  0  0  0  0
 17 40  1  0  0  0  0
 19 41  1  0  0  0  0
 19 42  1  0  0  0  0
 20 43  1  0  0  0  0
M  END
> <Chemgauss4 Score>
-5.88148975372314

> <Number of Confs>
200

$$$$
ADA-UNI-f8e-4
  -OEChem-03242005443D

 40 41  0     1  0  0  0  0  0999 V2000
   13.2567   -0.5044   23.3496 C   0  0  0  0  0  0  0  0  0  0  0  0
   12.1729    0.0220   24.0524 C   0  0  0  0  0  0  0  0  0  0  0  0
   13.0538   -1.5142   22.4089 C   0  0  0  0  0  0  0  0  0  0  0  0
    8.7953   -3.9876   28.3831 C   0  0  0  0  0  0  0  0  0  0  0  0
   10.8863   -0.4614   23.8146 C   0  0  0  0  0  0  0  0  0  0  0  0
   11.7672   -1.9977   22.1711 C   0  0  0  0  0  0  0  0  0  0  0  0
    9.0347   -3.1584   27.2929 C   0  0  0  0  0  0  0  0  0  0  0  0
    8.3823   -5.2861   28.1319 C   0  0  0  0  0  0  0  0  0  0  0  0
    8.4407   -4.9600   25.8585 C   0  0  0  0  0  0  0  0  0  0  0  0
   10.6834   -1.4713   22.8739 C   0  0  0  0  0  0  0  0  0  0  0  0
    8.8562   -3.6461   26.0031 C   0  0  0  0  0  0  0  0  0  0  0  0
    8.9533   -3.1695   23.5327 C   0  0  0  0  0  0  0  0  0  0  0  0
    6.4274    2.2686   21.0577 C   0  0  0  0  0  0  0  0  0  0  0  0
    6.3476    0.0625   21.9997 C   0  0  0  0  0  0  0  0  0  0  0  0
    7.1288   -1.2261   22.1807 C   0  0  0  0  0  0  0  0  0  0  0  0
    9.3079   -1.9888   22.6193 C   0  0  1  0  0  0  0  0  0  0  0  0
    8.1981   -5.7955   26.8932 N   0  0  0  0  0  0  0  0  0  0  0  0
    9.0916   -2.8263   24.8742 N   0  0  0  0  0  0  0  0  0  0  0  0
    7.1492    1.0220   21.2063 N   0  0  0  0  0  0  0  0  0  0  0  0
    8.6014   -4.2520   23.0729 O   0  0  0  0  0  0  0  0  0  0  0  0
    8.3594   -0.9442   22.8291 O   0  0  0  0  0  0  0  0  0  0  0  0
   14.2582   -0.1270   23.5339 H   0  0  0  0  0  0  0  0  0  0  0  0
   12.3305    0.8090   24.7841 H   0  0  0  0  0  0  0  0  0  0  0  0
   13.8972   -1.9236   21.8607 H   0  0  0  0  0  0  0  0  0  0  0  0
    8.9279   -3.6287   29.3973 H   0  0  0  0  0  0  0  0  0  0  0  0
   10.0478   -0.0454   24.3670 H   0  0  0  0  0  0  0  0  0  0  0  0
   11.6187   -2.7847   21.4364 H   0  0  0  0  0  0  0  0  0  0  0  0
    9.3596   -2.1348   27.4597 H   0  0  0  0  0  0  0  0  0  0  0  0
    8.1816   -5.9723   28.9480 H   0  0  0  0  0  0  0  0  0  0  0  0
    8.2842   -5.3977   24.8770 H   0  0  0  0  0  0  0  0  0  0  0  0
    6.2447    2.7076   22.0496 H   0  0  0  0  0  0  0  0  0  0  0  0
    7.0231    2.9671   20.4517 H   0  0  0  0  0  0  0  0  0  0  0  0
    5.4658    2.0781   20.5585 H   0  0  0  0  0  0  0  0  0  0  0  0
    5.4051   -0.1155   21.4722 H   0  0  0  0  0  0  0  0  0  0  0  0
    6.1338    0.5180   22.9713 H   0  0  0  0  0  0  0  0  0  0  0  0
    7.3543   -1.6678   21.2051 H   0  0  0  0  0  0  0  0  0  0  0  0
    6.5726   -1.9530   22.7816 H   0  0  0  0  0  0  0  0  0  0  0  0
    9.1840   -2.3122   21.5713 H   0  0  0  0  0  0  0  0  0  0  0  0
    9.3938   -1.8772   25.0831 H   0  0  0  0  0  0  0  0  0  0  0  0
    7.3240    0.6070   20.3000 H   0  0  0  0  0  0  0  0  0  0  0  0
  1  2  1  0  0  0  0
  1  3  2  0  0  0  0
  2  5  2  0  0  0  0
  3  6  1  0  0  0  0
  4  7  2  0  0  0  0
  4  8  1  0  0  0  0
  5 10  1  0  0  0  0
  6 10  2  0  0  0  0
  7 11  1  0  0  0  0
  8 17  2  0  0  0  0
  9 11  2  0  0  0  0
  9 17  1  0  0  0  0
 10 16  1  0  0  0  0
 11 18  1  0  0  0  0
 12 16  1  6  0  0  0
 12 18  1  0  0  0  0
 12 20  2  0  0  0  0
 13 19  1  0  0  0  0
 14 15  1  0  0  0  0
 14 19  1  0  0  0  0
 15 21  1  0  0  0  0
 16 21  1  0  0  0  0
  1 22  1  0  0  0  0
  2 23  1  0  0  0  0
  3 24  1  0  0  0  0
  4 25  1  0  0  0  0
  5 26  1  0  0  0  0
  6 27  1  0  0  0  0
  7 28  1  0  0  0  0
  8 29  1  0  0  0  0
  9 30  1  0  0  0  0
 13 31  1  0  0  0  0
 13 32  1  0  0  0  0
 13 33  1  0  0  0  0
 14 34  1  0  0  0  0
 14 35  1  0  0  0  0
 15 36  1  0  0  0  0
 15 37  1  0  0  0  0
 16 38  1  0  0  0  0
 18 39  1  0  0  0  0
 19 40  1  0  0  0  0
M  END
> <Chemgauss4 Score>
-5.86558771133423

> <Number of Confs>
200

$$$$
GIA-UNK-595-1
  -OEChem-03242005443D

 42 43  0     0  0  0  0  0  0999 V2000
    9.0126   -2.7279   23.8753 C   0  0  0  0  0  0  0  0  0  0  0  0
    7.5963   -4.6165   28.1162 C   0  0  0  0  0  0  0  0  0  0  0  0
   12.3188   -0.3223   23.1962 C   0  0  0  0  0  0  0  0  0  0  0  0
   10.9691    0.1762   23.7034 C   0  0  0  0  0  0  0  0  0  0  0  0
   12.1997   -1.7282   22.6160 C   0  0  0  0  0  0  0  0  0  0  0  0
    8.9469   -6.0086   25.6198 C   0  0  0  0  0  0  0  0  0  0  0  0
    6.7676   -5.1558   24.6424 C   0  0  0  0  0  0  0  0  0  0  0  0
   10.3589   -0.8163   24.6855 C   0  0  0  0  0  0  0  0  0  0  0  0
   11.5360   -2.7016   23.5925 C   0  0  0  0  0  0  0  0  0  0  0  0
    9.7561   -4.9552   24.8469 C   0  0  0  0  0  0  0  0  0  0  0  0
    7.7019   -4.7847   23.4871 C   0  0  0  0  0  0  0  0  0  0  0  0
    7.5269   -5.5296   25.9234 C   0  0  0  0  0  0  0  0  0  0  0  0
    7.7034   -2.1291   28.1664 C   0  0  0  0  0  0  0  0  0  0  0  0
   10.2724   -2.1581   24.1068 N   0  0  0  0  0  0  0  0  0  0  0  0
    8.9072   -4.1247   23.9782 N   0  0  0  0  0  0  0  0  0  0  0  0
    7.6568   -3.4239   28.8059 N   0  0  0  0  0  0  0  0  0  0  0  0
    8.0275   -2.0252   23.6141 O   0  0  0  0  0  0  0  0  0  0  0  0
    7.5554   -5.7341   28.6200 O   0  0  0  0  0  0  0  0  0  0  0  0
    7.5878   -4.3784   26.7664 O   0  0  0  0  0  0  0  0  0  0  0  0
   12.6928    0.3609   22.4242 H   0  0  0  0  0  0  0  0  0  0  0  0
   13.0493   -0.3165   24.0123 H   0  0  0  0  0  0  0  0  0  0  0  0
   11.0997    1.1433   24.1972 H   0  0  0  0  0  0  0  0  0  0  0  0
   10.2913    0.3278   22.8604 H   0  0  0  0  0  0  0  0  0  0  0  0
   11.6182   -1.6925   21.6837 H   0  0  0  0  0  0  0  0  0  0  0  0
   13.1985   -2.1024   22.3468 H   0  0  0  0  0  0  0  0  0  0  0  0
    8.9085   -6.9415   25.0462 H   0  0  0  0  0  0  0  0  0  0  0  0
    9.4641   -6.2552   26.5555 H   0  0  0  0  0  0  0  0  0  0  0  0
    6.0768   -4.3194   24.8492 H   0  0  0  0  0  0  0  0  0  0  0  0
    6.1166   -5.9940   24.3424 H   0  0  0  0  0  0  0  0  0  0  0  0
   10.9570   -0.8449   25.6030 H   0  0  0  0  0  0  0  0  0  0  0  0
    9.3429   -0.5127   24.9644 H   0  0  0  0  0  0  0  0  0  0  0  0
   11.2846   -3.6309   23.0699 H   0  0  0  0  0  0  0  0  0  0  0  0
   12.2206   -2.9833   24.3912 H   0  0  0  0  0  0  0  0  0  0  0  0
   10.2888   -4.3415   25.5853 H   0  0  0  0  0  0  0  0  0  0  0  0
   10.5074   -5.4454   24.2081 H   0  0  0  0  0  0  0  0  0  0  0  0
    8.0169   -5.6887   22.9537 H   0  0  0  0  0  0  0  0  0  0  0  0
    7.1745   -4.1477   22.7701 H   0  0  0  0  0  0  0  0  0  0  0  0
    6.9789   -6.3082   26.4638 H   0  0  0  0  0  0  0  0  0  0  0  0
    8.7511   -1.8444   27.9896 H   0  0  0  0  0  0  0  0  0  0  0  0
    7.1690   -2.1752   27.2061 H   0  0  0  0  0  0  0  0  0  0  0  0
    7.2252   -1.3818   28.8167 H   0  0  0  0  0  0  0  0  0  0  0  0
    7.6694   -3.4575   29.8205 H   0  0  0  0  0  0  0  0  0  0  0  0
  1 14  1  0  0  0  0
  1 15  1  0  0  0  0
  1 17  2  0  0  0  0
  2 16  1  0  0  0  0
  2 18  2  0  0  0  0
  2 19  1  0  0  0  0
  3  4  1  0  0  0  0
  3  5  1  0  0  0  0
  4  8  1  0  0  0  0
  5  9  1  0  0  0  0
  6 10  1  0  0  0  0
  6 12  1  0  0  0  0
  7 11  1  0  0  0  0
  7 12  1  0  0  0  0
  8 14  1  0  0  0  0
  9 14  1  0  0  0  0
 10 15  1  0  0  0  0
 11 15  1  0  0  0  0
 12 19  1  0  0  0  0
 13 16  1  0  0  0  0
  3 20  1  0  0  0  0
  3 21  1  0  0  0  0
  4 22  1  0  0  0  0
  4 23  1  0  0  0  0
  5 24  1  0  0  0  0
  5 25  1  0  0  0  0
  6 26  1  0  0  0  0
  6 27  1  0  0  0  0
  7 28  1  0  0  0  0
  7 29  1  0  0  0  0
  8 30  1  0  0  0  0
  8 31  1  0  0  0  0
  9 32  1  0  0  0  0
  9 33  1  0  0  0  0
 10 34  1  0  0  0  0
 10 35  1  0  0  0  0
 11 36  1  0  0  0  0
 11 37  1  0  0  0  0
 12 38  1  0  0  0  0
 13 39  1  0  0  0  0
 13 40  1  0  0  0  0
 13 41  1  0  0  0  0
 16 42  1  0  0  0  0
M  END
> <Chemgauss4 Score>
-5.86022615432739

> <Number of Confs>
63

$$$$
ROB-UNI-b2e-2
  -OEChem-03242005443D

 44 45  0     0  0  0  0  0  0999 V2000
    9.7791   -0.6581   25.7623 C   0  0  0  0  0  0  0  0  0  0  0  0
    9.3545   -2.8832   26.6372 C   0  0  0  0  0  0  0  0  0  0  0  0
   11.5986   -1.7533   22.7874 C   0  0  0  0  0  0  0  0  0  0  0  0
   10.4566   -1.2276   24.6660 C   0  0  0  0  0  0  0  0  0  0  0  0
   10.0221   -3.4709   25.5589 C   0  0  0  0  0  0  0  0  0  0  0  0
   11.1148   -0.6954   23.5221 C   0  0  0  0  0  0  0  0  0  0  0  0
   10.5623   -2.6181   24.5897 C   0  0  0  0  0  0  0  0  0  0  0  0
    9.2336   -1.4988   26.7394 C   0  0  0  0  0  0  0  0  0  0  0  0
    5.8336   -5.8561   23.3643 C   0  0  0  0  0  0  0  0  0  0  0  0
    7.4212    1.1191   20.1878 C   0  0  0  0  0  0  0  0  0  0  0  0
   10.1337   -4.9569   25.4808 C   0  0  0  0  0  0  0  0  0  0  0  0
   11.2584    0.7334   23.1762 C   0  0  0  0  0  0  0  0  0  0  0  0
    8.8381   -5.6456   25.0357 C   0  0  0  0  0  0  0  0  0  0  0  0
   10.3138    1.2057   22.0561 C   0  0  0  0  0  0  0  0  0  0  0  0
   11.2602   -2.9088   23.4392 N   0  0  0  0  0  0  0  0  0  0  0  0
    8.4218   -5.2314   23.7226 N   0  0  0  0  0  0  0  0  0  0  0  0
    8.9292    1.0430   22.4100 N   0  0  0  0  0  0  0  0  0  0  0  0
    6.9065   -3.7602   22.2214 O   0  0  0  0  0  0  0  0  0  0  0  0
    6.5405   -3.7397   24.7158 O   0  0  0  0  0  0  0  0  0  0  0  0
    6.7322   -0.3228   22.2606 O   0  0  0  0  0  0  0  0  0  0  0  0
    8.7117   -1.0416   20.8744 O   0  0  0  0  0  0  0  0  0  0  0  0
    6.9040   -4.4427   23.5005 S   0  0  0  0  0  0  0  0  0  0  0  0
    7.9115    0.0037   21.4830 S   0  0  0  0  0  0  0  0  0  0  0  0
    8.4038   -0.8099   28.0832 Cl  0  0  0  0  0  0  0  0  0  0  0  0
    9.6840    0.4218   25.8429 H   0  0  0  0  0  0  0  0  0  0  0  0
    8.9241   -3.5231   27.4060 H   0  0  0  0  0  0  0  0  0  0  0  0
   12.1532   -1.7893   21.8600 H   0  0  0  0  0  0  0  0  0  0  0  0
    4.8122   -5.5017   23.2166 H   0  0  0  0  0  0  0  0  0  0  0  0
    6.1584   -6.4531   22.5107 H   0  0  0  0  0  0  0  0  0  0  0  0
    5.9081   -6.4346   24.2863 H   0  0  0  0  0  0  0  0  0  0  0  0
    6.7568    0.5851   19.5067 H   0  0  0  0  0  0  0  0  0  0  0  0
    6.9041    1.9665   20.6406 H   0  0  0  0  0  0  0  0  0  0  0  0
    8.3178    1.4535   19.6638 H   0  0  0  0  0  0  0  0  0  0  0  0
   10.4198   -5.3536   26.4692 H   0  0  0  0  0  0  0  0  0  0  0  0
   10.9541   -5.2492   24.8035 H   0  0  0  0  0  0  0  0  0  0  0  0
   12.2976    0.9440   22.8550 H   0  0  0  0  0  0  0  0  0  0  0  0
   11.1060    1.3802   24.0637 H   0  0  0  0  0  0  0  0  0  0  0  0
    8.9752   -6.7308   24.9956 H   0  0  0  0  0  0  0  0  0  0  0  0
    8.0157   -5.4307   25.7260 H   0  0  0  0  0  0  0  0  0  0  0  0
   10.4616    2.2686   21.8404 H   0  0  0  0  0  0  0  0  0  0  0  0
   10.4871    0.6427   21.1331 H   0  0  0  0  0  0  0  0  0  0  0  0
   11.4904   -3.8401   23.1214 H   0  0  0  0  0  0  0  0  0  0  0  0
    8.7031   -5.8601   22.9391 H   0  0  0  0  0  0  0  0  0  0  0  0
    8.4548    1.8929   22.7855 H   0  0  0  0  0  0  0  0  0  0  0  0
  1  4  1  0  0  0  0
  1  8  2  0  0  0  0
  2  5  2  0  0  0  0
  2  8  1  0  0  0  0
  3  6  2  0  0  0  0
  3 15  1  0  0  0  0
  4  6  1  0  0  0  0
  4  7  2  0  0  0  0
  5  7  1  0  0  0  0
  5 11  1  0  0  0  0
  6 12  1  0  0  0  0
  7 15  1  0  0  0  0
  8 24  1  0  0  0  0
  9 22  1  0  0  0  0
 10 23  1  0  0  0  0
 11 13  1  0  0  0  0
 12 14  1  0  0  0  0
 13 16  1  0  0  0  0
 14 17  1  0  0  0  0
 16 22  1  0  0  0  0
 17 23  1  0  0  0  0
 18 22  2  0  0  0  0
 19 22  2  0  0  0  0
 20 23  2  0  0  0  0
 21 23  2  0  0  0  0
  1 25  1  0  0  0  0
  2 26  1  0  0  0  0
  3 27  1  0  0  0  0
  9 28  1  0  0  0  0
  9 29  1  0  0  0  0
  9 30  1  0  0  0  0
 10 31  1  0  0  0  0
 10 32  1  0  0  0  0
 10 33  1  0  0  0  0
 11 34  1  0  0  0  0
 11 35  1  0  0  0  0
 12 36  1  0  0  0  0
 12 37  1  0  0  0  0
 13 38  1  0  0  0  0
 13 39  1  0  0  0  0
 14 40  1  0  0  0  0
 14 41  1  0  0  0  0
 15 42  1  0  0  0  0
 16 43  1  0  0  0  0
 17 44  1  0  0  0  0
M  END
> <Chemgauss4 Score>
-5.84959268569946

> <Number of Confs>
200

$$$$
CHR-SOS-597-2
  -OEChem-03242005443D

 43 45  0     0  0  0  0  0  0999 V2000
    9.6477   -3.4358   27.3570 C   0  0  0  0  0  0  0  0  0  0  0  0
   12.4697   -0.5306   23.0896 C   0  0  0  0  0  0  0  0  0  0  0  0
    9.5665   -3.9283   26.0592 C   0  0  0  0  0  0  0  0  0  0  0  0
   11.3658   -1.3744   23.1411 C   0  0  0  0  0  0  0  0  0  0  0  0
    9.0443   -4.1674   28.3672 C   0  0  0  0  0  0  0  0  0  0  0  0
   12.4092    0.6603   23.7952 C   0  0  0  0  0  0  0  0  0  0  0  0
    8.3244   -5.7767   26.8941 C   0  0  0  0  0  0  0  0  0  0  0  0
   10.2898    0.2054   24.5563 C   0  0  0  0  0  0  0  0  0  0  0  0
    8.8938   -5.1205   25.8148 C   0  0  0  0  0  0  0  0  0  0  0  0
   10.2509   -1.0067   23.8862 C   0  0  0  0  0  0  0  0  0  0  0  0
    8.9285   -3.0803   23.3440 C   0  0  0  0  0  0  0  0  0  0  0  0
    5.9488   -5.6377   21.9298 C   0  0  0  0  0  0  0  0  0  0  0  0
    5.1937   -5.6141   23.2586 C   0  0  0  0  0  0  0  0  0  0  0  0
    7.4310   -5.7347   22.2838 C   0  0  0  0  0  0  0  0  0  0  0  0
    6.2552   -5.6997   24.3528 C   0  0  0  0  0  0  0  0  0  0  0  0
    7.5400   -5.1653   23.7050 C   0  0  0  0  0  0  0  0  0  0  0  0
    8.7891   -5.6792   24.4236 C   0  0  0  0  0  0  0  0  0  0  0  0
    7.5602   -3.6281   23.6904 C   0  0  0  0  0  0  0  0  0  0  0  0
    8.3824   -5.3292   28.1685 N   0  0  0  0  0  0  0  0  0  0  0  0
   11.3439    1.0515   24.5298 N   0  0  0  0  0  0  0  0  0  0  0  0
    9.1124   -1.8444   23.9575 N   0  0  0  0  0  0  0  0  0  0  0  0
    9.7196   -3.6802   22.6237 O   0  0  0  0  0  0  0  0  0  0  0  0
   10.1671   -2.5088   27.5710 H   0  0  0  0  0  0  0  0  0  0  0  0
   13.3496   -0.7968   22.5152 H   0  0  0  0  0  0  0  0  0  0  0  0
   10.0299   -3.3772   25.2454 H   0  0  0  0  0  0  0  0  0  0  0  0
   11.3849   -2.3153   22.5975 H   0  0  0  0  0  0  0  0  0  0  0  0
    9.0792   -3.8255   29.3964 H   0  0  0  0  0  0  0  0  0  0  0  0
   13.2439    1.3535   23.7865 H   0  0  0  0  0  0  0  0  0  0  0  0
    7.7870   -6.7111   26.7648 H   0  0  0  0  0  0  0  0  0  0  0  0
    9.4501    0.5470   25.1544 H   0  0  0  0  0  0  0  0  0  0  0  0
    5.6361   -6.4779   21.3012 H   0  0  0  0  0  0  0  0  0  0  0  0
    5.7467   -4.7181   21.3687 H   0  0  0  0  0  0  0  0  0  0  0  0
    4.6234   -4.6824   23.3480 H   0  0  0  0  0  0  0  0  0  0  0  0
    4.4790   -6.4401   23.3336 H   0  0  0  0  0  0  0  0  0  0  0  0
    7.7331   -6.7897   22.2664 H   0  0  0  0  0  0  0  0  0  0  0  0
    8.0575   -5.2031   21.5599 H   0  0  0  0  0  0  0  0  0  0  0  0
    5.9626   -5.1414   25.2482 H   0  0  0  0  0  0  0  0  0  0  0  0
    6.3795   -6.7499   24.6466 H   0  0  0  0  0  0  0  0  0  0  0  0
    9.6762   -5.4104   23.8431 H   0  0  0  0  0  0  0  0  0  0  0  0
    8.7618   -6.7721   24.4588 H   0  0  0  0  0  0  0  0  0  0  0  0
    7.2664   -3.2687   24.6765 H   0  0  0  0  0  0  0  0  0  0  0  0
    6.8348   -3.2790   22.9558 H   0  0  0  0  0  0  0  0  0  0  0  0
    8.3468   -1.4900   24.5270 H   0  0  0  0  0  0  0  0  0  0  0  0
  1  3  2  0  0  0  0
  1  5  1  0  0  0  0
  2  4  2  0  0  0  0
  2  6  1  0  0  0  0
  3  9  1  0  0  0  0
  4 10  1  0  0  0  0
  5 19  2  0  0  0  0
  6 20  2  0  0  0  0
  7  9  2  0  0  0  0
  7 19  1  0  0  0  0
  8 10  2  0  0  0  0
  8 20  1  0  0  0  0
  9 17  1  0  0  0  0
 10 21  1  0  0  0  0
 11 18  1  0  0  0  0
 11 21  1  0  0  0  0
 11 22  2  0  0  0  0
 12 13  1  0  0  0  0
 12 14  1  0  0  0  0
 13 15  1  0  0  0  0
 14 16  1  0  0  0  0
 15 16  1  0  0  0  0
 16 17  1  0  0  0  0
 16 18  1  0  0  0  0
  1 23  1  0  0  0  0
  2 24  1  0  0  0  0
  3 25  1  0  0  0  0
  4 26  1  0  0  0  0
  5 27  1  0  0  0  0
  6 28  1  0  0  0  0
  7 29  1  0  0  0  0
  8 30  1  0  0  0  0
 12 31  1  0  0  0  0
 12 32  1  0  0  0  0
 13 33  1  0  0  0  0
 13 34  1  0  0  0  0
 14 35  1  0  0  0  0
 14 36  1  0  0  0  0
 15 37  1  0  0  0  0
 15 38  1  0  0  0  0
 17 39  1  0  0  0  0
 17 40  1  0  0  0  0
 18 41  1  0  0  0  0
 18 42  1  0  0  0  0
 21 43  1  0  0  0  0
M  END
> <Chemgauss4 Score>
-5.8476767539978

> <Number of Confs>
194

$$$$
SAL-INS-1c7-11
  -OEChem-03242005443D

 41 43  0     1  0  0  0  0  0999 V2000
   13.3378    0.0468   22.9992 C   0  0  0  0  0  0  0  0  0  0  0  0
   13.2385   -1.0795   22.1824 C   0  0  0  0  0  0  0  0  0  0  0  0
   12.5597    0.1423   24.1530 C   0  0  0  0  0  0  0  0  0  0  0  0
   12.3611   -2.1102   22.5193 C   0  0  0  0  0  0  0  0  0  0  0  0
   11.6823   -0.8883   24.4899 C   0  0  0  0  0  0  0  0  0  0  0  0
    6.2924   -1.7266   22.2929 C   0  0  0  0  0  0  0  0  0  0  0  0
    5.8010   -1.2426   21.0461 C   0  0  0  0  0  0  0  0  0  0  0  0
   11.5830   -2.0146   23.6731 C   0  0  0  0  0  0  0  0  0  0  0  0
    7.6505   -1.5365   22.4227 C   0  0  0  0  0  0  0  0  0  0  0  0
    6.8024   -0.7007   20.2706 C   0  0  0  0  0  0  0  0  0  0  0  0
    8.8994   -4.7068   27.0910 C   0  0  0  0  0  0  0  0  0  0  0  0
    8.9565   -5.1921   24.6663 C   0  0  0  0  0  0  0  0  0  0  0  0
    8.5581   -4.3207   23.4694 C   0  0  0  0  0  0  0  0  0  0  0  0
   10.3622   -3.3425   25.5505 C   0  0  0  0  0  0  0  0  0  0  0  0
   10.6227   -3.1418   24.0421 C   0  0  1  0  0  0  0  0  0  0  0  0
    8.5397   -1.9040   23.5753 C   0  0  0  0  0  0  0  0  0  0  0  0
    9.3795   -3.8165   28.2117 C   0  0  0  0  0  0  0  0  0  0  0  0
    9.3716   -4.3939   25.8152 N   0  0  0  0  0  0  0  0  0  0  0  0
    9.3504   -3.0897   23.2860 N   0  0  2  0  0  0  0  0  0  0  0  0
    8.1304   -5.6381   27.3391 O   0  0  0  0  0  0  0  0  0  0  0  0
    8.3276   -0.7771   21.0453 S   0  0  0  0  0  0  0  0  0  0  0  0
    8.2356   -2.4835   28.3211 Cl  0  0  0  0  0  0  0  0  0  0  0  0
    6.5398    0.0466   18.5443 Br  0  0  0  0  0  0  0  0  0  0  0  0
   14.0220    0.8486   22.7375 H   0  0  0  0  0  0  0  0  0  0  0  0
   13.8450   -1.1546   21.2846 H   0  0  0  0  0  0  0  0  0  0  0  0
   12.6375    1.0186   24.7898 H   0  0  0  0  0  0  0  0  0  0  0  0
   12.2902   -2.9839   21.8768 H   0  0  0  0  0  0  0  0  0  0  0  0
   11.0799   -0.8052   25.3907 H   0  0  0  0  0  0  0  0  0  0  0  0
    5.6771   -2.1903   23.0534 H   0  0  0  0  0  0  0  0  0  0  0  0
    4.7626   -1.2940   20.7429 H   0  0  0  0  0  0  0  0  0  0  0  0
    8.1247   -5.8574   24.9100 H   0  0  0  0  0  0  0  0  0  0  0  0
    9.8086   -5.8301   24.3980 H   0  0  0  0  0  0  0  0  0  0  0  0
    8.6435   -4.9474   22.5543 H   0  0  0  0  0  0  0  0  0  0  0  0
    7.4743   -4.0725   23.5429 H   0  0  0  0  0  0  0  0  0  0  0  0
   11.2846   -3.6739   26.0362 H   0  0  0  0  0  0  0  0  0  0  0  0
   10.0642   -2.4056   26.0240 H   0  0  0  0  0  0  0  0  0  0  0  0
   11.1446   -4.0919   23.6770 H   0  0  0  0  0  0  0  0  0  0  0  0
    9.2206   -1.0802   23.8157 H   0  0  0  0  0  0  0  0  0  0  0  0
    7.9510   -2.1124   24.4749 H   0  0  0  0  0  0  0  0  0  0  0  0
   10.3659   -3.4413   27.9642 H   0  0  0  0  0  0  0  0  0  0  0  0
    9.3799   -4.3839   29.1353 H   0  0  0  0  0  0  0  0  0  0  0  0
  1  2  1  0  0  0  0
  1  3  2  0  0  0  0
  2  4  2  0  0  0  0
  3  5  1  0  0  0  0
  4  8  1  0  0  0  0
  5  8  2  0  0  0  0
  6  7  1  0  0  0  0
  6  9  2  0  0  0  0
  7 10  2  0  0  0  0
  8 15  1  1  0  0  0
  9 16  1  0  0  0  0
  9 21  1  0  0  0  0
 10 21  1  0  0  0  0
 10 23  1  0  0  0  0
 11 17  1  0  0  0  0
 11 18  1  0  0  0  0
 11 20  2  0  0  0  0
 12 13  1  0  0  0  0
 12 18  1  0  0  0  0
 13 19  1  0  0  0  0
 14 15  1  0  0  0  0
 14 18  1  0  0  0  0
 15 19  1  0  0  0  0
 16 19  1  1  0  0  0
 17 22  1  0  0  0  0
  1 24  1  0  0  0  0
  2 25  1  0  0  0  0
  3 26  1  0  0  0  0
  4 27  1  0  0  0  0
  5 28  1  0  0  0  0
  6 29  1  0  0  0  0
  7 30  1  0  0  0  0
 12 31  1  0  0  0  0
 12 32  1  0  0  0  0
 13 33  1  0  0  0  0
 13 34  1  0  0  0  0
 14 35  1  0  0  0  0
 14 36  1  0  0  0  0
 15 37  1  0  0  0  0
 16 38  1  0  0  0  0
 16 39  1  0  0  0  0
 17 40  1  0  0  0  0
 17 41  1  0  0  0  0
M  END
> <Chemgauss4 Score>
-5.84681415557861

> <Number of Confs>
114

$$$$
CHR-SOS-54d-1
  -OEChem-03242005443D

 48 50  0     1  0  0  0  0  0999 V2000
    8.3061   -1.9140   22.6996 C   0  0  0  0  0  0  0  0  0  0  0  0
    9.4820   -1.7163   22.8417 C   0  0  0  0  0  0  0  0  0  0  0  0
    7.6255   -3.9529   28.2021 C   0  0  0  0  0  0  0  0  0  0  0  0
    8.5233   -3.4238   27.2817 C   0  0  0  0  0  0  0  0  0  0  0  0
    7.3942   -5.3187   28.1711 C   0  0  0  0  0  0  0  0  0  0  0  0
    8.8542   -5.6166   26.4224 C   0  0  0  0  0  0  0  0  0  0  0  0
    9.1536   -4.2648   26.3713 C   0  0  0  0  0  0  0  0  0  0  0  0
   10.4699   -2.4327   25.2520 C   0  0  0  0  0  0  0  0  0  0  0  0
   13.3731    0.0742   22.0780 C   0  0  0  0  0  0  0  0  0  0  0  0
   13.2006   -1.3984   21.7236 C   0  0  0  0  0  0  0  0  0  0  0  0
   12.6935    0.4180   23.3986 C   0  0  0  0  0  0  0  0  0  0  0  0
   11.7262   -1.8084   21.7121 C   0  0  0  0  0  0  0  0  0  0  0  0
   11.2165    0.0175   23.3954 C   0  0  0  0  0  0  0  0  0  0  0  0
    6.4505   -3.5169   23.0706 C   0  0  0  0  0  0  0  0  0  0  0  0
    5.3768   -3.9678   22.1014 C   0  0  0  0  0  0  0  0  0  0  0  0
    6.4542   -2.1831   21.0530 C   0  0  0  0  0  0  0  0  0  0  0  0
    6.8693   -2.1557   22.5260 C   0  0  2  0  0  0  0  0  0  0  0  0
   10.9884   -1.4638   23.0240 C   0  0  0  0  0  0  0  0  0  0  0  0
   11.4694   -2.3390   24.1189 C   0  0  0  0  0  0  0  0  0  0  0  0
    7.9876   -6.1672   27.3019 N   0  0  0  0  0  0  0  0  0  0  0  0
    5.8807   -3.5146   20.8022 N   0  0  0  0  0  0  0  0  0  0  0  0
   10.0720   -3.7556   25.4225 N   0  0  0  0  0  0  0  0  0  0  0  0
   10.1002   -1.4543   25.8928 O   0  0  0  0  0  0  0  0  0  0  0  0
    7.1226   -3.3162   28.9210 H   0  0  0  0  0  0  0  0  0  0  0  0
    8.7244   -2.3558   27.2826 H   0  0  0  0  0  0  0  0  0  0  0  0
    6.7021   -5.7803   28.8676 H   0  0  0  0  0  0  0  0  0  0  0  0
    9.3144   -6.3230   25.7379 H   0  0  0  0  0  0  0  0  0  0  0  0
   14.4424    0.3105   22.1454 H   0  0  0  0  0  0  0  0  0  0  0  0
   12.9594    0.6972   21.2771 H   0  0  0  0  0  0  0  0  0  0  0  0
   13.6509   -1.5960   20.7431 H   0  0  0  0  0  0  0  0  0  0  0  0
   13.7450   -2.0145   22.4486 H   0  0  0  0  0  0  0  0  0  0  0  0
   13.2089   -0.0950   24.2187 H   0  0  0  0  0  0  0  0  0  0  0  0
   12.7884    1.4934   23.5920 H   0  0  0  0  0  0  0  0  0  0  0  0
   11.2319   -1.3326   20.8548 H   0  0  0  0  0  0  0  0  0  0  0  0
   11.6743   -2.8918   21.5386 H   0  0  0  0  0  0  0  0  0  0  0  0
   10.8086    0.2089   24.3971 H   0  0  0  0  0  0  0  0  0  0  0  0
   10.6712    0.6764   22.7069 H   0  0  0  0  0  0  0  0  0  0  0  0
    6.0268   -3.3960   24.0697 H   0  0  0  0  0  0  0  0  0  0  0  0
    7.2639   -4.2393   23.1286 H   0  0  0  0  0  0  0  0  0  0  0  0
    5.2857   -5.0560   22.1088 H   0  0  0  0  0  0  0  0  0  0  0  0
    4.4059   -3.5301   22.3278 H   0  0  0  0  0  0  0  0  0  0  0  0
    5.7196   -1.3937   20.8238 H   0  0  0  0  0  0  0  0  0  0  0  0
    7.3167   -2.0200   20.3819 H   0  0  0  0  0  0  0  0  0  0  0  0
    6.3027   -1.3767   23.0541 H   0  0  0  0  0  0  0  0  0  0  0  0
   12.4079   -1.9348   24.4970 H   0  0  0  0  0  0  0  0  0  0  0  0
   11.6497   -3.3336   23.7123 H   0  0  0  0  0  0  0  0  0  0  0  0
    6.5989   -4.1529   20.4507 H   0  0  0  0  0  0  0  0  0  0  0  0
   10.4818   -4.4480   24.7989 H   0  0  0  0  0  0  0  0  0  0  0  0
  1  2  3  0  0  0  0
  1 17  1  1  0  0  0
  2 18  1  0  0  0  0
  3  4  2  0  0  0  0
  3  5  1  0  0  0  0
  4  7  1  0  0  0  0
  5 20  2  0  0  0  0
  6  7  2  0  0  0  0
  6 20  1  0  0  0  0
  7 22  1  0  0  0  0
  8 19  1  0  0  0  0
  8 22  1  0  0  0  0
  8 23  2  0  0  0  0
  9 10  1  0  0  0  0
  9 11  1  0  0  0  0
 10 12  1  0  0  0  0
 11 13  1  0  0  0  0
 12 18  1  0  0  0  0
 13 18  1  0  0  0  0
 14 15  1  0  0  0  0
 14 17  1  0  0  0  0
 15 21  1  0  0  0  0
 16 17  1  0  0  0  0
 16 21  1  0  0  0  0
 18 19  1  0  0  0  0
  3 24  1  0  0  0  0
  4 25  1  0  0  0  0
  5 26  1  0  0  0  0
  6 27  1  0  0  0  0
  9 28  1  0  0  0  0
  9 29  1  0  0  0  0
 10 30  1  0  0  0  0
 10 31  1  0  0  0  0
 11 32  1  0  0  0  0
 11 33  1  0  0  0  0
 12 34  1  0  0  0  0
 12 35  1  0  0  0  0
 13 36  1  0  0  0  0
 13 37  1  0  0  0  0
 14 38  1  0  0  0  0
 14 39  1  0  0  0  0
 15 40  1  0  0  0  0
 15 41  1  0  0  0  0
 16 42  1  0  0  0  0
 16 43  1  0  0  0  0
 17 44  1  0  0  0  0
 19 45  1  0  0  0  0
 19 46  1  0  0  0  0
 21 47  1  0  0  0  0
 22 48  1  0  0  0  0
M  END
> <Chemgauss4 Score>
-5.8364725112915

> <Number of Confs>
148

$$$$
NIM-UNI-36e-4
  -OEChem-03242005443D

 43 46  0     0  0  0  0  0  0999 V2000
    8.0197   -4.7540   29.3570 C   0  0  0  0  0  0  0  0  0  0  0  0
   11.2121   -2.8487   23.8868 C   0  0  0  0  0  0  0  0  0  0  0  0
   11.0883   -1.5468   23.3699 C   0  0  0  0  0  0  0  0  0  0  0  0
    8.9237   -0.3088   21.1901 C   0  0  0  0  0  0  0  0  0  0  0  0
    8.2163    1.8915   21.8938 C   0  0  0  0  0  0  0  0  0  0  0  0
    8.2257   -3.6243   28.5730 C   0  0  0  0  0  0  0  0  0  0  0  0
    8.0585   -0.2378   20.0982 C   0  0  0  0  0  0  0  0  0  0  0  0
    7.3511    1.9625   20.8019 C   0  0  0  0  0  0  0  0  0  0  0  0
    7.7672   -5.9539   28.7118 C   0  0  0  0  0  0  0  0  0  0  0  0
    7.9146   -4.9735   26.6393 C   0  0  0  0  0  0  0  0  0  0  0  0
   10.3574   -3.3135   24.8961 C   0  0  0  0  0  0  0  0  0  0  0  0
    9.0025    0.7558   22.0879 C   0  0  0  0  0  0  0  0  0  0  0  0
   10.0963   -0.6886   23.8406 C   0  0  0  0  0  0  0  0  0  0  0  0
    8.1737   -3.7276   27.1874 C   0  0  0  0  0  0  0  0  0  0  0  0
    9.3986   -2.4474   25.3899 C   0  0  0  0  0  0  0  0  0  0  0  0
    9.2699   -1.1716   24.8350 C   0  0  0  0  0  0  0  0  0  0  0  0
    7.2723    0.8978   19.9041 C   0  0  0  0  0  0  0  0  0  0  0  0
    7.5896   -1.3928   26.3773 C   0  0  0  0  0  0  0  0  0  0  0  0
   10.5254   -4.6706   25.3912 C   0  0  0  0  0  0  0  0  0  0  0  0
   11.4560   -4.8755   26.5511 C   0  0  0  0  0  0  0  0  0  0  0  0
    9.9436    0.6785   23.2755 C   0  0  0  0  0  0  0  0  0  0  0  0
    7.7091   -6.0933   27.3684 N   0  0  0  0  0  0  0  0  0  0  0  0
    8.1843   -0.5281   25.4212 N   0  0  0  0  0  0  0  0  0  0  0  0
    8.3792   -2.5947   26.3625 N   0  0  0  0  0  0  0  0  0  0  0  0
    6.6249   -1.1122   27.0757 O   0  0  0  0  0  0  0  0  0  0  0  0
    9.9651   -5.6661   24.9275 O   0  0  0  0  0  0  0  0  0  0  0  0
    6.1000    0.9931   18.4249 Br  0  0  0  0  0  0  0  0  0  0  0  0
    8.0556   -4.6968   30.4389 H   0  0  0  0  0  0  0  0  0  0  0  0
   11.9884   -3.4977   23.4860 H   0  0  0  0  0  0  0  0  0  0  0  0
   11.7684   -1.2225   22.5861 H   0  0  0  0  0  0  0  0  0  0  0  0
    9.5326   -1.1976   21.3333 H   0  0  0  0  0  0  0  0  0  0  0  0
    8.2704    2.7254   22.5886 H   0  0  0  0  0  0  0  0  0  0  0  0
    8.4258   -2.6693   29.0517 H   0  0  0  0  0  0  0  0  0  0  0  0
    8.0085   -1.0767   19.4086 H   0  0  0  0  0  0  0  0  0  0  0  0
    6.7456    2.8545   20.6648 H   0  0  0  0  0  0  0  0  0  0  0  0
    7.5989   -6.8638   29.2784 H   0  0  0  0  0  0  0  0  0  0  0  0
    7.8618   -5.1174   25.5642 H   0  0  0  0  0  0  0  0  0  0  0  0
   10.9671   -4.7982   27.5351 H   0  0  0  0  0  0  0  0  0  0  0  0
   12.3087   -4.1790   26.5504 H   0  0  0  0  0  0  0  0  0  0  0  0
   11.9190   -5.8782   26.5662 H   0  0  0  0  0  0  0  0  0  0  0  0
   10.9252    1.0899   22.9760 H   0  0  0  0  0  0  0  0  0  0  0  0
    9.5936    1.3851   24.0508 H   0  0  0  0  0  0  0  0  0  0  0  0
    7.8686    0.4085   25.2008 H   0  0  0  0  0  0  0  0  0  0  0  0
  1  6  2  0  0  0  0
  1  9  1  0  0  0  0
  2  3  2  0  0  0  0
  2 11  1  0  0  0  0
  3 13  1  0  0  0  0
  4  7  2  0  0  0  0
  4 12  1  0  0  0  0
  5  8  1  0  0  0  0
  5 12  2  0  0  0  0
  6 14  1  0  0  0  0
  7 17  1  0  0  0  0
  8 17  2  0  0  0  0
  9 22  2  0  0  0  0
 10 14  2  0  0  0  0
 10 22  1  0  0  0  0
 11 15  2  0  0  0  0
 11 19  1  0  0  0  0
 12 21  1  0  0  0  0
 13 16  2  0  0  0  0
 13 21  1  0  0  0  0
 14 24  1  0  0  0  0
 15 16  1  0  0  0  0
 15 24  1  0  0  0  0
 16 23  1  0  0  0  0
 17 27  1  0  0  0  0
 18 23  1  0  0  0  0
 18 24  1  0  0  0  0
 18 25  2  0  0  0  0
 19 20  1  0  0  0  0
 19 26  2  0  0  0  0
  1 28  1  0  0  0  0
  2 29  1  0  0  0  0
  3 30  1  0  0  0  0
  4 31  1  0  0  0  0
  5 32  1  0  0  0  0
  6 33  1  0  0  0  0
  7 34  1  0  0  0  0
  8 35  1  0  0  0  0
  9 36  1  0  0  0  0
 10 37  1  0  0  0  0
 20 38  1  0  0  0  0
 20 39  1  0  0  0  0
 20 40  1  0  0  0  0
 21 41  1  0  0  0  0
 21 42  1  0  0  0  0
 23 43  1  0  0  0  0
M  END
> <Chemgauss4 Score>
-5.83095788955688

> <Number of Confs>
76

$$$$
JOH-MEM-5e3-5
  -OEChem-03242005443D

 48 51  0     1  0  0  0  0  0999 V2000
   10.8575   -2.4380   22.9315 C   0  0  0  0  0  0  0  0  0  0  0  0
   10.9588   -2.7280   24.2954 C   0  0  0  0  0  0  0  0  0  0  0  0
    8.7525   -1.8035   24.7237 C   0  0  0  0  0  0  0  0  0  0  0  0
    8.6239   -1.5000   23.3557 C   0  0  0  0  0  0  0  0  0  0  0  0
    7.6317   -0.9059   22.5574 C   0  0  0  0  0  0  0  0  0  0  0  0
    9.6826   -1.8241   22.4819 C   0  0  0  0  0  0  0  0  0  0  0  0
    9.9255   -2.4171   25.1778 C   0  0  0  0  0  0  0  0  0  0  0  0
    8.0889   -0.8838   21.2744 C   0  0  0  0  0  0  0  0  0  0  0  0
    7.7371   -5.7912   24.7545 C   0  0  0  0  0  0  0  0  0  0  0  0
    7.4647   -0.1994   19.0433 C   0  0  0  0  0  0  0  0  0  0  0  0
    6.2776   -0.3077   22.6568 C   0  0  0  0  0  0  0  0  0  0  0  0
    5.9859    0.0914   21.1620 C   0  0  0  0  0  0  0  0  0  0  0  0
    8.2284   -4.8295   25.8157 C   0  0  1  0  0  0  0  0  0  0  0  0
    7.5780   -5.1722   27.1521 C   0  0  2  0  0  0  0  0  0  0  0  0
    8.1620   -4.2750   28.2487 C   0  0  2  0  0  0  0  0  0  0  0  0
    9.6899   -4.3628   28.2432 C   0  0  1  0  0  0  0  0  0  0  0  0
   10.2483   -4.0868   26.8419 C   0  0  1  0  0  0  0  0  0  0  0  0
    6.3550    0.4468   18.2521 C   0  0  0  0  0  0  0  0  0  0  0  0
    9.3207   -1.4295   21.1993 N   0  0  0  0  0  0  0  0  0  0  0  0
    7.2031   -0.3229   20.3912 N   0  0  0  0  0  0  0  0  0  0  0  0
    8.4482   -6.5456   24.1076 O   0  0  0  0  0  0  0  0  0  0  0  0
    8.4956   -0.5661   18.4783 O   0  0  0  0  0  0  0  0  0  0  0  0
    9.6492   -4.9615   25.8801 O   0  0  0  0  0  0  0  0  0  0  0  0
    6.3919   -5.7022   24.6137 O   0  0  0  0  0  0  0  0  0  0  0  0
    7.8601   -6.5395   27.4677 O   0  0  0  0  0  0  0  0  0  0  0  0
    7.6713   -4.6818   29.5233 O   0  0  0  0  0  0  0  0  0  0  0  0
   10.2210   -3.4276   29.1766 O   0  0  0  0  0  0  0  0  0  0  0  0
   10.0575   -2.7140   26.5018 O   0  0  0  0  0  0  0  0  0  0  0  0
   11.6645   -2.6818   22.2486 H   0  0  0  0  0  0  0  0  0  0  0  0
   11.8631   -3.2049   24.6670 H   0  0  0  0  0  0  0  0  0  0  0  0
    7.9524   -1.5648   25.4190 H   0  0  0  0  0  0  0  0  0  0  0  0
    5.5427   -1.0343   23.0153 H   0  0  0  0  0  0  0  0  0  0  0  0
    6.2752    0.5755   23.3022 H   0  0  0  0  0  0  0  0  0  0  0  0
    5.1129   -0.4351   20.7630 H   0  0  0  0  0  0  0  0  0  0  0  0
    5.8407    1.1708   21.0498 H   0  0  0  0  0  0  0  0  0  0  0  0
    7.9498   -3.8242   25.4932 H   0  0  0  0  0  0  0  0  0  0  0  0
    6.4885   -5.0744   27.1038 H   0  0  0  0  0  0  0  0  0  0  0  0
    7.8437   -3.2362   28.0996 H   0  0  0  0  0  0  0  0  0  0  0  0
    9.9925   -5.3632   28.5765 H   0  0  0  0  0  0  0  0  0  0  0  0
   11.3283   -4.2712   26.8434 H   0  0  0  0  0  0  0  0  0  0  0  0
    6.5125    1.5200   18.2317 H   0  0  0  0  0  0  0  0  0  0  0  0
    5.4042    0.2201   18.7236 H   0  0  0  0  0  0  0  0  0  0  0  0
    6.3628    0.0511   17.2417 H   0  0  0  0  0  0  0  0  0  0  0  0
    9.8881   -1.5382   20.3692 H   0  0  0  0  0  0  0  0  0  0  0  0
    6.0538   -6.3171   23.9283 H   0  0  0  0  0  0  0  0  0  0  0  0
    8.8243   -6.6124   27.5162 H   0  0  0  0  0  0  0  0  0  0  0  0
    6.7059   -4.5955   29.4884 H   0  0  0  0  0  0  0  0  0  0  0  0
   11.1863   -3.5170   29.1403 H   0  0  0  0  0  0  0  0  0  0  0  0
  1  2  2  0  0  0  0
  1  6  1  0  0  0  0
  2  7  1  0  0  0  0
  3  4  1  0  0  0  0
  3  7  2  0  0  0  0
  4  5  1  0  0  0  0
  4  6  2  0  0  0  0
  5  8  2  0  0  0  0
  5 11  1  0  0  0  0
  6 19  1  0  0  0  0
  7 28  1  0  0  0  0
  8 19  1  0  0  0  0
  8 20  1  0  0  0  0
  9 13  1  1  0  0  0
  9 21  2  0  0  0  0
  9 24  1  0  0  0  0
 10 18  1  0  0  0  0
 10 20  1  0  0  0  0
 10 22  2  0  0  0  0
 11 12  1  0  0  0  0
 12 20  1  0  0  0  0
 13 14  1  0  0  0  0
 13 23  1  0  0  0  0
 14 15  1  0  0  0  0
 14 25  1  1  0  0  0
 15 16  1  0  0  0  0
 15 26  1  1  0  0  0
 16 17  1  0  0  0  0
 16 27  1  6  0  0  0
 17 23  1  0  0  0  0
 17 28  1  1  0  0  0
  1 29  1  0  0  0  0
  2 30  1  0  0  0  0
  3 31  1  0  0  0  0
 11 32  1  0  0  0  0
 11 33  1  0  0  0  0
 12 34  1  0  0  0  0
 12 35  1  0  0  0  0
 13 36  1  0  0  0  0
 14 37  1  0  0  0  0
 15 38  1  0  0  0  0
 16 39  1  0  0  0  0
 17 40  1  0  0  0  0
 18 41  1  0  0  0  0
 18 42  1  0  0  0  0
 18 43  1  0  0  0  0
 19 44  1  0  0  0  0
 24 45  1  0  0  0  0
 25 46  1  0  0  0  0
 26 47  1  0  0  0  0
 27 48  1  0  0  0  0
M  END
> <Chemgauss4 Score>
-5.82239723205566

> <Number of Confs>
67

$$$$
DAR-DIA-842-23
  -OEChem-03242005443D

 32 34  0     0  0  0  0  0  0999 V2000
   11.6941    0.2947   22.8511 C   0  0  0  0  0  0  0  0  0  0  0  0
   11.1413    0.0099   24.0984 C   0  0  0  0  0  0  0  0  0  0  0  0
   10.4731   -2.0437   25.5756 C   0  0  0  0  0  0  0  0  0  0  0  0
   12.0515   -0.7603   22.0224 C   0  0  0  0  0  0  0  0  0  0  0  0
    5.6883   -3.1037   24.7419 C   0  0  0  0  0  0  0  0  0  0  0  0
    5.7706   -5.2397   25.2574 C   0  0  0  0  0  0  0  0  0  0  0  0
   10.9756   -1.3396   24.4495 C   0  0  0  0  0  0  0  0  0  0  0  0
    6.5607   -4.1191   25.1776 C   0  0  0  0  0  0  0  0  0  0  0  0
   10.5811   -3.3911   25.3064 C   0  0  0  0  0  0  0  0  0  0  0  0
   11.3774   -2.2966   23.5221 C   0  0  0  0  0  0  0  0  0  0  0  0
    8.7793   -5.0639   25.9054 C   0  0  0  0  0  0  0  0  0  0  0  0
    3.3447   -5.6750   24.8053 C   0  0  0  0  0  0  0  0  0  0  0  0
   10.2139   -4.5663   26.1188 C   0  0  0  0  0  0  0  0  0  0  0  0
   11.9153   -2.0762   22.3076 N   0  0  0  0  0  0  0  0  0  0  0  0
    4.4396   -3.5407   24.5577 N   0  0  0  0  0  0  0  0  0  0  0  0
   11.1310   -3.5329   24.0588 N   0  0  0  0  0  0  0  0  0  0  0  0
    4.5217   -4.8430   24.8791 N   0  0  0  0  0  0  0  0  0  0  0  0
    7.9418   -4.0378   25.4753 N   0  0  0  0  0  0  0  0  0  0  0  0
    8.4753   -6.2349   26.1091 O   0  0  0  0  0  0  0  0  0  0  0  0
   11.8420    1.3219   22.5358 H   0  0  0  0  0  0  0  0  0  0  0  0
   10.8520    0.8105   24.7717 H   0  0  0  0  0  0  0  0  0  0  0  0
   10.0761   -1.6135   26.4852 H   0  0  0  0  0  0  0  0  0  0  0  0
   12.4842   -0.5564   21.0464 H   0  0  0  0  0  0  0  0  0  0  0  0
    5.9076   -2.0628   24.5508 H   0  0  0  0  0  0  0  0  0  0  0  0
    5.9845   -6.2608   25.5437 H   0  0  0  0  0  0  0  0  0  0  0  0
    2.8439   -5.6377   25.7763 H   0  0  0  0  0  0  0  0  0  0  0  0
    2.6830   -5.3008   24.0193 H   0  0  0  0  0  0  0  0  0  0  0  0
    3.6412   -6.7000   24.5659 H   0  0  0  0  0  0  0  0  0  0  0  0
   10.8909   -5.4199   25.9153 H   0  0  0  0  0  0  0  0  0  0  0  0
   10.3322   -4.3554   27.2003 H   0  0  0  0  0  0  0  0  0  0  0  0
   11.3262   -4.4127   23.6011 H   0  0  0  0  0  0  0  0  0  0  0  0
    8.3733   -3.1228   25.3618 H   0  0  0  0  0  0  0  0  0  0  0  0
  1  2  2  0  0  0  0
  1  4  1  0  0  0  0
  2  7  1  0  0  0  0
  3  7  1  0  0  0  0
  3  9  2  0  0  0  0
  4 14  2  0  0  0  0
  5  8  1  0  0  0  0
  5 15  2  0  0  0  0
  6  8  2  0  0  0  0
  6 17  1  0  0  0  0
  7 10  2  0  0  0  0
  8 18  1  0  0  0  0
  9 13  1  0  0  0  0
  9 16  1  0  0  0  0
 10 14  1  0  0  0  0
 10 16  1  0  0  0  0
 11 13  1  0  0  0  0
 11 18  1  0  0  0  0
 11 19  2  0  0  0  0
 12 17  1  0  0  0  0
 15 17  1  0  0  0  0
  1 20  1  0  0  0  0
  2 21  1  0  0  0  0
  3 22  1  0  0  0  0
  4 23  1  0  0  0  0
  5 24  1  0  0  0  0
  6 25  1  0  0  0  0
 12 26  1  0  0  0  0
 12 27  1  0  0  0  0
 12 28  1  0  0  0  0
 13 29  1  0  0  0  0
 13 30  1  0  0  0  0
 16 31  1  0  0  0  0
 18 32  1  0  0  0  0
M  END
> <Chemgauss4 Score>
-5.81948137283325

> <Number of Confs>
68

$$$$
ANN-UNI-263-7
  -OEChem-03242005443D

 37 39  0     1  0  0  0  0  0999 V2000
   12.0190    0.1790   24.0984 C   0  0  0  0  0  0  0  0  0  0  0  0
   11.5014   -1.3345   22.3023 C   0  0  0  0  0  0  0  0  0  0  0  0
    7.6022   -4.6090   23.2828 C   0  0  0  0  0  0  0  0  0  0  0  0
   13.3318    0.1703   23.6554 C   0  0  0  0  0  0  0  0  0  0  0  0
   12.8374   -1.2753   21.9396 C   0  0  0  0  0  0  0  0  0  0  0  0
    6.7340   -5.4820   22.6652 C   0  0  0  0  0  0  0  0  0  0  0  0
    6.0809   -5.0208   24.9912 C   0  0  0  0  0  0  0  0  0  0  0  0
    7.2240   -4.3418   24.6304 C   0  0  0  0  0  0  0  0  0  0  0  0
   11.0925   -0.5904   23.4034 C   0  0  0  0  0  0  0  0  0  0  0  0
    9.9022   -5.1351   25.6567 C   0  0  0  0  0  0  0  0  0  0  0  0
    8.0259   -1.9755   25.0314 C   0  0  0  0  0  0  0  0  0  0  0  0
   10.2486   -2.7455   24.8706 C   0  0  0  0  0  0  0  0  0  0  0  0
    7.9930   -3.4148   25.5592 C   0  0  2  0  0  0  0  0  0  0  0  0
    9.4863   -3.7022   25.7943 C   0  0  1  0  0  0  0  0  0  0  0  0
    9.6565   -0.6183   23.8406 C   0  0  0  0  0  0  0  0  0  0  0  0
   13.7665   -0.5395   22.5901 N   0  0  0  0  0  0  0  0  0  0  0  0
    9.2182   -1.9612   24.1834 N   0  0  2  0  0  0  0  0  0  0  0  0
   11.2337   -5.3538   25.9201 N   0  0  0  0  0  0  0  0  0  0  0  0
    9.1057   -6.0196   25.3520 O   0  0  0  0  0  0  0  0  0  0  0  0
    5.4689   -5.9758   23.7083 S   0  0  0  0  0  0  0  0  0  0  0  0
   11.7321    0.7698   24.9618 H   0  0  0  0  0  0  0  0  0  0  0  0
   10.8025   -1.9440   21.7399 H   0  0  0  0  0  0  0  0  0  0  0  0
    8.4662   -4.1841   22.7876 H   0  0  0  0  0  0  0  0  0  0  0  0
   14.0933    0.7528   24.1638 H   0  0  0  0  0  0  0  0  0  0  0  0
   13.2067   -1.8372   21.0881 H   0  0  0  0  0  0  0  0  0  0  0  0
    6.7815   -5.8530   21.6511 H   0  0  0  0  0  0  0  0  0  0  0  0
    5.5721   -5.0037   25.9451 H   0  0  0  0  0  0  0  0  0  0  0  0
    7.1348   -1.6977   24.4665 H   0  0  0  0  0  0  0  0  0  0  0  0
    8.1360   -1.2873   25.8748 H   0  0  0  0  0  0  0  0  0  0  0  0
   10.9089   -2.0940   25.4770 H   0  0  0  0  0  0  0  0  0  0  0  0
   10.8925   -3.2802   24.1470 H   0  0  0  0  0  0  0  0  0  0  0  0
    7.4702   -3.4089   26.5152 H   0  0  0  0  0  0  0  0  0  0  0  0
    9.7309   -3.4307   26.8753 H   0  0  0  0  0  0  0  0  0  0  0  0
    9.5078    0.0194   24.7189 H   0  0  0  0  0  0  0  0  0  0  0  0
    8.9978   -0.2426   23.0506 H   0  0  0  0  0  0  0  0  0  0  0  0
   11.8154   -4.5634   26.1779 H   0  0  0  0  0  0  0  0  0  0  0  0
   11.6582   -6.2741   25.8670 H   0  0  0  0  0  0  0  0  0  0  0  0
  1  4  2  0  0  0  0
  1  9  1  0  0  0  0
  2  5  1  0  0  0  0
  2  9  2  0  0  0  0
  3  6  2  0  0  0  0
  3  8  1  0  0  0  0
  4 16  1  0  0  0  0
  5 16  2  0  0  0  0
  6 20  1  0  0  0  0
  7  8  2  0  0  0  0
  7 20  1  0  0  0  0
  8 13  1  0  0  0  0
  9 15  1  0  0  0  0
 10 14  1  0  0  0  0
 10 18  1  0  0  0  0
 10 19  2  0  0  0  0
 11 13  1  0  0  0  0
 11 17  1  0  0  0  0
 12 14  1  0  0  0  0
 12 17  1  0  0  0  0
 13 14  1  0  0  0  0
 15 17  1  6  0  0  0
  1 21  1  0  0  0  0
  2 22  1  0  0  0  0
  3 23  1  0  0  0  0
  4 24  1  0  0  0  0
  5 25  1  0  0  0  0
  6 26  1  0  0  0  0
  7 27  1  0  0  0  0
 11 28  1  0  0  0  0
 11 29  1  0  0  0  0
 12 30  1  0  0  0  0
 12 31  1  0  0  0  0
 13 32  1  6  0  0  0
 14 33  1  1  0  0  0
 15 34  1  0  0  0  0
 15 35  1  0  0  0  0
 18 36  1  0  0  0  0
 18 37  1  0  0  0  0
M  END
> <Chemgauss4 Score>
-5.78348684310913

> <Number of Confs>
94

$$$$
DAR-DIA-fc9-4
  -OEChem-03242005443D

 35 37  0     1  0  0  0  0  0999 V2000
   13.1726   -0.5829   22.6404 C   0  0  0  0  0  0  0  0  0  0  0  0
   12.6000   -0.1281   23.8281 C   0  0  0  0  0  0  0  0  0  0  0  0
   12.4103   -1.3246   21.7378 C   0  0  0  0  0  0  0  0  0  0  0  0
    9.1493   -3.5722   27.6971 C   0  0  0  0  0  0  0  0  0  0  0  0
    8.4521   -2.8132   26.7638 C   0  0  0  0  0  0  0  0  0  0  0  0
   11.2651   -0.4150   24.1135 C   0  0  0  0  0  0  0  0  0  0  0  0
   11.0754   -1.6114   22.0231 C   0  0  0  0  0  0  0  0  0  0  0  0
    8.9958   -4.9487   27.6585 C   0  0  0  0  0  0  0  0  0  0  0  0
    7.5488   -4.8271   25.8782 C   0  0  0  0  0  0  0  0  0  0  0  0
    7.6343   -3.4449   25.8336 C   0  0  0  0  0  0  0  0  0  0  0  0
   10.5027   -1.1566   23.2109 C   0  0  0  0  0  0  0  0  0  0  0  0
    8.3293   -0.5846   24.2813 C   0  0  0  0  0  0  0  0  0  0  0  0
    7.0148   -1.1240   24.8225 C   0  0  0  0  0  0  0  0  0  0  0  0
    7.1532   -3.0782   23.3668 C   0  0  0  0  0  0  0  0  0  0  0  0
    8.5664   -2.7035   22.9417 C   0  0  0  0  0  0  0  0  0  0  0  0
    6.8582   -2.6422   24.7982 C   0  0  1  0  0  0  0  0  0  0  0  0
    8.2108   -5.5981   26.7699 N   0  0  0  0  0  0  0  0  0  0  0  0
    9.1117   -1.4553   23.5084 N   0  0  0  0  0  0  0  0  0  0  0  0
    8.6018    0.5942   24.5280 O   0  0  0  0  0  0  0  0  0  0  0  0
   14.2117   -0.3591   22.4175 H   0  0  0  0  0  0  0  0  0  0  0  0
   13.1929    0.4501   24.5306 H   0  0  0  0  0  0  0  0  0  0  0  0
   12.8562   -1.6777   20.8125 H   0  0  0  0  0  0  0  0  0  0  0  0
    9.7927   -3.1012   28.4315 H   0  0  0  0  0  0  0  0  0  0  0  0
    8.5520   -1.7312   26.7687 H   0  0  0  0  0  0  0  0  0  0  0  0
   10.8295   -0.0551   25.0423 H   0  0  0  0  0  0  0  0  0  0  0  0
   10.4909   -2.1902   21.3122 H   0  0  0  0  0  0  0  0  0  0  0  0
    9.5180   -5.5851   28.3654 H   0  0  0  0  0  0  0  0  0  0  0  0
    6.9266   -5.3754   25.1776 H   0  0  0  0  0  0  0  0  0  0  0  0
    6.9065   -0.7340   25.8522 H   0  0  0  0  0  0  0  0  0  0  0  0
    6.1978   -0.6631   24.2371 H   0  0  0  0  0  0  0  0  0  0  0  0
    6.4294   -2.6191   22.6662 H   0  0  0  0  0  0  0  0  0  0  0  0
    7.0119   -4.1717   23.2556 H   0  0  0  0  0  0  0  0  0  0  0  0
    9.2543   -3.5279   23.1954 H   0  0  0  0  0  0  0  0  0  0  0  0
    8.5961   -2.5878   21.8443 H   0  0  0  0  0  0  0  0  0  0  0  0
    5.7527   -2.8794   24.9849 H   0  0  0  0  0  0  0  0  0  0  0  0
  1  2  1  0  0  0  0
  1  3  2  0  0  0  0
  2  6  2  0  0  0  0
  3  7  1  0  0  0  0
  4  5  2  0  0  0  0
  4  8  1  0  0  0  0
  5 10  1  0  0  0  0
  6 11  1  0  0  0  0
  7 11  2  0  0  0  0
  8 17  2  0  0  0  0
  9 10  2  0  0  0  0
  9 17  1  0  0  0  0
 10 16  1  6  0  0  0
 11 18  1  0  0  0  0
 12 13  1  0  0  0  0
 12 18  1  0  0  0  0
 12 19  2  0  0  0  0
 13 16  1  0  0  0  0
 14 15  1  0  0  0  0
 14 16  1  0  0  0  0
 15 18  1  0  0  0  0
  1 20  1  0  0  0  0
  2 21  1  0  0  0  0
  3 22  1  0  0  0  0
  4 23  1  0  0  0  0
  5 24  1  0  0  0  0
  6 25  1  0  0  0  0
  7 26  1  0  0  0  0
  8 27  1  0  0  0  0
  9 28  1  0  0  0  0
 13 29  1  0  0  0  0
 13 30  1  0  0  0  0
 14 31  1  0  0  0  0
 14 32  1  0  0  0  0
 15 33  1  0  0  0  0
 15 34  1  0  0  0  0
 16 35  1  0  0  0  0
M  END
> <Chemgauss4 Score>
-5.78253269195557

> <Number of Confs>
28

$$$$
KIM-UNI-60f-10
  -OEChem-03242005443D

 43 45  0     1  0  0  0  0  0999 V2000
   12.7170   -0.8917   22.7255 C   0  0  0  0  0  0  0  0  0  0  0  0
   12.6011    0.2064   23.5625 C   0  0  0  0  0  0  0  0  0  0  0  0
   10.5054   -0.4306   24.2556 C   0  0  0  0  0  0  0  0  0  0  0  0
   11.6537   -1.7861   22.6744 C   0  0  0  0  0  0  0  0  0  0  0  0
   10.5230   -1.5584   23.4509 C   0  0  0  0  0  0  0  0  0  0  0  0
    7.1008   -4.0299   23.4035 C   0  0  0  0  0  0  0  0  0  0  0  0
    7.1818   -3.0278   22.5285 C   0  0  0  0  0  0  0  0  0  0  0  0
    8.1709   -4.3433   24.3330 C   0  0  0  0  0  0  0  0  0  0  0  0
    9.2796   -3.5578   24.3120 C   0  0  0  0  0  0  0  0  0  0  0  0
    8.3759   -2.1533   22.5031 C   0  0  0  0  0  0  0  0  0  0  0  0
    5.8399   -4.7560   27.1238 C   0  0  0  0  0  0  0  0  0  0  0  0
   10.4674   -3.9381   25.1809 C   0  0  0  0  0  0  0  0  0  0  0  0
   10.4477   -5.4046   25.6065 C   0  0  0  0  0  0  0  0  0  0  0  0
    9.0853   -5.7855   26.1619 C   0  0  0  0  0  0  0  0  0  0  0  0
   11.7515   -2.9783   21.7801 C   0  0  0  0  0  0  0  0  0  0  0  0
    6.2036   -6.1683   26.7027 C   0  0  0  0  0  0  0  0  0  0  0  0
    6.8132   -6.2452   25.3097 C   0  0  0  0  0  0  0  0  0  0  0  0
   11.5189    0.4609   24.3316 N   0  0  0  0  0  0  0  0  0  0  0  0
    9.3946   -2.4558   23.4337 N   0  0  0  0  0  0  0  0  0  0  0  0
    8.0344   -5.4488   25.1954 N   0  0  3  0  0  0  0  0  0  0  0  0
    5.9290   -4.5779   28.4881 N   0  0  0  0  0  0  0  0  0  0  0  0
    8.3704   -1.2102   21.7105 O   0  0  0  0  0  0  0  0  0  0  0  0
    5.5139   -3.8680   26.3415 O   0  0  0  0  0  0  0  0  0  0  0  0
   13.6129   -1.0404   22.1324 H   0  0  0  0  0  0  0  0  0  0  0  0
   13.4026    0.9338   23.6384 H   0  0  0  0  0  0  0  0  0  0  0  0
    9.6512   -0.1987   24.8849 H   0  0  0  0  0  0  0  0  0  0  0  0
    6.1849   -4.6101   23.4233 H   0  0  0  0  0  0  0  0  0  0  0  0
    6.3938   -2.8396   21.8084 H   0  0  0  0  0  0  0  0  0  0  0  0
   11.3899   -3.7216   24.6277 H   0  0  0  0  0  0  0  0  0  0  0  0
   10.4875   -3.3369   26.0974 H   0  0  0  0  0  0  0  0  0  0  0  0
   10.6939   -6.0420   24.7496 H   0  0  0  0  0  0  0  0  0  0  0  0
   11.2197   -5.5827   26.3665 H   0  0  0  0  0  0  0  0  0  0  0  0
    9.0457   -6.8609   26.3735 H   0  0  0  0  0  0  0  0  0  0  0  0
    8.9323   -5.2548   27.1089 H   0  0  0  0  0  0  0  0  0  0  0  0
   12.1949   -3.8229   22.3202 H   0  0  0  0  0  0  0  0  0  0  0  0
   10.7633   -3.2792   21.4112 H   0  0  0  0  0  0  0  0  0  0  0  0
   12.3693   -2.7633   20.8993 H   0  0  0  0  0  0  0  0  0  0  0  0
    5.3047   -6.7940   26.7615 H   0  0  0  0  0  0  0  0  0  0  0  0
    6.9281   -6.5505   27.4318 H   0  0  0  0  0  0  0  0  0  0  0  0
    7.0635   -7.2757   25.0375 H   0  0  0  0  0  0  0  0  0  0  0  0
    6.1093   -5.8544   24.5685 H   0  0  0  0  0  0  0  0  0  0  0  0
    6.2142   -5.3614   29.0661 H   0  0  0  0  0  0  0  0  0  0  0  0
    5.7193   -3.6909   28.9347 H   0  0  0  0  0  0  0  0  0  0  0  0
  1  2  2  0  0  0  0
  1  4  1  0  0  0  0
  2 18  1  0  0  0  0
  3  5  1  0  0  0  0
  3 18  2  0  0  0  0
  4  5  2  0  0  0  0
  4 15  1  0  0  0  0
  5 19  1  0  0  0  0
  6  7  2  0  0  0  0
  6  8  1  0  0  0  0
  7 10  1  0  0  0  0
  8  9  2  0  0  0  0
  8 20  1  0  0  0  0
  9 12  1  0  0  0  0
  9 19  1  0  0  0  0
 10 19  1  0  0  0  0
 10 22  2  0  0  0  0
 11 16  1  0  0  0  0
 11 21  1  0  0  0  0
 11 23  2  0  0  0  0
 12 13  1  0  0  0  0
 13 14  1  0  0  0  0
 14 20  1  0  0  0  0
 16 17  1  0  0  0  0
 17 20  1  6  0  0  0
  1 24  1  0  0  0  0
  2 25  1  0  0  0  0
  3 26  1  0  0  0  0
  6 27  1  0  0  0  0
  7 28  1  0  0  0  0
 12 29  1  0  0  0  0
 12 30  1  0  0  0  0
 13 31  1  0  0  0  0
 13 32  1  0  0  0  0
 14 33  1  0  0  0  0
 14 34  1  0  0  0  0
 15 35  1  0  0  0  0
 15 36  1  0  0  0  0
 15 37  1  0  0  0  0
 16 38  1  0  0  0  0
 16 39  1  0  0  0  0
 17 40  1  0  0  0  0
 17 41  1  0  0  0  0
 21 42  1  0  0  0  0
 21 43  1  0  0  0  0
M  END
> <Chemgauss4 Score>
-5.78234243392944

> <Number of Confs>
40

$$$$
DUN-NEW-f8c-1
  -OEChem-03242005443D

 42 44  0     1  0  0  0  0  0999 V2000
    4.6599   -5.2262   23.2047 C   0  0  0  0  0  0  0  0  0  0  0  0
    4.8756   -5.3471   24.5775 C   0  0  0  0  0  0  0  0  0  0  0  0
    5.5763   -4.5341   22.4130 C   0  0  0  0  0  0  0  0  0  0  0  0
    6.0077   -4.7758   25.1586 C   0  0  0  0  0  0  0  0  0  0  0  0
    6.7084   -3.9628   22.9941 C   0  0  0  0  0  0  0  0  0  0  0  0
    6.9241   -4.0836   24.3669 C   0  0  0  0  0  0  0  0  0  0  0  0
    9.6009   -4.9950   26.3581 C   0  0  0  0  0  0  0  0  0  0  0  0
   12.0182   -2.0342   22.5561 C   0  0  0  0  0  0  0  0  0  0  0  0
   11.1166   -0.6993   24.4810 C   0  0  0  0  0  0  0  0  0  0  0  0
    8.6668   -2.1986   24.2826 C   0  0  0  0  0  0  0  0  0  0  0  0
   10.5323   -3.5691   24.5380 C   0  0  0  0  0  0  0  0  0  0  0  0
   12.9797   -0.8811   22.2985 C   0  0  0  0  0  0  0  0  0  0  0  0
   12.1274    0.3799   24.1144 C   0  0  0  0  0  0  0  0  0  0  0  0
    8.1551   -3.4620   24.9981 C   0  0  2  0  0  0  0  0  0  0  0  0
    9.3575   -4.4261   24.9949 C   0  0  2  0  0  0  0  0  0  0  0  0
   10.7521   -1.5358   23.2535 C   0  0  0  0  0  0  0  0  0  0  0  0
    9.8932   -2.6372   23.6105 N   0  0  2  0  0  0  0  0  0  0  0  0
   10.7134   -5.7994   26.4326 N   0  0  0  0  0  0  0  0  0  0  0  0
    8.8704   -4.7393   27.3122 O   0  0  0  0  0  0  0  0  0  0  0  0
   13.2865   -0.1963   23.5128 O   0  0  0  0  0  0  0  0  0  0  0  0
    3.7790   -5.6723   22.7522 H   0  0  0  0  0  0  0  0  0  0  0  0
    4.1627   -5.8870   25.1939 H   0  0  0  0  0  0  0  0  0  0  0  0
    5.4093   -4.4407   21.3440 H   0  0  0  0  0  0  0  0  0  0  0  0
    6.1674   -4.8749   26.2290 H   0  0  0  0  0  0  0  0  0  0  0  0
    7.4169   -3.4252   22.3694 H   0  0  0  0  0  0  0  0  0  0  0  0
   11.7262   -2.4648   21.5934 H   0  0  0  0  0  0  0  0  0  0  0  0
   12.5101   -2.8205   23.1327 H   0  0  0  0  0  0  0  0  0  0  0  0
   11.4980   -1.3222   25.2916 H   0  0  0  0  0  0  0  0  0  0  0  0
   10.2054   -0.2128   24.8397 H   0  0  0  0  0  0  0  0  0  0  0  0
    7.9467   -1.7770   23.5727 H   0  0  0  0  0  0  0  0  0  0  0  0
    8.8915   -1.4337   25.0381 H   0  0  0  0  0  0  0  0  0  0  0  0
   11.0053   -3.0508   25.3829 H   0  0  0  0  0  0  0  0  0  0  0  0
   11.2947   -4.1766   24.0382 H   0  0  0  0  0  0  0  0  0  0  0  0
   13.9085   -1.2208   21.8247 H   0  0  0  0  0  0  0  0  0  0  0  0
   12.5155   -0.1577   21.6198 H   0  0  0  0  0  0  0  0  0  0  0  0
   11.6852    1.0681   23.3873 H   0  0  0  0  0  0  0  0  0  0  0  0
   12.4254    0.9717   24.9873 H   0  0  0  0  0  0  0  0  0  0  0  0
    7.8620   -3.1936   26.0468 H   0  0  0  0  0  0  0  0  0  0  0  0
    9.2045   -5.2641   24.3000 H   0  0  0  0  0  0  0  0  0  0  0  0
   10.1933   -0.8896   22.5420 H   0  0  0  0  0  0  0  0  0  0  0  0
   11.2667   -5.9442   25.5945 H   0  0  0  0  0  0  0  0  0  0  0  0
   11.0034   -6.2542   27.2923 H   0  0  0  0  0  0  0  0  0  0  0  0
  1  2  1  0  0  0  0
  1  3  2  0  0  0  0
  2  4  2  0  0  0  0
  3  5  1  0  0  0  0
  4  6  1  0  0  0  0
  5  6  2  0  0  0  0
  6 14  1  0  0  0  0
  7 15  1  0  0  0  0
  7 18  1  0  0  0  0
  7 19  2  0  0  0  0
  8 12  1  0  0  0  0
  8 16  1  0  0  0  0
  9 13  1  0  0  0  0
  9 16  1  0  0  0  0
 10 14  1  0  0  0  0
 10 17  1  0  0  0  0
 11 15  1  0  0  0  0
 11 17  1  0  0  0  0
 12 20  1  0  0  0  0
 13 20  1  0  0  0  0
 14 15  1  0  0  0  0
 16 17  1  6  0  0  0
  1 21  1  0  0  0  0
  2 22  1  0  0  0  0
  3 23  1  0  0  0  0
  4 24  1  0  0  0  0
  5 25  1  0  0  0  0
  8 26  1  0  0  0  0
  8 27  1  0  0  0  0
  9 28  1  0  0  0  0
  9 29  1  0  0  0  0
 10 30  1  0  0  0  0
 10 31  1  0  0  0  0
 11 32  1  0  0  0  0
 11 33  1  0  0  0  0
 12 34  1  0  0  0  0
 12 35  1  0  0  0  0
 13 36  1  0  0  0  0
 13 37  1  0  0  0  0
 14 38  1  6  0  0  0
 15 39  1  6  0  0  0
 16 40  1  0  0  0  0
 18 41  1  0  0  0  0
 18 42  1  0  0  0  0
M  END
> <Chemgauss4 Score>
-5.77880239486694

> <Number of Confs>
27

$$$$
MIH-UNI-6b9-4
  -OEChem-03242005443D

 36 38  0     1  0  0  0  0  0999 V2000
   12.9582   -0.5639   22.6267 C   0  0  0  0  0  0  0  0  0  0  0  0
   12.2701   -1.7706   22.5676 C   0  0  0  0  0  0  0  0  0  0  0  0
    8.2204   -4.2855   28.6930 C   0  0  0  0  0  0  0  0  0  0  0  0
   12.3939    0.4694   23.3571 C   0  0  0  0  0  0  0  0  0  0  0  0
   10.5766   -0.8120   23.9349 C   0  0  0  0  0  0  0  0  0  0  0  0
    7.8533   -3.2298   29.4982 C   0  0  0  0  0  0  0  0  0  0  0  0
    9.1537   -2.4930   27.5448 C   0  0  0  0  0  0  0  0  0  0  0  0
    8.9738   -3.8588   27.5614 C   0  0  0  0  0  0  0  0  0  0  0  0
   11.0557   -1.9053   23.2313 C   0  0  0  0  0  0  0  0  0  0  0  0
    8.4320   -5.7030   25.8598 C   0  0  0  0  0  0  0  0  0  0  0  0
   10.3523   -4.1820   25.3580 C   0  0  0  0  0  0  0  0  0  0  0  0
    9.5156   -4.8047   26.4945 C   0  0  1  0  0  0  0  0  0  0  0  0
    7.6527   -5.0370   24.7195 C   0  0  1  0  0  0  0  0  0  0  0  0
    9.4881   -3.5510   24.2609 C   0  0  1  0  0  0  0  0  0  0  0  0
   11.2166    0.3762   24.0151 N   0  0  0  0  0  0  0  0  0  0  0  0
    6.6509   -4.0844   25.1936 N   0  0  0  0  0  0  0  0  0  0  0  0
   10.3487   -3.0940   23.1905 N   0  0  0  0  0  0  0  0  0  0  0  0
    8.5466   -4.4906   23.7439 O   0  0  0  0  0  0  0  0  0  0  0  0
    8.4163   -1.7315   28.8896 S   0  0  0  0  0  0  0  0  0  0  0  0
   13.9064   -0.4361   22.1171 H   0  0  0  0  0  0  0  0  0  0  0  0
   12.6884   -2.5990   22.0021 H   0  0  0  0  0  0  0  0  0  0  0  0
    7.9583   -5.3136   28.9091 H   0  0  0  0  0  0  0  0  0  0  0  0
   12.8909    1.4308   23.4345 H   0  0  0  0  0  0  0  0  0  0  0  0
    9.6345   -0.8562   24.4730 H   0  0  0  0  0  0  0  0  0  0  0  0
    7.2810   -3.2666   30.4144 H   0  0  0  0  0  0  0  0  0  0  0  0
    9.6810   -1.9021   26.8088 H   0  0  0  0  0  0  0  0  0  0  0  0
    8.8987   -6.6507   25.5051 H   0  0  0  0  0  0  0  0  0  0  0  0
    7.7207   -6.0174   26.6592 H   0  0  0  0  0  0  0  0  0  0  0  0
   10.9843   -3.3897   25.7888 H   0  0  0  0  0  0  0  0  0  0  0  0
   11.0457   -4.9218   24.9328 H   0  0  0  0  0  0  0  0  0  0  0  0
   10.2084   -5.5172   27.0563 H   0  0  0  0  0  0  0  0  0  0  0  0
    7.0660   -5.8593   24.1810 H   0  0  0  0  0  0  0  0  0  0  0  0
    8.9530   -2.7165   24.6476 H   0  0  0  0  0  0  0  0  0  0  0  0
    6.7181   -4.0310   26.1820 H   0  0  0  0  0  0  0  0  0  0  0  0
    6.8426   -3.2032   24.7800 H   0  0  0  0  0  0  0  0  0  0  0  0
   10.4358   -3.6800   22.3698 H   0  0  0  0  0  0  0  0  0  0  0  0
  1  2  2  0  0  0  0
  1  4  1  0  0  0  0
  2  9  1  0  0  0  0
  3  6  2  0  0  0  0
  3  8  1  0  0  0  0
  4 15  2  0  0  0  0
  5  9  2  0  0  0  0
  5 15  1  0  0  0  0
  6 19  1  0  0  0  0
  7  8  2  0  0  0  0
  7 19  1  0  0  0  0
  8 12  1  0  0  0  0
  9 17  1  0  0  0  0
 10 12  1  0  0  0  0
 10 13  1  0  0  0  0
 11 12  1  0  0  0  0
 11 14  1  0  0  0  0
 13 16  1  0  0  0  0
 13 18  1  0  0  0  0
 14 17  1  0  0  0  0
 14 18  1  0  0  0  0
  1 20  1  0  0  0  0
  2 21  1  0  0  0  0
  3 22  1  0  0  0  0
  4 23  1  0  0  0  0
  5 24  1  0  0  0  0
  6 25  1  0  0  0  0
  7 26  1  0  0  0  0
 10 27  1  0  0  0  0
 10 28  1  0  0  0  0
 11 29  1  0  0  0  0
 11 30  1  0  0  0  0
 12 31  1  1  0  0  0
 13 32  1  6  0  0  0
 14 33  1  6  0  0  0
 16 34  1  0  0  0  0
 16 35  1  0  0  0  0
 17 36  1  0  0  0  0
M  END
> <Chemgauss4 Score>
-5.77264451980591

> <Number of Confs>
82

$$$$
JOO-PER-74f-1
  -OEChem-03242005443D

 34 35  0     0  0  0  0  0  0999 V2000
    7.8992   -5.6518   27.3659 C   0  0  0  0  0  0  0  0  0  0  0  0
   11.4234    0.2704   23.9216 C   0  0  0  0  0  0  0  0  0  0  0  0
   12.5002    0.0445   23.0644 C   0  0  0  0  0  0  0  0  0  0  0  0
   10.4704   -0.7282   24.1226 C   0  0  0  0  0  0  0  0  0  0  0  0
   11.6712   -2.1787   22.6089 C   0  0  0  0  0  0  0  0  0  0  0  0
   12.6241   -1.1800   22.4080 C   0  0  0  0  0  0  0  0  0  0  0  0
   10.5943   -1.9527   23.4662 C   0  0  0  0  0  0  0  0  0  0  0  0
    9.8894   -5.1017   25.9938 C   0  0  0  0  0  0  0  0  0  0  0  0
    7.5837   -5.0599   24.9791 C   0  0  0  0  0  0  0  0  0  0  0  0
    9.8456   -3.5689   26.0372 C   0  0  0  0  0  0  0  0  0  0  0  0
    7.6277   -3.5286   25.0608 C   0  0  0  0  0  0  0  0  0  0  0  0
    8.4914   -5.7305   26.0167 C   0  0  0  0  0  0  0  0  0  0  0  0
   13.7766   -1.4214   21.4926 C   0  0  0  0  0  0  0  0  0  0  0  0
    9.5682   -3.0273   23.6820 C   0  0  0  0  0  0  0  0  0  0  0  0
    7.4335   -5.5900   28.4268 N   0  0  0  0  0  0  0  0  0  0  0  0
    8.9810   -2.9620   25.0182 N   0  0  0  0  0  0  0  0  0  0  0  0
   11.3271    1.2239   24.4329 H   0  0  0  0  0  0  0  0  0  0  0  0
   13.2382    0.8283   22.9144 H   0  0  0  0  0  0  0  0  0  0  0  0
    9.6343   -0.5432   24.7918 H   0  0  0  0  0  0  0  0  0  0  0  0
   11.7677   -3.1339   22.0981 H   0  0  0  0  0  0  0  0  0  0  0  0
   10.4009   -5.4118   25.0732 H   0  0  0  0  0  0  0  0  0  0  0  0
   10.4942   -5.4721   26.8300 H   0  0  0  0  0  0  0  0  0  0  0  0
    6.5478   -5.4006   25.0930 H   0  0  0  0  0  0  0  0  0  0  0  0
    7.9077   -5.3666   23.9760 H   0  0  0  0  0  0  0  0  0  0  0  0
    9.5449   -3.2343   27.0539 H   0  0  0  0  0  0  0  0  0  0  0  0
   10.8839   -3.2000   25.9050 H   0  0  0  0  0  0  0  0  0  0  0  0
    7.0355   -3.1303   24.2109 H   0  0  0  0  0  0  0  0  0  0  0  0
    7.0913   -3.1897   25.9737 H   0  0  0  0  0  0  0  0  0  0  0  0
    8.5838   -6.7951   25.7629 H   0  0  0  0  0  0  0  0  0  0  0  0
   14.6209   -1.8501   22.0463 H   0  0  0  0  0  0  0  0  0  0  0  0
   13.5050   -2.1114   20.6833 H   0  0  0  0  0  0  0  0  0  0  0  0
   14.1096   -0.4895   21.0171 H   0  0  0  0  0  0  0  0  0  0  0  0
    8.7562   -2.9380   22.9521 H   0  0  0  0  0  0  0  0  0  0  0  0
   10.0089   -4.0221   23.5582 H   0  0  0  0  0  0  0  0  0  0  0  0
  1 12  1  0  0  0  0
  1 15  3  0  0  0  0
  2  3  2  0  0  0  0
  2  4  1  0  0  0  0
  3  6  1  0  0  0  0
  4  7  2  0  0  0  0
  5  6  2  0  0  0  0
  5  7  1  0  0  0  0
  6 13  1  0  0  0  0
  7 14  1  0  0  0  0
  8 10  1  0  0  0  0
  8 12  1  0  0  0  0
  9 11  1  0  0  0  0
  9 12  1  0  0  0  0
 10 16  1  0  0  0  0
 11 16  1  0  0  0  0
 14 16  1  0  0  0  0
  2 17  1  0  0  0  0
  3 18  1  0  0  0  0
  4 19  1  0  0  0  0
  5 20  1  0  0  0  0
  8 21  1  0  0  0  0
  8 22  1  0  0  0  0
  9 23  1  0  0  0  0
  9 24  1  0  0  0  0
 10 25  1  0  0  0  0
 10 26  1  0  0  0  0
 11 27  1  0  0  0  0
 11 28  1  0  0  0  0
 12 29  1  0  0  0  0
 13 30  1  0  0  0  0
 13 31  1  0  0  0  0
 13 32  1  0  0  0  0
 14 33  1  0  0  0  0
 14 34  1  0  0  0  0
M  END
> <Chemgauss4 Score>
-5.76726293563843

> <Number of Confs>
37

$$$$
HEI-REL-0c9-1
  -OEChem-03242005443D

 51 53  0     1  0  0  0  0  0999 V2000
   11.2120   -4.2258   24.7579 C   0  0  0  0  0  0  0  0  0  0  0  0
   10.3294   -4.8832   25.6067 C   0  0  0  0  0  0  0  0  0  0  0  0
    8.8624   -2.9671   25.5249 C   0  0  0  0  0  0  0  0  0  0  0  0
   10.9295   -2.9284   24.2941 C   0  0  0  0  0  0  0  0  0  0  0  0
    9.7298   -2.2719   24.6581 C   0  0  0  0  0  0  0  0  0  0  0  0
    9.1554   -4.2521   25.9927 C   0  0  0  0  0  0  0  0  0  0  0  0
    5.1467    1.3067   19.4246 C   0  0  0  0  0  0  0  0  0  0  0  0
   11.9219   -2.2763   23.3648 C   0  0  0  0  0  0  0  0  0  0  0  0
   11.7437   -0.7656   23.3391 C   0  0  0  0  0  0  0  0  0  0  0  0
    6.7671    1.5644   21.3648 C   0  0  0  0  0  0  0  0  0  0  0  0
    6.1976   -0.6640   20.4850 C   0  0  0  0  0  0  0  0  0  0  0  0
    8.2319    1.1303   21.4423 C   0  0  0  0  0  0  0  0  0  0  0  0
    7.6729   -1.0532   20.5735 C   0  0  0  0  0  0  0  0  0  0  0  0
   10.2781   -0.3703   23.1523 C   0  0  1  0  0  0  0  0  0  0  0  0
    5.0362    0.5686   18.1143 C   0  0  0  0  0  0  0  0  0  0  0  0
    8.4173   -0.1688   24.8206 C   0  0  0  0  0  0  0  0  0  0  0  0
    9.7435   -0.7200   21.7614 C   0  0  0  0  0  0  0  0  0  0  0  0
    9.4389   -0.9922   24.1852 N   0  0  3  0  0  0  0  0  0  0  0  0
    6.0372    0.7840   20.3613 N   0  0  0  0  0  0  0  0  0  0  0  0
    8.3408   -0.3199   21.6587 N   0  0  0  0  0  0  0  0  0  0  0  0
    8.8515   -6.5490   27.3105 N   0  0  0  0  0  0  0  0  0  0  0  0
    4.4593    2.3141   19.6102 O   0  0  0  0  0  0  0  0  0  0  0  0
    7.9929   -4.3377   28.3196 O   0  0  0  0  0  0  0  0  0  0  0  0
    6.8069   -5.3270   26.3291 O   0  0  0  0  0  0  0  0  0  0  0  0
    8.0389   -5.0671   27.0603 S   0  0  0  0  0  0  0  0  0  0  0  0
   12.1293   -4.7265   24.4572 H   0  0  0  0  0  0  0  0  0  0  0  0
   10.5670   -5.8829   25.9587 H   0  0  0  0  0  0  0  0  0  0  0  0
    7.9277   -2.5143   25.8489 H   0  0  0  0  0  0  0  0  0  0  0  0
   12.9453   -2.5040   23.6864 H   0  0  0  0  0  0  0  0  0  0  0  0
   11.7915   -2.6947   22.3599 H   0  0  0  0  0  0  0  0  0  0  0  0
   12.1081   -0.3394   24.2838 H   0  0  0  0  0  0  0  0  0  0  0  0
   12.3637   -0.3338   22.5446 H   0  0  0  0  0  0  0  0  0  0  0  0
    6.2663    1.3968   22.3264 H   0  0  0  0  0  0  0  0  0  0  0  0
    6.7204    2.6355   21.1584 H   0  0  0  0  0  0  0  0  0  0  0  0
    5.7294   -1.1793   19.6400 H   0  0  0  0  0  0  0  0  0  0  0  0
    5.6628   -0.9722   21.3919 H   0  0  0  0  0  0  0  0  0  0  0  0
    8.7490    1.4260   20.5252 H   0  0  0  0  0  0  0  0  0  0  0  0
    8.6984    1.6583   22.2772 H   0  0  0  0  0  0  0  0  0  0  0  0
    7.7293   -2.1262   20.7708 H   0  0  0  0  0  0  0  0  0  0  0  0
    8.1615   -0.8603   19.6143 H   0  0  0  0  0  0  0  0  0  0  0  0
   10.2278    0.7213   23.2596 H   0  0  0  0  0  0  0  0  0  0  0  0
    4.2599   -0.1849   18.1958 H   0  0  0  0  0  0  0  0  0  0  0  0
    5.9881    0.0978   17.8903 H   0  0  0  0  0  0  0  0  0  0  0  0
    4.7868    1.2749   17.3290 H   0  0  0  0  0  0  0  0  0  0  0  0
    8.3457    0.7962   24.2975 H   0  0  0  0  0  0  0  0  0  0  0  0
    7.4473   -0.6853   24.7713 H   0  0  0  0  0  0  0  0  0  0  0  0
    8.6877    0.0037   25.8728 H   0  0  0  0  0  0  0  0  0  0  0  0
   10.3527   -0.1799   21.0402 H   0  0  0  0  0  0  0  0  0  0  0  0
    9.8479   -1.7959   21.6405 H   0  0  0  0  0  0  0  0  0  0  0  0
    9.2725   -6.7181   28.2322 H   0  0  0  0  0  0  0  0  0  0  0  0
    8.4626   -7.3921   26.8708 H   0  0  0  0  0  0  0  0  0  0  0  0
  1  2  2  0  0  0  0
  1  4  1  0  0  0  0
  2  6  1  0  0  0  0
  3  5  1  0  0  0  0
  3  6  2  0  0  0  0
  4  5  2  0  0  0  0
  4  8  1  0  0  0  0
  5 18  1  0  0  0  0
  6 25  1  0  0  0  0
  7 15  1  0  0  0  0
  7 19  1  0  0  0  0
  7 22  2  0  0  0  0
  8  9  1  0  0  0  0
  9 14  1  0  0  0  0
 10 12  1  0  0  0  0
 10 19  1  0  0  0  0
 11 13  1  0  0  0  0
 11 19  1  0  0  0  0
 12 20  1  0  0  0  0
 13 20  1  0  0  0  0
 14 17  1  1  0  0  0
 14 18  1  0  0  0  0
 16 18  1  1  0  0  0
 17 20  1  0  0  0  0
 21 25  1  0  0  0  0
 23 25  2  0  0  0  0
 24 25  2  0  0  0  0
  1 26  1  0  0  0  0
  2 27  1  0  0  0  0
  3 28  1  0  0  0  0
  8 29  1  0  0  0  0
  8 30  1  0  0  0  0
  9 31  1  0  0  0  0
  9 32  1  0  0  0  0
 10 33  1  0  0  0  0
 10 34  1  0  0  0  0
 11 35  1  0  0  0  0
 11 36  1  0  0  0  0
 12 37  1  0  0  0  0
 12 38  1  0  0  0  0
 13 39  1  0  0  0  0
 13 40  1  0  0  0  0
 14 41  1  0  0  0  0
 15 42  1  0  0  0  0
 15 43  1  0  0  0  0
 15 44  1  0  0  0  0
 16 45  1  0  0  0  0
 16 46  1  0  0  0  0
 16 47  1  0  0  0  0
 17 48  1  0  0  0  0
 17 49  1  0  0  0  0
 21 50  1  0  0  0  0
 21 51  1  0  0  0  0
M  END
> <Chemgauss4 Score>
-5.75841474533081

> <Number of Confs>
37

$$$$
ANT-DIA-b7f-2
  -OEChem-03242005443D

 27 27  0     0  0  0  0  0  0999 V2000
    8.6655   -2.9354   26.1414 C   0  0  0  0  0  0  0  0  0  0  0  0
    8.2697   -2.1622   25.0501 C   0  0  0  0  0  0  0  0  0  0  0  0
    9.2982   -4.1613   25.9349 C   0  0  0  0  0  0  0  0  0  0  0  0
    9.1390   -3.8408   23.5455 C   0  0  0  0  0  0  0  0  0  0  0  0
    8.5064   -2.6149   23.7521 C   0  0  0  0  0  0  0  0  0  0  0  0
    9.5349   -4.6140   24.6369 C   0  0  0  0  0  0  0  0  0  0  0  0
   13.0144   -1.0842   22.0148 C   0  0  0  0  0  0  0  0  0  0  0  0
    8.0777   -1.7785   22.5716 C   0  0  0  0  0  0  0  0  0  0  0  0
    9.1580   -0.8042   22.1084 C   0  0  0  0  0  0  0  0  0  0  0  0
   10.3866   -1.4893   21.6681 N   0  0  0  0  0  0  0  0  0  0  0  0
   11.8370   -3.2553   22.8813 O   0  0  0  0  0  0  0  0  0  0  0  0
   11.3376   -1.0585   24.0131 O   0  0  0  0  0  0  0  0  0  0  0  0
   10.1528   -5.8100   24.4354 O   0  0  0  0  0  0  0  0  0  0  0  0
   11.6083   -1.8253   22.8122 S   0  0  0  0  0  0  0  0  0  0  0  0
    8.4817   -2.5826   27.1519 H   0  0  0  0  0  0  0  0  0  0  0  0
    7.7771   -1.2086   25.2209 H   0  0  0  0  0  0  0  0  0  0  0  0
    9.6040   -4.7588   26.7891 H   0  0  0  0  0  0  0  0  0  0  0  0
    9.3246   -4.1964   22.5347 H   0  0  0  0  0  0  0  0  0  0  0  0
   13.8877   -1.2285   22.6528 H   0  0  0  0  0  0  0  0  0  0  0  0
   13.1604   -1.5729   21.0503 H   0  0  0  0  0  0  0  0  0  0  0  0
   12.8119   -0.0209   21.8783 H   0  0  0  0  0  0  0  0  0  0  0  0
    7.1782   -1.2160   22.8519 H   0  0  0  0  0  0  0  0  0  0  0  0
    7.7785   -2.4326   21.7426 H   0  0  0  0  0  0  0  0  0  0  0  0
    8.7959   -0.2249   21.2531 H   0  0  0  0  0  0  0  0  0  0  0  0
    9.4370   -0.1032   22.9019 H   0  0  0  0  0  0  0  0  0  0  0  0
   10.2321   -2.1916   20.9331 H   0  0  0  0  0  0  0  0  0  0  0  0
   10.2452   -5.9849   23.4853 H   0  0  0  0  0  0  0  0  0  0  0  0
  1  2  2  0  0  0  0
  1  3  1  0  0  0  0
  2  5  1  0  0  0  0
  3  6  2  0  0  0  0
  4  5  2  0  0  0  0
  4  6  1  0  0  0  0
  5  8  1  0  0  0  0
  6 13  1  0  0  0  0
  7 14  1  0  0  0  0
  8  9  1  0  0  0  0
  9 10  1  0  0  0  0
 10 14  1  0  0  0  0
 11 14  2  0  0  0  0
 12 14  2  0  0  0  0
  1 15  1  0  0  0  0
  2 16  1  0  0  0  0
  3 17  1  0  0  0  0
  4 18  1  0  0  0  0
  7 19  1  0  0  0  0
  7 20  1  0  0  0  0
  7 21  1  0  0  0  0
  8 22  1  0  0  0  0
  8 23  1  0  0  0  0
  9 24  1  0  0  0  0
  9 25  1  0  0  0  0
 10 26  1  0  0  0  0
 13 27  1  0  0  0  0
M  END
> <Chemgauss4 Score>
-5.75530576705933

> <Number of Confs>
166

$$$$
JOH-MSK-a63-9
  -OEChem-03242005443D

 31 32  0     0  0  0  0  0  0999 V2000
    9.3103   -5.0717   27.5585 C   0  0  0  0  0  0  0  0  0  0  0  0
    8.4373   -4.4379   28.4473 C   0  0  0  0  0  0  0  0  0  0  0  0
    8.3289   -2.4702   27.0284 C   0  0  0  0  0  0  0  0  0  0  0  0
   10.5790   -3.7355   24.4406 C   0  0  0  0  0  0  0  0  0  0  0  0
    9.2082   -3.0890   26.1176 C   0  0  0  0  0  0  0  0  0  0  0  0
    9.7851   -2.6998   24.8763 C   0  0  0  0  0  0  0  0  0  0  0  0
    9.6776   -4.3729   26.4031 C   0  0  0  0  0  0  0  0  0  0  0  0
    7.9529   -3.1572   28.1883 C   0  0  0  0  0  0  0  0  0  0  0  0
   12.2606    0.1386   24.1566 C   0  0  0  0  0  0  0  0  0  0  0  0
   12.8853   -1.3795   22.4023 C   0  0  0  0  0  0  0  0  0  0  0  0
    9.5757   -1.4185   24.1727 C   0  0  0  0  0  0  0  0  0  0  0  0
   10.5777   -1.1569   23.0334 C   0  0  0  0  0  0  0  0  0  0  0  0
   10.5075   -4.7402   25.3680 N   0  0  0  0  0  0  0  0  0  0  0  0
   11.9377   -1.1382   23.5013 N   0  0  0  0  0  0  0  0  0  0  0  0
    7.1022   -2.5653   29.0735 O   0  0  0  0  0  0  0  0  0  0  0  0
    9.6872   -6.0686   27.7614 H   0  0  0  0  0  0  0  0  0  0  0  0
    8.1367   -4.9584   29.3537 H   0  0  0  0  0  0  0  0  0  0  0  0
    7.9456   -1.4720   26.8348 H   0  0  0  0  0  0  0  0  0  0  0  0
   11.1885   -3.8488   23.5548 H   0  0  0  0  0  0  0  0  0  0  0  0
   11.5520    0.3191   24.9784 H   0  0  0  0  0  0  0  0  0  0  0  0
   13.2840    0.0963   24.5577 H   0  0  0  0  0  0  0  0  0  0  0  0
   12.1876    0.9556   23.4237 H   0  0  0  0  0  0  0  0  0  0  0  0
   12.6438   -2.3342   21.9123 H   0  0  0  0  0  0  0  0  0  0  0  0
   12.8122   -0.5625   21.6694 H   0  0  0  0  0  0  0  0  0  0  0  0
   13.9087   -1.4218   22.8034 H   0  0  0  0  0  0  0  0  0  0  0  0
    9.6480   -0.5755   24.8881 H   0  0  0  0  0  0  0  0  0  0  0  0
    8.5478   -1.3467   23.7629 H   0  0  0  0  0  0  0  0  0  0  0  0
   10.5173   -1.9391   22.2701 H   0  0  0  0  0  0  0  0  0  0  0  0
   10.3809   -0.1936   22.5514 H   0  0  0  0  0  0  0  0  0  0  0  0
   10.9939   -5.6237   25.3033 H   0  0  0  0  0  0  0  0  0  0  0  0
    6.8532   -1.6824   28.7587 H   0  0  0  0  0  0  0  0  0  0  0  0
  1  2  2  0  0  0  0
  1  7  1  0  0  0  0
  2  8  1  0  0  0  0
  3  5  1  0  0  0  0
  3  8  2  0  0  0  0
  4  6  2  0  0  0  0
  4 13  1  0  0  0  0
  5  6  1  0  0  0  0
  5  7  2  0  0  0  0
  6 11  1  0  0  0  0
  7 13  1  0  0  0  0
  8 15  1  0  0  0  0
  9 14  1  0  0  0  0
 10 14  1  0  0  0  0
 11 12  1  0  0  0  0
 12 14  1  0  0  0  0
  1 16  1  0  0  0  0
  2 17  1  0  0  0  0
  3 18  1  0  0  0  0
  4 19  1  0  0  0  0
  9 20  1  0  0  0  0
  9 21  1  0  0  0  0
  9 22  1  0  0  0  0
 10 23  1  0  0  0  0
 10 24  1  0  0  0  0
 10 25  1  0  0  0  0
 11 26  1  0  0  0  0
 11 27  1  0  0  0  0
 12 28  1  0  0  0  0
 12 29  1  0  0  0  0
 13 30  1  0  0  0  0
 15 31  1  0  0  0  0
M  END
> <Chemgauss4 Score>
-5.7353892326355

> <Number of Confs>
16

$$$$
CHR-SOS-54d-2
  -OEChem-03242005443D

 48 50  0     1  0  0  0  0  0999 V2000
    8.7816   -1.4907   22.7354 C   0  0  0  0  0  0  0  0  0  0  0  0
    9.9812   -1.4620   22.7796 C   0  0  0  0  0  0  0  0  0  0  0  0
    8.2918   -3.9580   28.0804 C   0  0  0  0  0  0  0  0  0  0  0  0
    9.1734   -3.4609   27.1270 C   0  0  0  0  0  0  0  0  0  0  0  0
    7.8735   -5.2729   27.9539 C   0  0  0  0  0  0  0  0  0  0  0  0
    9.1267   -5.5826   26.0534 C   0  0  0  0  0  0  0  0  0  0  0  0
    9.6036   -4.2822   26.0908 C   0  0  0  0  0  0  0  0  0  0  0  0
   11.0603   -2.5337   25.0125 C   0  0  0  0  0  0  0  0  0  0  0  0
   14.0034   -0.1213   21.8022 C   0  0  0  0  0  0  0  0  0  0  0  0
   13.6012   -1.5173   21.3400 C   0  0  0  0  0  0  0  0  0  0  0  0
   13.4907    0.1753   23.2069 C   0  0  0  0  0  0  0  0  0  0  0  0
    6.5461   -0.8795   24.8799 C   0  0  0  0  0  0  0  0  0  0  0  0
    6.7071   -2.0857   23.9609 C   0  0  0  0  0  0  0  0  0  0  0  0
   12.0888   -1.7306   21.4353 C   0  0  0  0  0  0  0  0  0  0  0  0
   11.9777   -0.0292   23.3114 C   0  0  0  0  0  0  0  0  0  0  0  0
    6.7007    0.3382   23.9799 C   0  0  0  0  0  0  0  0  0  0  0  0
    7.3117   -1.5259   22.6813 C   0  0  1  0  0  0  0  0  0  0  0  0
   11.5180   -1.4249   22.8371 C   0  0  0  0  0  0  0  0  0  0  0  0
   11.9645   -2.4584   23.8007 C   0  0  0  0  0  0  0  0  0  0  0  0
    8.2696   -6.1009   26.9614 N   0  0  0  0  0  0  0  0  0  0  0  0
    6.7227   -0.1871   22.6166 N   0  0  0  0  0  0  0  0  0  0  0  0
   10.5002   -3.8047   25.1055 N   0  0  0  0  0  0  0  0  0  0  0  0
   10.8835   -1.5839   25.7681 O   0  0  0  0  0  0  0  0  0  0  0  0
    7.9432   -3.3358   28.8968 H   0  0  0  0  0  0  0  0  0  0  0  0
    9.5185   -2.4330   27.2009 H   0  0  0  0  0  0  0  0  0  0  0  0
    7.1854   -5.7077   28.6713 H   0  0  0  0  0  0  0  0  0  0  0  0
    9.4264   -6.2715   25.2693 H   0  0  0  0  0  0  0  0  0  0  0  0
   15.0968   -0.0326   21.7865 H   0  0  0  0  0  0  0  0  0  0  0  0
   13.6133    0.6257   21.1018 H   0  0  0  0  0  0  0  0  0  0  0  0
   13.9362   -1.6736   20.3074 H   0  0  0  0  0  0  0  0  0  0  0  0
   14.1148   -2.2669   21.9533 H   0  0  0  0  0  0  0  0  0  0  0  0
   13.9978   -0.4782   23.9261 H   0  0  0  0  0  0  0  0  0  0  0  0
   13.7483    1.2052   23.4826 H   0  0  0  0  0  0  0  0  0  0  0  0
    5.5676   -0.8990   25.3717 H   0  0  0  0  0  0  0  0  0  0  0  0
    7.3160   -0.8790   25.6594 H   0  0  0  0  0  0  0  0  0  0  0  0
    7.3147   -2.8700   24.4260 H   0  0  0  0  0  0  0  0  0  0  0  0
    5.7152   -2.5105   23.7570 H   0  0  0  0  0  0  0  0  0  0  0  0
   11.5942   -1.1129   20.6740 H   0  0  0  0  0  0  0  0  0  0  0  0
   11.8742   -2.7759   21.1746 H   0  0  0  0  0  0  0  0  0  0  0  0
   11.6854    0.1134   24.3606 H   0  0  0  0  0  0  0  0  0  0  0  0
   11.4722    0.7591   22.7383 H   0  0  0  0  0  0  0  0  0  0  0  0
    5.8837    1.0534   24.1176 H   0  0  0  0  0  0  0  0  0  0  0  0
    7.6383    0.8623   24.1972 H   0  0  0  0  0  0  0  0  0  0  0  0
    7.0003   -2.1245   21.8160 H   0  0  0  0  0  0  0  0  0  0  0  0
   12.9780   -2.2178   24.1202 H   0  0  0  0  0  0  0  0  0  0  0  0
   11.9717   -3.4230   23.2942 H   0  0  0  0  0  0  0  0  0  0  0  0
    5.7565   -0.2725   22.2953 H   0  0  0  0  0  0  0  0  0  0  0  0
   10.7573   -4.4792   24.3878 H   0  0  0  0  0  0  0  0  0  0  0  0
  1  2  3  0  0  0  0
  1 17  1  6  0  0  0
  2 18  1  0  0  0  0
  3  4  2  0  0  0  0
  3  5  1  0  0  0  0
  4  7  1  0  0  0  0
  5 20  2  0  0  0  0
  6  7  2  0  0  0  0
  6 20  1  0  0  0  0
  7 22  1  0  0  0  0
  8 19  1  0  0  0  0
  8 22  1  0  0  0  0
  8 23  2  0  0  0  0
  9 10  1  0  0  0  0
  9 11  1  0  0  0  0
 10 14  1  0  0  0  0
 11 15  1  0  0  0  0
 12 13  1  0  0  0  0
 12 16  1  0  0  0  0
 13 17  1  0  0  0  0
 14 18  1  0  0  0  0
 15 18  1  0  0  0  0
 16 21  1  0  0  0  0
 17 21  1  0  0  0  0
 18 19  1  0  0  0  0
  3 24  1  0  0  0  0
  4 25  1  0  0  0  0
  5 26  1  0  0  0  0
  6 27  1  0  0  0  0
  9 28  1  0  0  0  0
  9 29  1  0  0  0  0
 10 30  1  0  0  0  0
 10 31  1  0  0  0  0
 11 32  1  0  0  0  0
 11 33  1  0  0  0  0
 12 34  1  0  0  0  0
 12 35  1  0  0  0  0
 13 36  1  0  0  0  0
 13 37  1  0  0  0  0
 14 38  1  0  0  0  0
 14 39  1  0  0  0  0
 15 40  1  0  0  0  0
 15 41  1  0  0  0  0
 16 42  1  0  0  0  0
 16 43  1  0  0  0  0
 17 44  1  0  0  0  0
 19 45  1  0  0  0  0
 19 46  1  0  0  0  0
 21 47  1  0  0  0  0
 22 48  1  0  0  0  0
M  END
> <Chemgauss4 Score>
-5.733567237854

> <Number of Confs>
146

$$$$
CHR-SOS-b30-5
  -OEChem-03242005443D

 44 46  0     0  0  0  0  0  0999 V2000
    7.7023   -2.7316   23.3803 C   0  0  0  0  0  0  0  0  0  0  0  0
    8.8146   -2.2957   23.5046 C   0  0  0  0  0  0  0  0  0  0  0  0
    7.0126   -6.0126   27.7716 C   0  0  0  0  0  0  0  0  0  0  0  0
    7.7801   -5.5449   26.7107 C   0  0  0  0  0  0  0  0  0  0  0  0
    5.5422   -3.3962   24.3266 C   0  0  0  0  0  0  0  0  0  0  0  0
    7.1547   -5.3875   28.9999 C   0  0  0  0  0  0  0  0  0  0  0  0
    4.2760   -3.9014   24.1099 C   0  0  0  0  0  0  0  0  0  0  0  0
    5.8898   -3.6165   21.9944 C   0  0  0  0  0  0  0  0  0  0  0  0
    8.7224   -3.9248   28.1747 C   0  0  0  0  0  0  0  0  0  0  0  0
    6.3766   -3.2487   23.2326 C   0  0  0  0  0  0  0  0  0  0  0  0
    8.6539   -4.4815   26.9078 C   0  0  0  0  0  0  0  0  0  0  0  0
   10.3614   -2.9340   25.8918 C   0  0  0  0  0  0  0  0  0  0  0  0
   10.2465    0.8162   22.1340 C   0  0  0  0  0  0  0  0  0  0  0  0
   10.2578   -0.5241   21.4078 C   0  0  0  0  0  0  0  0  0  0  0  0
    9.5374    0.7203   23.4802 C   0  0  0  0  0  0  0  0  0  0  0  0
   10.8608   -1.6317   22.2747 C   0  0  0  0  0  0  0  0  0  0  0  0
   10.1365   -0.3812   24.3576 C   0  0  0  0  0  0  0  0  0  0  0  0
   10.1865   -1.7569   23.6581 C   0  0  0  0  0  0  0  0  0  0  0  0
   10.9882   -2.7406   24.5275 C   0  0  0  0  0  0  0  0  0  0  0  0
    7.9928   -4.3519   29.2297 N   0  0  0  0  0  0  0  0  0  0  0  0
    3.8259   -4.2531   22.8868 N   0  0  0  0  0  0  0  0  0  0  0  0
    4.6462   -4.1085   21.8117 N   0  0  0  0  0  0  0  0  0  0  0  0
    9.4482   -3.9837   25.8475 N   0  0  0  0  0  0  0  0  0  0  0  0
   10.6526   -2.2394   26.8599 O   0  0  0  0  0  0  0  0  0  0  0  0
    6.3249   -6.8403   27.6409 H   0  0  0  0  0  0  0  0  0  0  0  0
    7.6896   -6.0160   25.7355 H   0  0  0  0  0  0  0  0  0  0  0  0
    5.8595   -3.1273   25.3290 H   0  0  0  0  0  0  0  0  0  0  0  0
    6.5791   -5.7154   29.8593 H   0  0  0  0  0  0  0  0  0  0  0  0
    3.5754   -4.0406   24.9249 H   0  0  0  0  0  0  0  0  0  0  0  0
    6.4842   -3.5303   21.0908 H   0  0  0  0  0  0  0  0  0  0  0  0
    9.3855   -3.0923   28.3905 H   0  0  0  0  0  0  0  0  0  0  0  0
   11.2781    1.1563   22.2884 H   0  0  0  0  0  0  0  0  0  0  0  0
    9.7529    1.5697   21.5101 H   0  0  0  0  0  0  0  0  0  0  0  0
    9.2353   -0.7930   21.1160 H   0  0  0  0  0  0  0  0  0  0  0  0
   10.8347   -0.4318   20.4803 H   0  0  0  0  0  0  0  0  0  0  0  0
    9.6110    1.6821   24.0009 H   0  0  0  0  0  0  0  0  0  0  0  0
    8.4690    0.5308   23.3204 H   0  0  0  0  0  0  0  0  0  0  0  0
   10.8009   -2.5825   21.7287 H   0  0  0  0  0  0  0  0  0  0  0  0
   11.9297   -1.4171   22.4085 H   0  0  0  0  0  0  0  0  0  0  0  0
   11.1543   -0.0783   24.6387 H   0  0  0  0  0  0  0  0  0  0  0  0
    9.5620   -0.4435   25.2912 H   0  0  0  0  0  0  0  0  0  0  0  0
   11.9992   -2.3521   24.6458 H   0  0  0  0  0  0  0  0  0  0  0  0
   11.0345   -3.6991   24.0115 H   0  0  0  0  0  0  0  0  0  0  0  0
    9.3281   -4.4575   24.9546 H   0  0  0  0  0  0  0  0  0  0  0  0
  1  2  3  0  0  0  0
  1 10  1  0  0  0  0
  2 18  1  0  0  0  0
  3  4  2  0  0  0  0
  3  6  1  0  0  0  0
  4 11  1  0  0  0  0
  5  7  2  0  0  0  0
  5 10  1  0  0  0  0
  6 20  2  0  0  0  0
  7 21  1  0  0  0  0
  8 10  2  0  0  0  0
  8 22  1  0  0  0  0
  9 11  2  0  0  0  0
  9 20  1  0  0  0  0
 11 23  1  0  0  0  0
 12 19  1  0  0  0  0
 12 23  1  0  0  0  0
 12 24  2  0  0  0  0
 13 14  1  0  0  0  0
 13 15  1  0  0  0  0
 14 16  1  0  0  0  0
 15 17  1  0  0  0  0
 16 18  1  0  0  0  0
 17 18  1  0  0  0  0
 18 19  1  0  0  0  0
 21 22  2  0  0  0  0
  3 25  1  0  0  0  0
  4 26  1  0  0  0  0
  5 27  1  0  0  0  0
  6 28  1  0  0  0  0
  7 29  1  0  0  0  0
  8 30  1  0  0  0  0
  9 31  1  0  0  0  0
 13 32  1  0  0  0  0
 13 33  1  0  0  0  0
 14 34  1  0  0  0  0
 14 35  1  0  0  0  0
 15 36  1  0  0  0  0
 15 37  1  0  0  0  0
 16 38  1  0  0  0  0
 16 39  1  0  0  0  0
 17 40  1  0  0  0  0
 17 41  1  0  0  0  0
 19 42  1  0  0  0  0
 19 43  1  0  0  0  0
 23 44  1  0  0  0  0
M  END
> <Chemgauss4 Score>
-5.73310661315918

> <Number of Confs>
77

$$$$
CHR-SOS-f73-5
  -OEChem-03242005443D

 40 42  0     0  0  0  0  0  0999 V2000
   10.3323   -4.4030   27.0467 C   0  0  0  0  0  0  0  0  0  0  0  0
   13.1106   -1.4515   22.0950 C   0  0  0  0  0  0  0  0  0  0  0  0
    9.5423   -3.8862   26.0259 C   0  0  0  0  0  0  0  0  0  0  0  0
   11.7702   -1.6199   22.4239 C   0  0  0  0  0  0  0  0  0  0  0  0
    9.8785   -4.2690   28.3490 C   0  0  0  0  0  0  0  0  0  0  0  0
   13.8629   -0.5798   22.8656 C   0  0  0  0  0  0  0  0  0  0  0  0
    7.9750   -3.1775   27.6684 C   0  0  0  0  0  0  0  0  0  0  0  0
   12.0672   -0.0734   24.2061 C   0  0  0  0  0  0  0  0  0  0  0  0
    8.3396   -3.2601   26.3342 C   0  0  0  0  0  0  0  0  0  0  0  0
   11.2307   -0.9213   23.4982 C   0  0  0  0  0  0  0  0  0  0  0  0
    9.3090   -0.9551   25.1255 C   0  0  0  0  0  0  0  0  0  0  0  0
    6.2873   -3.0972   23.1164 C   0  0  0  0  0  0  0  0  0  0  0  0
    5.2453   -2.7160   24.1615 C   0  0  0  0  0  0  0  0  0  0  0  0
    7.5588   -3.4348   23.8902 C   0  0  0  0  0  0  0  0  0  0  0  0
    5.9375   -2.8448   25.5155 C   0  0  0  0  0  0  0  0  0  0  0  0
    7.4485   -2.6824   25.2353 C   0  0  0  0  0  0  0  0  0  0  0  0
    7.8126   -1.1941   25.0581 C   0  0  0  0  0  0  0  0  0  0  0  0
    8.7161   -3.6675   28.6874 N   0  0  0  0  0  0  0  0  0  0  0  0
   13.3740    0.1161   23.9165 N   0  0  0  0  0  0  0  0  0  0  0  0
    9.8700   -1.0717   23.8569 N   0  0  0  0  0  0  0  0  0  0  0  0
    9.8879   -0.6989   26.1761 O   0  0  0  0  0  0  0  0  0  0  0  0
   11.2734   -4.8953   26.8299 H   0  0  0  0  0  0  0  0  0  0  0  0
   13.5524   -1.9859   21.2617 H   0  0  0  0  0  0  0  0  0  0  0  0
    9.8712   -3.9759   24.9942 H   0  0  0  0  0  0  0  0  0  0  0  0
   11.1557   -2.2974   21.8369 H   0  0  0  0  0  0  0  0  0  0  0  0
   10.4584   -4.6551   29.1810 H   0  0  0  0  0  0  0  0  0  0  0  0
   14.9130   -0.4130   22.6495 H   0  0  0  0  0  0  0  0  0  0  0  0
    7.0476   -2.7003   27.9697 H   0  0  0  0  0  0  0  0  0  0  0  0
   11.7041    0.4987   25.0548 H   0  0  0  0  0  0  0  0  0  0  0  0
    5.9590   -3.9437   22.5046 H   0  0  0  0  0  0  0  0  0  0  0  0
    6.4635   -2.2541   22.4387 H   0  0  0  0  0  0  0  0  0  0  0  0
    4.9118   -1.6849   23.9984 H   0  0  0  0  0  0  0  0  0  0  0  0
    4.3597   -3.3574   24.1060 H   0  0  0  0  0  0  0  0  0  0  0  0
    7.5961   -4.5200   24.0577 H   0  0  0  0  0  0  0  0  0  0  0  0
    8.4607   -3.1666   23.3287 H   0  0  0  0  0  0  0  0  0  0  0  0
    5.5605   -2.1116   26.2369 H   0  0  0  0  0  0  0  0  0  0  0  0
    5.7271   -3.8401   25.9297 H   0  0  0  0  0  0  0  0  0  0  0  0
    7.3238   -0.6147   25.8443 H   0  0  0  0  0  0  0  0  0  0  0  0
    7.4405   -0.8519   24.0900 H   0  0  0  0  0  0  0  0  0  0  0  0
    9.2392   -1.2901   23.0884 H   0  0  0  0  0  0  0  0  0  0  0  0
  1  3  2  0  0  0  0
  1  5  1  0  0  0  0
  2  4  2  0  0  0  0
  2  6  1  0  0  0  0
  3  9  1  0  0  0  0
  4 10  1  0  0  0  0
  5 18  2  0  0  0  0
  6 19  2  0  0  0  0
  7  9  2  0  0  0  0
  7 18  1  0  0  0  0
  8 10  2  0  0  0  0
  8 19  1  0  0  0  0
  9 16  1  0  0  0  0
 10 20  1  0  0  0  0
 11 17  1  0  0  0  0
 11 20  1  0  0  0  0
 11 21  2  0  0  0  0
 12 13  1  0  0  0  0
 12 14  1  0  0  0  0
 13 15  1  0  0  0  0
 14 16  1  0  0  0  0
 15 16  1  0  0  0  0
 16 17  1  0  0  0  0
  1 22  1  0  0  0  0
  2 23  1  0  0  0  0
  3 24  1  0  0  0  0
  4 25  1  0  0  0  0
  5 26  1  0  0  0  0
  6 27  1  0  0  0  0
  7 28  1  0  0  0  0
  8 29  1  0  0  0  0
 12 30  1  0  0  0  0
 12 31  1  0  0  0  0
 13 32  1  0  0  0  0
 13 33  1  0  0  0  0
 14 34  1  0  0  0  0
 14 35  1  0  0  0  0
 15 36  1  0  0  0  0
 15 37  1  0  0  0  0
 17 38  1  0  0  0  0
 17 39  1  0  0  0  0
 20 40  1  0  0  0  0
M  END
> <Chemgauss4 Score>
-5.72601556777954

> <Number of Confs>
197

$$$$
NIM-UNI-36e-3
  -OEChem-03242005443D

 30 32  0     0  0  0  0  0  0999 V2000
   12.0444   -1.4227   22.6294 C   0  0  0  0  0  0  0  0  0  0  0  0
    6.6828   -2.5778   26.2680 C   0  0  0  0  0  0  0  0  0  0  0  0
   11.4353   -2.4350   23.3626 C   0  0  0  0  0  0  0  0  0  0  0  0
    6.5151   -3.7355   27.0486 C   0  0  0  0  0  0  0  0  0  0  0  0
   12.1221   -0.1636   23.2024 C   0  0  0  0  0  0  0  0  0  0  0  0
   11.0574   -0.8690   25.1121 C   0  0  0  0  0  0  0  0  0  0  0  0
    7.9121   -2.2821   25.6626 C   0  0  0  0  0  0  0  0  0  0  0  0
   10.9297   -2.1611   24.6285 C   0  0  0  0  0  0  0  0  0  0  0  0
    8.9685   -3.1501   25.8718 C   0  0  0  0  0  0  0  0  0  0  0  0
    8.7683   -4.3131   26.6199 C   0  0  0  0  0  0  0  0  0  0  0  0
    7.5693   -4.6296   27.2260 C   0  0  0  0  0  0  0  0  0  0  0  0
   10.9220   -4.3921   25.8413 C   0  0  0  0  0  0  0  0  0  0  0  0
    8.0303   -1.0731   24.8629 C   0  0  0  0  0  0  0  0  0  0  0  0
    7.7697    0.2381   25.5457 C   0  0  0  0  0  0  0  0  0  0  0  0
   11.6425    0.1404   24.4292 N   0  0  0  0  0  0  0  0  0  0  0  0
    9.9368   -5.0683   26.6080 N   0  0  0  0  0  0  0  0  0  0  0  0
   10.3038   -3.1713   25.3990 N   0  0  0  0  0  0  0  0  0  0  0  0
   12.0642   -4.7897   25.6556 O   0  0  0  0  0  0  0  0  0  0  0  0
    8.3236   -1.0437   23.6659 O   0  0  0  0  0  0  0  0  0  0  0  0
    7.3325   -6.1995   28.2410 Br  0  0  0  0  0  0  0  0  0  0  0  0
   12.4456   -1.6135   21.6405 H   0  0  0  0  0  0  0  0  0  0  0  0
    5.8345   -1.9088   26.1372 H   0  0  0  0  0  0  0  0  0  0  0  0
   11.3601   -3.4328   22.9383 H   0  0  0  0  0  0  0  0  0  0  0  0
    5.5437   -3.9247   27.4995 H   0  0  0  0  0  0  0  0  0  0  0  0
   12.5869    0.6602   22.6709 H   0  0  0  0  0  0  0  0  0  0  0  0
   10.6826   -0.5939   26.0935 H   0  0  0  0  0  0  0  0  0  0  0  0
    8.6666    0.6948   25.9933 H   0  0  0  0  0  0  0  0  0  0  0  0
    7.0046    0.1711   26.3346 H   0  0  0  0  0  0  0  0  0  0  0  0
    7.3921    1.0183   24.8609 H   0  0  0  0  0  0  0  0  0  0  0  0
   10.0644   -5.9591   27.0727 H   0  0  0  0  0  0  0  0  0  0  0  0
  1  3  2  0  0  0  0
  1  5  1  0  0  0  0
  2  4  2  0  0  0  0
  2  7  1  0  0  0  0
  3  8  1  0  0  0  0
  4 11  1  0  0  0  0
  5 15  2  0  0  0  0
  6  8  2  0  0  0  0
  6 15  1  0  0  0  0
  7  9  2  0  0  0  0
  7 13  1  0  0  0  0
  8 17  1  0  0  0  0
  9 10  1  0  0  0  0
  9 17  1  0  0  0  0
 10 11  2  0  0  0  0
 10 16  1  0  0  0  0
 11 20  1  0  0  0  0
 12 16  1  0  0  0  0
 12 17  1  0  0  0  0
 12 18  2  0  0  0  0
 13 14  1  0  0  0  0
 13 19  2  0  0  0  0
  1 21  1  0  0  0  0
  2 22  1  0  0  0  0
  3 23  1  0  0  0  0
  4 24  1  0  0  0  0
  5 25  1  0  0  0  0
  6 26  1  0  0  0  0
 14 27  1  0  0  0  0
 14 28  1  0  0  0  0
 14 29  1  0  0  0  0
 16 30  1  0  0  0  0
M  END
> <Chemgauss4 Score>
-5.72001075744629

> <Number of Confs>
8

$$$$
CHR-SOS-6c4-8
  -OEChem-03242005443D

 41 43  0     0  0  0  0  0  0999 V2000
   10.3751   -3.2651   24.0891 C   0  0  0  0  0  0  0  0  0  0  0  0
   10.8841   -2.6113   23.2195 C   0  0  0  0  0  0  0  0  0  0  0  0
    7.8425   -5.0804   26.1266 C   0  0  0  0  0  0  0  0  0  0  0  0
    8.4043   -4.3191   25.1078 C   0  0  0  0  0  0  0  0  0  0  0  0
    5.5544    1.5529   19.4271 C   0  0  0  0  0  0  0  0  0  0  0  0
    8.6801   -5.5403   27.1300 C   0  0  0  0  0  0  0  0  0  0  0  0
    5.1807    2.0993   20.6443 C   0  0  0  0  0  0  0  0  0  0  0  0
   10.5188   -4.5509   26.1715 C   0  0  0  0  0  0  0  0  0  0  0  0
    6.9694    1.1438   21.7239 C   0  0  0  0  0  0  0  0  0  0  0  0
    9.7674   -4.0448   25.1232 C   0  0  0  0  0  0  0  0  0  0  0  0
    6.7002    0.7660   19.3913 C   0  0  0  0  0  0  0  0  0  0  0  0
    7.4269    0.5524   20.5573 C   0  0  0  0  0  0  0  0  0  0  0  0
    9.4201   -0.5356   21.6636 C   0  0  0  0  0  0  0  0  0  0  0  0
   13.6328   -1.7025   22.4238 C   0  0  0  0  0  0  0  0  0  0  0  0
   12.4722   -0.7125   22.6440 C   0  0  0  0  0  0  0  0  0  0  0  0
   12.7127   -2.4766   21.4592 C   0  0  0  0  0  0  0  0  0  0  0  0
   11.4970   -1.8241   22.1710 C   0  0  0  0  0  0  0  0  0  0  0  0
    7.1259    0.1639   18.0924 C   0  0  0  0  0  0  0  0  0  0  0  0
   10.0086   -5.2943   27.1789 N   0  0  0  0  0  0  0  0  0  0  0  0
    5.8611    1.9143   21.7978 N   0  0  0  0  0  0  0  0  0  0  0  0
    8.5987   -0.2395   20.5722 N   0  0  0  0  0  0  0  0  0  0  0  0
   10.4688   -1.3465   21.2513 N   0  0  0  0  0  0  0  0  0  0  0  0
    9.2659   -0.1539   22.8213 O   0  0  0  0  0  0  0  0  0  0  0  0
    6.7824   -5.3065   26.1363 H   0  0  0  0  0  0  0  0  0  0  0  0
    7.7682   -3.9468   24.3087 H   0  0  0  0  0  0  0  0  0  0  0  0
    4.9652    1.7386   18.5356 H   0  0  0  0  0  0  0  0  0  0  0  0
    8.2908   -6.1386   27.9468 H   0  0  0  0  0  0  0  0  0  0  0  0
    4.2947    2.7204   20.7256 H   0  0  0  0  0  0  0  0  0  0  0  0
   11.5881   -4.3721   26.2425 H   0  0  0  0  0  0  0  0  0  0  0  0
    7.4937    1.0146   22.6662 H   0  0  0  0  0  0  0  0  0  0  0  0
   14.5079   -1.2562   21.9368 H   0  0  0  0  0  0  0  0  0  0  0  0
   13.9625   -2.2524   23.3094 H   0  0  0  0  0  0  0  0  0  0  0  0
   12.3518   -0.4133   23.6936 H   0  0  0  0  0  0  0  0  0  0  0  0
   12.5145    0.1950   22.0326 H   0  0  0  0  0  0  0  0  0  0  0  0
   12.8462   -2.2374   20.3990 H   0  0  0  0  0  0  0  0  0  0  0  0
   12.7818   -3.5662   21.5761 H   0  0  0  0  0  0  0  0  0  0  0  0
    7.8008    0.8450   17.5613 H   0  0  0  0  0  0  0  0  0  0  0  0
    7.6439   -0.7903   18.2488 H   0  0  0  0  0  0  0  0  0  0  0  0
    6.2614   -0.0436   17.4497 H   0  0  0  0  0  0  0  0  0  0  0  0
    8.8722   -0.6403   19.6785 H   0  0  0  0  0  0  0  0  0  0  0  0
   10.5222   -1.6148   20.2829 H   0  0  0  0  0  0  0  0  0  0  0  0
  1  2  3  0  0  0  0
  1 10  1  0  0  0  0
  2 17  1  0  0  0  0
  3  4  2  0  0  0  0
  3  6  1  0  0  0  0
  4 10  1  0  0  0  0
  5  7  2  0  0  0  0
  5 11  1  0  0  0  0
  6 19  2  0  0  0  0
  7 20  1  0  0  0  0
  8 10  2  0  0  0  0
  8 19  1  0  0  0  0
  9 12  1  0  0  0  0
  9 20  2  0  0  0  0
 11 12  2  0  0  0  0
 11 18  1  0  0  0  0
 12 21  1  0  0  0  0
 13 21  1  0  0  0  0
 13 22  1  0  0  0  0
 13 23  2  0  0  0  0
 14 15  1  0  0  0  0
 14 16  1  0  0  0  0
 15 17  1  0  0  0  0
 16 17  1  0  0  0  0
 17 22  1  0  0  0  0
  3 24  1  0  0  0  0
  4 25  1  0  0  0  0
  5 26  1  0  0  0  0
  6 27  1  0  0  0  0
  7 28  1  0  0  0  0
  8 29  1  0  0  0  0
  9 30  1  0  0  0  0
 14 31  1  0  0  0  0
 14 32  1  0  0  0  0
 15 33  1  0  0  0  0
 15 34  1  0  0  0  0
 16 35  1  0  0  0  0
 16 36  1  0  0  0  0
 18 37  1  0  0  0  0
 18 38  1  0  0  0  0
 18 39  1  0  0  0  0
 21 40  1  0  0  0  0
 22 41  1  0  0  0  0
M  END
> <Chemgauss4 Score>
-5.71706962585449

> <Number of Confs>
5

$$$$
DAR-DIA-43a-9
  -OEChem-03242005443D

 36 38  0     1  0  0  0  0  0999 V2000
    9.3705   -2.4900   28.2111 C   0  0  0  0  0  0  0  0  0  0  0  0
    9.5555   -2.5540   26.8301 C   0  0  0  0  0  0  0  0  0  0  0  0
    8.7654   -3.5518   28.8837 C   0  0  0  0  0  0  0  0  0  0  0  0
    8.5302   -4.7414   26.7941 C   0  0  0  0  0  0  0  0  0  0  0  0
   13.5961   -0.6987   22.5420 C   0  0  0  0  0  0  0  0  0  0  0  0
   13.1731   -0.0475   24.4965 C   0  0  0  0  0  0  0  0  0  0  0  0
    9.1353   -3.6796   26.1216 C   0  0  0  0  0  0  0  0  0  0  0  0
    8.3452   -4.6774   28.1752 C   0  0  0  0  0  0  0  0  0  0  0  0
   12.2838   -1.0055   22.8032 C   0  0  0  0  0  0  0  0  0  0  0  0
   10.5210   -3.0136   24.0645 C   0  0  0  0  0  0  0  0  0  0  0  0
   10.2377   -2.4311   22.8930 C   0  0  0  0  0  0  0  0  0  0  0  0
    7.4129   -2.0735   24.4408 C   0  0  0  0  0  0  0  0  0  0  0  0
    8.8153   -2.6673   22.4835 C   0  0  0  0  0  0  0  0  0  0  0  0
    9.3352   -3.7478   24.6233 C   0  0  2  0  0  0  0  0  0  0  0  0
    8.1680   -3.1927   23.7738 C   0  0  1  0  0  0  0  0  0  0  0  0
   11.1713   -1.6657   22.0276 C   0  0  0  0  0  0  0  0  0  0  0  0
   14.1607   -0.0847   23.6307 N   0  0  0  0  0  0  0  0  0  0  0  0
    6.3334   -2.4962   25.1799 N   0  0  0  0  0  0  0  0  0  0  0  0
    7.7578   -0.8992   24.3345 O   0  0  0  0  0  0  0  0  0  0  0  0
   11.9994   -0.5875   24.0681 O   0  0  0  0  0  0  0  0  0  0  0  0
    7.5977   -5.9865   29.0053 Cl  0  0  0  0  0  0  0  0  0  0  0  0
    9.6977   -1.6133   28.7625 H   0  0  0  0  0  0  0  0  0  0  0  0
   10.0278   -1.7220   26.3143 H   0  0  0  0  0  0  0  0  0  0  0  0
    8.6274   -3.4880   29.9602 H   0  0  0  0  0  0  0  0  0  0  0  0
    8.2048   -5.6170   26.2372 H   0  0  0  0  0  0  0  0  0  0  0  0
   14.1601   -0.8837   21.6398 H   0  0  0  0  0  0  0  0  0  0  0  0
   13.1804    0.3563   25.4978 H   0  0  0  0  0  0  0  0  0  0  0  0
   11.4964   -2.9989   24.5319 H   0  0  0  0  0  0  0  0  0  0  0  0
    8.3420   -1.7485   22.1214 H   0  0  0  0  0  0  0  0  0  0  0  0
    8.7785   -3.4212   21.6893 H   0  0  0  0  0  0  0  0  0  0  0  0
    9.4637   -4.8334   24.3738 H   0  0  0  0  0  0  0  0  0  0  0  0
    7.4337   -3.9787   23.5540 H   0  0  0  0  0  0  0  0  0  0  0  0
   10.6153   -0.8986   21.4711 H   0  0  0  0  0  0  0  0  0  0  0  0
   11.5955   -2.3331   21.2654 H   0  0  0  0  0  0  0  0  0  0  0  0
    6.1308   -3.4896   25.2218 H   0  0  0  0  0  0  0  0  0  0  0  0
    5.7311   -1.8546   25.6854 H   0  0  0  0  0  0  0  0  0  0  0  0
  1  2  2  0  0  0  0
  1  3  1  0  0  0  0
  2  7  1  0  0  0  0
  3  8  2  0  0  0  0
  4  7  2  0  0  0  0
  4  8  1  0  0  0  0
  5  9  2  0  0  0  0
  5 17  1  0  0  0  0
  6 17  2  0  0  0  0
  6 20  1  0  0  0  0
  7 14  1  0  0  0  0
  8 21  1  0  0  0  0
  9 16  1  0  0  0  0
  9 20  1  0  0  0  0
 10 11  2  0  0  0  0
 10 14  1  0  0  0  0
 11 13  1  0  0  0  0
 11 16  1  0  0  0  0
 12 15  1  0  0  0  0
 12 18  1  0  0  0  0
 12 19  2  0  0  0  0
 13 15  1  0  0  0  0
 14 15  1  0  0  0  0
  1 22  1  0  0  0  0
  2 23  1  0  0  0  0
  3 24  1  0  0  0  0
  4 25  1  0  0  0  0
  5 26  1  0  0  0  0
  6 27  1  0  0  0  0
 10 28  1  0  0  0  0
 13 29  1  0  0  0  0
 13 30  1  0  0  0  0
 14 31  1  6  0  0  0
 15 32  1  1  0  0  0
 16 33  1  0  0  0  0
 16 34  1  0  0  0  0
 18 35  1  0  0  0  0
 18 36  1  0  0  0  0
M  END
> <Chemgauss4 Score>
-5.71691417694092

> <Number of Confs>
200

$$$$
JOH-MEM-5e3-2
  -OEChem-03242005443D

 36 37  0     1  0  0  0  0  0999 V2000
    7.5564   -2.5224   23.7442 C   0  0  0  0  0  0  0  0  0  0  0  0
    8.4705   -1.6077   23.2153 C   0  0  0  0  0  0  0  0  0  0  0  0
   10.3372   -2.9517   24.0023 C   0  0  0  0  0  0  0  0  0  0  0  0
    9.4213   -3.8485   24.5289 C   0  0  0  0  0  0  0  0  0  0  0  0
    8.0446   -3.6287   24.4184 C   0  0  0  0  0  0  0  0  0  0  0  0
    9.8513   -1.8193   23.3464 C   0  0  0  0  0  0  0  0  0  0  0  0
    8.5830   -2.8554   28.1696 C   0  0  0  0  0  0  0  0  0  0  0  0
    8.2273   -5.4971   25.7347 C   0  0  0  0  0  0  0  0  0  0  0  0
    9.6557   -5.1560   25.2279 C   0  0  2  0  0  0  0  0  0  0  0  0
    7.9480   -1.5069   28.0625 C   0  0  0  0  0  0  0  0  0  0  0  0
   12.1150   -1.1874   22.9830 C   0  0  0  0  0  0  0  0  0  0  0  0
   10.6797   -5.0949   26.3530 C   0  0  0  0  0  0  0  0  0  0  0  0
   10.0939   -4.5495   27.6492 C   0  0  0  0  0  0  0  0  0  0  0  0
    9.5775   -3.1973   27.4310 N   0  0  0  0  0  0  0  0  0  0  0  0
    7.3001   -4.6719   24.9649 N   0  0  0  0  0  0  0  0  0  0  0  0
    8.0129   -3.6525   29.1021 O   0  0  0  0  0  0  0  0  0  0  0  0
   10.0636   -6.1149   24.2578 O   0  0  0  0  0  0  0  0  0  0  0  0
   10.7246   -0.9172   22.8172 O   0  0  0  0  0  0  0  0  0  0  0  0
    6.4897   -2.3599   23.6279 H   0  0  0  0  0  0  0  0  0  0  0  0
    8.1033   -0.7286   22.6914 H   0  0  0  0  0  0  0  0  0  0  0  0
   11.4043   -3.1286   24.0868 H   0  0  0  0  0  0  0  0  0  0  0  0
    7.9834   -6.5570   25.6071 H   0  0  0  0  0  0  0  0  0  0  0  0
    8.1125   -5.2397   26.7948 H   0  0  0  0  0  0  0  0  0  0  0  0
    7.1402   -1.5394   27.3265 H   0  0  0  0  0  0  0  0  0  0  0  0
    7.5474   -1.2120   29.0361 H   0  0  0  0  0  0  0  0  0  0  0  0
    8.6852   -0.7642   27.7447 H   0  0  0  0  0  0  0  0  0  0  0  0
   12.6999   -0.3916   22.5154 H   0  0  0  0  0  0  0  0  0  0  0  0
   12.3573   -2.1496   22.5248 H   0  0  0  0  0  0  0  0  0  0  0  0
   12.3448   -1.2263   24.0504 H   0  0  0  0  0  0  0  0  0  0  0  0
   11.5082   -4.4501   26.0382 H   0  0  0  0  0  0  0  0  0  0  0  0
   11.0927   -6.0968   26.5188 H   0  0  0  0  0  0  0  0  0  0  0  0
    9.2711   -5.1908   27.9814 H   0  0  0  0  0  0  0  0  0  0  0  0
   10.8478   -4.5314   28.4431 H   0  0  0  0  0  0  0  0  0  0  0  0
    6.3256   -4.5631   25.2085 H   0  0  0  0  0  0  0  0  0  0  0  0
    7.2703   -3.2305   29.5684 H   0  0  0  0  0  0  0  0  0  0  0  0
   10.2079   -6.9477   24.7342 H   0  0  0  0  0  0  0  0  0  0  0  0
  1  2  2  0  0  0  0
  1  5  1  0  0  0  0
  2  6  1  0  0  0  0
  3  4  1  0  0  0  0
  3  6  2  0  0  0  0
  4  5  2  0  0  0  0
  4  9  1  0  0  0  0
  5 15  1  0  0  0  0
  6 18  1  0  0  0  0
  7 10  1  0  0  0  0
  7 14  2  0  0  0  0
  7 16  1  0  0  0  0
  8  9  1  0  0  0  0
  8 15  1  0  0  0  0
  9 12  1  0  0  0  0
  9 17  1  6  0  0  0
 11 18  1  0  0  0  0
 12 13  1  0  0  0  0
 13 14  1  0  0  0  0
  1 19  1  0  0  0  0
  2 20  1  0  0  0  0
  3 21  1  0  0  0  0
  8 22  1  0  0  0  0
  8 23  1  0  0  0  0
 10 24  1  0  0  0  0
 10 25  1  0  0  0  0
 10 26  1  0  0  0  0
 11 27  1  0  0  0  0
 11 28  1  0  0  0  0
 11 29  1  0  0  0  0
 12 30  1  0  0  0  0
 12 31  1  0  0  0  0
 13 32  1  0  0  0  0
 13 33  1  0  0  0  0
 15 34  1  0  0  0  0
 16 35  1  0  0  0  0
 17 36  1  0  0  0  0
M  END
> <Chemgauss4 Score>
-5.71340084075928

> <Number of Confs>
48

$$$$
JOH-MSK-a63-4
  -OEChem-03242005443D

 30 31  0     0  0  0  0  0  0999 V2000
   10.8864   -2.5714   23.4636 C   0  0  0  0  0  0  0  0  0  0  0  0
   10.7265   -1.2180   23.7745 C   0  0  0  0  0  0  0  0  0  0  0  0
    9.9299   -1.7644   26.0025 C   0  0  0  0  0  0  0  0  0  0  0  0
   10.1904   -5.3910   25.6273 C   0  0  0  0  0  0  0  0  0  0  0  0
   10.0829   -3.1347   25.7119 C   0  0  0  0  0  0  0  0  0  0  0  0
    9.8563   -4.3345   26.4428 C   0  0  0  0  0  0  0  0  0  0  0  0
   10.5567   -3.5058   24.4517 C   0  0  0  0  0  0  0  0  0  0  0  0
   10.2558   -0.8185   25.0237 C   0  0  0  0  0  0  0  0  0  0  0  0
    6.6861   -4.9510   25.8980 C   0  0  0  0  0  0  0  0  0  0  0  0
    5.8901   -6.0714   25.3152 C   0  0  0  0  0  0  0  0  0  0  0  0
    9.3545   -4.4389   27.8277 C   0  0  0  0  0  0  0  0  0  0  0  0
    7.8405   -4.1964   27.9668 C   0  0  0  0  0  0  0  0  0  0  0  0
   10.6119   -4.8812   24.4286 N   0  0  0  0  0  0  0  0  0  0  0  0
    7.0677   -5.1486   27.2153 N   0  0  0  0  0  0  0  0  0  0  0  0
    6.9437   -3.9708   25.2092 O   0  0  0  0  0  0  0  0  0  0  0  0
   10.1111    0.5087   25.2979 O   0  0  0  0  0  0  0  0  0  0  0  0
   11.2525   -2.8813   22.4905 H   0  0  0  0  0  0  0  0  0  0  0  0
   10.9744   -0.4709   23.0240 H   0  0  0  0  0  0  0  0  0  0  0  0
    9.5641   -1.4432   26.9740 H   0  0  0  0  0  0  0  0  0  0  0  0
   10.1663   -6.4594   25.7911 H   0  0  0  0  0  0  0  0  0  0  0  0
    4.8066   -5.9408   25.4669 H   0  0  0  0  0  0  0  0  0  0  0  0
    6.0230   -6.1588   24.2249 H   0  0  0  0  0  0  0  0  0  0  0  0
    6.1203   -7.0714   25.7161 H   0  0  0  0  0  0  0  0  0  0  0  0
    9.8760   -3.7083   28.4773 H   0  0  0  0  0  0  0  0  0  0  0  0
    9.5966   -5.4260   28.2711 H   0  0  0  0  0  0  0  0  0  0  0  0
    7.5229   -4.2855   29.0105 H   0  0  0  0  0  0  0  0  0  0  0  0
    7.5691   -3.1968   27.6116 H   0  0  0  0  0  0  0  0  0  0  0  0
   10.9188   -5.4338   23.6400 H   0  0  0  0  0  0  0  0  0  0  0  0
    6.7863   -6.0130   27.6753 H   0  0  0  0  0  0  0  0  0  0  0  0
    9.7767    0.6293   26.2003 H   0  0  0  0  0  0  0  0  0  0  0  0
  1  2  2  0  0  0  0
  1  7  1  0  0  0  0
  2  8  1  0  0  0  0
  3  5  1  0  0  0  0
  3  8  2  0  0  0  0
  4  6  2  0  0  0  0
  4 13  1  0  0  0  0
  5  6  1  0  0  0  0
  5  7  2  0  0  0  0
  6 11  1  0  0  0  0
  7 13  1  0  0  0  0
  8 16  1  0  0  0  0
  9 10  1  0  0  0  0
  9 14  1  0  0  0  0
  9 15  2  0  0  0  0
 11 12  1  0  0  0  0
 12 14  1  0  0  0  0
  1 17  1  0  0  0  0
  2 18  1  0  0  0  0
  3 19  1  0  0  0  0
  4 20  1  0  0  0  0
 10 21  1  0  0  0  0
 10 22  1  0  0  0  0
 10 23  1  0  0  0  0
 11 24  1  0  0  0  0
 11 25  1  0  0  0  0
 12 26  1  0  0  0  0
 12 27  1  0  0  0  0
 13 28  1  0  0  0  0
 14 29  1  0  0  0  0
 16 30  1  0  0  0  0
M  END
> <Chemgauss4 Score>
-5.69507741928101

> <Number of Confs>
38

$$$$
SAL-INS-1c7-7
  -OEChem-03242005443D

 46 48  0     1  0  0  0  0  0999 V2000
    4.7539   -4.0784   22.4167 C   0  0  0  0  0  0  0  0  0  0  0  0
    4.9489   -5.2072   23.2125 C   0  0  0  0  0  0  0  0  0  0  0  0
    5.8146   -3.2065   22.1710 C   0  0  0  0  0  0  0  0  0  0  0  0
    6.2046   -5.4641   23.7628 C   0  0  0  0  0  0  0  0  0  0  0  0
    7.0704   -3.4634   22.7212 C   0  0  0  0  0  0  0  0  0  0  0  0
    8.9382   -3.8414   28.2614 C   0  0  0  0  0  0  0  0  0  0  0  0
    9.2555   -2.8916   27.2905 C   0  0  0  0  0  0  0  0  0  0  0  0
    8.4274   -5.4439   26.5271 C   0  0  0  0  0  0  0  0  0  0  0  0
    7.2654   -4.5922   23.5171 C   0  0  0  0  0  0  0  0  0  0  0  0
    8.5243   -5.1176   27.8798 C   0  0  0  0  0  0  0  0  0  0  0  0
    8.7446   -4.4941   25.5560 C   0  0  0  0  0  0  0  0  0  0  0  0
    9.1586   -3.2179   25.9378 C   0  0  0  0  0  0  0  0  0  0  0  0
   11.2561   -0.5883   24.7659 C   0  0  0  0  0  0  0  0  0  0  0  0
   11.8650    0.0610   23.7688 C   0  0  0  0  0  0  0  0  0  0  0  0
    8.4223   -1.3792   24.4991 C   0  0  0  0  0  0  0  0  0  0  0  0
   10.9774   -2.2602   23.0133 C   0  0  0  0  0  0  0  0  0  0  0  0
   10.8541   -2.0129   24.5159 C   0  0  2  0  0  0  0  0  0  0  0  0
    8.1828   -6.1324   28.9182 C   0  0  0  0  0  0  0  0  0  0  0  0
    8.6288   -4.8704   24.1144 C   0  0  0  0  0  0  0  0  0  0  0  0
    7.2688   -1.2693   25.4805 C   0  0  0  0  0  0  0  0  0  0  0  0
    9.4922   -2.2182   24.9458 N   0  0  0  0  0  0  0  0  0  0  0  0
    8.3672   -0.7997   23.4114 O   0  0  0  0  0  0  0  0  0  0  0  0
   13.4005   -1.4689   22.3314 O   0  0  0  0  0  0  0  0  0  0  0  0
   11.4075   -0.3552   21.2362 O   0  0  0  0  0  0  0  0  0  0  0  0
   12.0440   -0.9619   22.3875 S   0  0  0  0  0  0  0  0  0  0  0  0
    7.5259    0.1083   26.5720 Cl  0  0  0  0  0  0  0  0  0  0  0  0
    3.7764   -3.8792   21.9872 H   0  0  0  0  0  0  0  0  0  0  0  0
    4.1234   -5.8868   23.4031 H   0  0  0  0  0  0  0  0  0  0  0  0
    5.6634   -2.3282   21.5505 H   0  0  0  0  0  0  0  0  0  0  0  0
    6.3473   -6.3459   24.3818 H   0  0  0  0  0  0  0  0  0  0  0  0
    7.8910   -2.7785   22.5245 H   0  0  0  0  0  0  0  0  0  0  0  0
    9.0167   -3.5783   29.3129 H   0  0  0  0  0  0  0  0  0  0  0  0
    9.5781   -1.9006   27.6000 H   0  0  0  0  0  0  0  0  0  0  0  0
    8.1026   -6.4388   26.2311 H   0  0  0  0  0  0  0  0  0  0  0  0
   11.0564   -0.1114   25.7180 H   0  0  0  0  0  0  0  0  0  0  0  0
   12.1968    1.0902   23.7967 H   0  0  0  0  0  0  0  0  0  0  0  0
   11.4832   -3.2146   22.8238 H   0  0  0  0  0  0  0  0  0  0  0  0
   10.0240   -2.2496   22.4760 H   0  0  0  0  0  0  0  0  0  0  0  0
   11.4787   -2.7209   25.0677 H   0  0  0  0  0  0  0  0  0  0  0  0
    7.1182   -6.0725   29.1750 H   0  0  0  0  0  0  0  0  0  0  0  0
    8.3995   -7.1497   28.5674 H   0  0  0  0  0  0  0  0  0  0  0  0
    8.7707   -5.9798   29.8327 H   0  0  0  0  0  0  0  0  0  0  0  0
    8.8706   -5.9378   23.9757 H   0  0  0  0  0  0  0  0  0  0  0  0
    9.3957   -4.3470   23.5186 H   0  0  0  0  0  0  0  0  0  0  0  0
    6.3341   -1.1051   24.9385 H   0  0  0  0  0  0  0  0  0  0  0  0
    7.2003   -2.1595   26.1101 H   0  0  0  0  0  0  0  0  0  0  0  0
  1  2  1  0  0  0  0
  1  3  2  0  0  0  0
  2  4  2  0  0  0  0
  3  5  1  0  0  0  0
  4  9  1  0  0  0  0
  5  9  2  0  0  0  0
  6  7  2  0  0  0  0
  6 10  1  0  0  0  0
  7 12  1  0  0  0  0
  8 10  2  0  0  0  0
  8 11  1  0  0  0  0
  9 19  1  0  0  0  0
 10 18  1  0  0  0  0
 11 12  2  0  0  0  0
 11 19  1  0  0  0  0
 12 21  1  0  0  0  0
 13 14  2  0  0  0  0
 13 17  1  0  0  0  0
 14 25  1  0  0  0  0
 15 20  1  0  0  0  0
 15 21  1  0  0  0  0
 15 22  2  0  0  0  0
 16 17  1  0  0  0  0
 16 25  1  0  0  0  0
 17 21  1  1  0  0  0
 20 26  1  0  0  0  0
 23 25  2  0  0  0  0
 24 25  2  0  0  0  0
  1 27  1  0  0  0  0
  2 28  1  0  0  0  0
  3 29  1  0  0  0  0
  4 30  1  0  0  0  0
  5 31  1  0  0  0  0
  6 32  1  0  0  0  0
  7 33  1  0  0  0  0
  8 34  1  0  0  0  0
 13 35  1  0  0  0  0
 14 36  1  0  0  0  0
 16 37  1  0  0  0  0
 16 38  1  0  0  0  0
 17 39  1  0  0  0  0
 18 40  1  0  0  0  0
 18 41  1  0  0  0  0
 18 42  1  0  0  0  0
 19 43  1  0  0  0  0
 19 44  1  0  0  0  0
 20 45  1  0  0  0  0
 20 46  1  0  0  0  0
M  END
> <Chemgauss4 Score>
-5.68433952331543

> <Number of Confs>
144

$$$$
ADA-UNI-f8e-9
  -OEChem-03242005443D

 43 45  0     1  0  0  0  0  0999 V2000
   11.8721    0.0067   24.3823 C   0  0  0  0  0  0  0  0  0  0  0  0
    7.5457   -4.4242   28.8618 C   0  0  0  0  0  0  0  0  0  0  0  0
   10.5865   -0.5342   24.3934 C   0  0  0  0  0  0  0  0  0  0  0  0
    7.7701   -3.4911   27.8557 C   0  0  0  0  0  0  0  0  0  0  0  0
   12.7813   -0.3760   23.3961 C   0  0  0  0  0  0  0  0  0  0  0  0
   11.1192   -1.8405   22.4320 C   0  0  0  0  0  0  0  0  0  0  0  0
    7.6680   -5.7665   28.5405 C   0  0  0  0  0  0  0  0  0  0  0  0
    8.2026   -5.2874   26.3581 C   0  0  0  0  0  0  0  0  0  0  0  0
   10.2100   -1.4578   23.4183 C   0  0  0  0  0  0  0  0  0  0  0  0
    8.1052   -3.9227   26.5771 C   0  0  0  0  0  0  0  0  0  0  0  0
   12.4049   -1.2996   22.4210 C   0  0  0  0  0  0  0  0  0  0  0  0
    8.6783   -3.2772   24.2151 C   0  0  0  0  0  0  0  0  0  0  0  0
    7.6617   -1.0639   23.4257 C   0  0  0  0  0  0  0  0  0  0  0  0
    7.9395   -1.8804   22.2017 C   0  0  2  0  0  0  0  0  0  0  0  0
    8.8374   -2.0348   23.4305 C   0  0  1  0  0  0  0  0  0  0  0  0
    6.0432    1.3944   18.9965 C   0  0  0  0  0  0  0  0  0  0  0  0
    8.3999   -1.2138   20.9494 C   0  0  0  0  0  0  0  0  0  0  0  0
    7.9918   -6.2237   27.3102 N   0  0  0  0  0  0  0  0  0  0  0  0
    8.3391   -2.9970   25.5327 N   0  0  0  0  0  0  0  0  0  0  0  0
    7.2962   -0.6337   20.2358 N   0  0  0  0  0  0  0  0  0  0  0  0
    8.8395   -4.3752   23.6923 O   0  0  0  0  0  0  0  0  0  0  0  0
    8.0023    1.8199   20.6791 O   0  0  0  0  0  0  0  0  0  0  0  0
    5.7840    1.0120   21.5639 O   0  0  0  0  0  0  0  0  0  0  0  0
    6.8175    0.9949   20.5466 S   0  0  0  0  0  0  0  0  0  0  0  0
   13.5271   -1.7713   21.2044 Cl  0  0  0  0  0  0  0  0  0  0  0  0
   12.1652    0.7258   25.1416 H   0  0  0  0  0  0  0  0  0  0  0  0
    7.2834   -4.1106   29.8658 H   0  0  0  0  0  0  0  0  0  0  0  0
    9.8855   -0.2295   25.1660 H   0  0  0  0  0  0  0  0  0  0  0  0
    7.6813   -2.4312   28.0787 H   0  0  0  0  0  0  0  0  0  0  0  0
   13.7797    0.0539   23.4000 H   0  0  0  0  0  0  0  0  0  0  0  0
   10.8213   -2.5610   21.6735 H   0  0  0  0  0  0  0  0  0  0  0  0
    7.5023   -6.5337   29.2896 H   0  0  0  0  0  0  0  0  0  0  0  0
    8.4609   -5.6853   25.3813 H   0  0  0  0  0  0  0  0  0  0  0  0
    7.8676    0.0003   23.3958 H   0  0  0  0  0  0  0  0  0  0  0  0
    6.7817   -1.3160   24.0073 H   0  0  0  0  0  0  0  0  0  0  0  0
    7.2536   -2.6912   21.9782 H   0  0  0  0  0  0  0  0  0  0  0  0
    5.6820    2.4228   19.0469 H   0  0  0  0  0  0  0  0  0  0  0  0
    6.7850    1.2881   18.2035 H   0  0  0  0  0  0  0  0  0  0  0  0
    5.2127    0.7047   18.8386 H   0  0  0  0  0  0  0  0  0  0  0  0
    9.1171   -0.4212   21.2082 H   0  0  0  0  0  0  0  0  0  0  0  0
    8.8918   -1.9586   20.3070 H   0  0  0  0  0  0  0  0  0  0  0  0
    8.2440   -2.0167   25.7896 H   0  0  0  0  0  0  0  0  0  0  0  0
    6.5080   -1.2812   20.0133 H   0  0  0  0  0  0  0  0  0  0  0  0
  1  3  2  0  0  0  0
  1  5  1  0  0  0  0
  2  4  2  0  0  0  0
  2  7  1  0  0  0  0
  3  9  1  0  0  0  0
  4 10  1  0  0  0  0
  5 11  2  0  0  0  0
  6  9  2  0  0  0  0
  6 11  1  0  0  0  0
  7 18  2  0  0  0  0
  8 10  2  0  0  0  0
  8 18  1  0  0  0  0
  9 15  1  0  0  0  0
 10 19  1  0  0  0  0
 11 25  1  0  0  0  0
 12 15  1  1  0  0  0
 12 19  1  0  0  0  0
 12 21  2  0  0  0  0
 13 14  1  0  0  0  0
 13 15  1  0  0  0  0
 14 15  1  0  0  0  0
 14 17  1  1  0  0  0
 16 24  1  0  0  0  0
 17 20  1  0  0  0  0
 20 24  1  0  0  0  0
 22 24  2  0  0  0  0
 23 24  2  0  0  0  0
  1 26  1  0  0  0  0
  2 27  1  0  0  0  0
  3 28  1  0  0  0  0
  4 29  1  0  0  0  0
  5 30  1  0  0  0  0
  6 31  1  0  0  0  0
  7 32  1  0  0  0  0
  8 33  1  0  0  0  0
 13 34  1  0  0  0  0
 13 35  1  0  0  0  0
 14 36  1  0  0  0  0
 16 37  1  0  0  0  0
 16 38  1  0  0  0  0
 16 39  1  0  0  0  0
 17 40  1  0  0  0  0
 17 41  1  0  0  0  0
 19 42  1  0  0  0  0
 20 43  1  0  0  0  0
M  END
> <Chemgauss4 Score>
-5.6818151473999

> <Number of Confs>
200

$$$$
CHR-SOS-6c4-2
  -OEChem-03242005443D

 47 49  0     0  0  0  0  0  0999 V2000
    9.6253   -2.9521   25.0545 C   0  0  0  0  0  0  0  0  0  0  0  0
   10.3587   -2.4655   24.2372 C   0  0  0  0  0  0  0  0  0  0  0  0
    6.5881   -4.3426   26.6985 C   0  0  0  0  0  0  0  0  0  0  0  0
    7.4134   -3.7762   25.7334 C   0  0  0  0  0  0  0  0  0  0  0  0
    6.1501    0.4878   18.4739 C   0  0  0  0  0  0  0  0  0  0  0  0
    7.1442   -4.6450   27.9310 C   0  0  0  0  0  0  0  0  0  0  0  0
    5.4831    1.2530   19.4170 C   0  0  0  0  0  0  0  0  0  0  0  0
    9.2100   -3.8715   27.2889 C   0  0  0  0  0  0  0  0  0  0  0  0
    6.9578    0.6568   21.0747 C   0  0  0  0  0  0  0  0  0  0  0  0
    8.7507   -3.5330   26.0262 C   0  0  0  0  0  0  0  0  0  0  0  0
    7.2757   -0.2171   18.8857 C   0  0  0  0  0  0  0  0  0  0  0  0
    7.6938   -0.1365   20.2093 C   0  0  0  0  0  0  0  0  0  0  0  0
    9.3611   -0.8438   21.9701 C   0  0  0  0  0  0  0  0  0  0  0  0
   14.0283   -0.9014   22.6613 C   0  0  0  0  0  0  0  0  0  0  0  0
   12.8807    0.0796   22.8724 C   0  0  0  0  0  0  0  0  0  0  0  0
   13.5355   -2.2300   22.0995 C   0  0  0  0  0  0  0  0  0  0  0  0
   11.7858   -0.5177   23.7572 C   0  0  0  0  0  0  0  0  0  0  0  0
   12.4300   -2.8382   22.9648 C   0  0  0  0  0  0  0  0  0  0  0  0
   11.2608   -1.8675   23.2309 C   0  0  0  0  0  0  0  0  0  0  0  0
    8.0137   -1.0504   17.8899 C   0  0  0  0  0  0  0  0  0  0  0  0
    8.4385   -4.4233   28.2522 N   0  0  0  0  0  0  0  0  0  0  0  0
    5.8592    1.3560   20.7114 N   0  0  0  0  0  0  0  0  0  0  0  0
    8.8321   -0.8341   20.6764 N   0  0  0  0  0  0  0  0  0  0  0  0
   10.4918   -1.6585   22.0173 N   0  0  0  0  0  0  0  0  0  0  0  0
    8.9229   -0.2383   22.9453 O   0  0  0  0  0  0  0  0  0  0  0  0
    5.5422   -4.5407   26.4935 H   0  0  0  0  0  0  0  0  0  0  0  0
    7.0009   -3.5301   24.7582 H   0  0  0  0  0  0  0  0  0  0  0  0
    5.7977    0.4461   17.4489 H   0  0  0  0  0  0  0  0  0  0  0  0
    6.5426   -5.0885   28.7172 H   0  0  0  0  0  0  0  0  0  0  0  0
    4.5995    1.8216   19.1465 H   0  0  0  0  0  0  0  0  0  0  0  0
   10.2434   -3.7066   27.5808 H   0  0  0  0  0  0  0  0  0  0  0  0
    7.2343    0.7604   22.1198 H   0  0  0  0  0  0  0  0  0  0  0  0
   14.7665   -0.4641   21.9797 H   0  0  0  0  0  0  0  0  0  0  0  0
   14.5394   -1.0758   23.6162 H   0  0  0  0  0  0  0  0  0  0  0  0
   13.2637    0.9964   23.3352 H   0  0  0  0  0  0  0  0  0  0  0  0
   12.4594    0.3682   21.9020 H   0  0  0  0  0  0  0  0  0  0  0  0
   13.1638   -2.0808   21.0785 H   0  0  0  0  0  0  0  0  0  0  0  0
   14.3739   -2.9325   22.0303 H   0  0  0  0  0  0  0  0  0  0  0  0
   12.1932   -0.6523   24.7694 H   0  0  0  0  0  0  0  0  0  0  0  0
   10.9647    0.2041   23.8618 H   0  0  0  0  0  0  0  0  0  0  0  0
   12.0680   -3.7646   22.4992 H   0  0  0  0  0  0  0  0  0  0  0  0
   12.8745   -3.1434   23.9230 H   0  0  0  0  0  0  0  0  0  0  0  0
    8.7932   -0.4555   17.4002 H   0  0  0  0  0  0  0  0  0  0  0  0
    8.4849   -1.9170   18.3699 H   0  0  0  0  0  0  0  0  0  0  0  0
    7.3363   -1.4408   17.1203 H   0  0  0  0  0  0  0  0  0  0  0  0
    9.3210   -1.3955   19.9837 H   0  0  0  0  0  0  0  0  0  0  0  0
   10.7890   -2.1239   21.1697 H   0  0  0  0  0  0  0  0  0  0  0  0
  1  2  3  0  0  0  0
  1 10  1  0  0  0  0
  2 19  1  0  0  0  0
  3  4  2  0  0  0  0
  3  6  1  0  0  0  0
  4 10  1  0  0  0  0
  5  7  2  0  0  0  0
  5 11  1  0  0  0  0
  6 21  2  0  0  0  0
  7 22  1  0  0  0  0
  8 10  2  0  0  0  0
  8 21  1  0  0  0  0
  9 12  1  0  0  0  0
  9 22  2  0  0  0  0
 11 12  2  0  0  0  0
 11 20  1  0  0  0  0
 12 23  1  0  0  0  0
 13 23  1  0  0  0  0
 13 24  1  0  0  0  0
 13 25  2  0  0  0  0
 14 15  1  0  0  0  0
 14 16  1  0  0  0  0
 15 17  1  0  0  0  0
 16 18  1  0  0  0  0
 17 19  1  0  0  0  0
 18 19  1  0  0  0  0
 19 24  1  0  0  0  0
  3 26  1  0  0  0  0
  4 27  1  0  0  0  0
  5 28  1  0  0  0  0
  6 29  1  0  0  0  0
  7 30  1  0  0  0  0
  8 31  1  0  0  0  0
  9 32  1  0  0  0  0
 14 33  1  0  0  0  0
 14 34  1  0  0  0  0
 15 35  1  0  0  0  0
 15 36  1  0  0  0  0
 16 37  1  0  0  0  0
 16 38  1  0  0  0  0
 17 39  1  0  0  0  0
 17 40  1  0  0  0  0
 18 41  1  0  0  0  0
 18 42  1  0  0  0  0
 20 43  1  0  0  0  0
 20 44  1  0  0  0  0
 20 45  1  0  0  0  0
 23 46  1  0  0  0  0
 24 47  1  0  0  0  0
M  END
> <Chemgauss4 Score>
-5.68161106109619

> <Number of Confs>
5

$$$$
ADA-UNI-f8e-7
  -OEChem-03242005443D

 43 44  0     1  0  0  0  0  0999 V2000
   12.4535    0.0959   24.5987 C   0  0  0  0  0  0  0  0  0  0  0  0
    8.0099   -5.7159   27.4637 C   0  0  0  0  0  0  0  0  0  0  0  0
   11.0936   -0.2045   24.6743 C   0  0  0  0  0  0  0  0  0  0  0  0
    8.2570   -4.7671   26.4779 C   0  0  0  0  0  0  0  0  0  0  0  0
   13.2116   -0.3677   23.5235 C   0  0  0  0  0  0  0  0  0  0  0  0
   11.2496   -1.4324   22.5994 C   0  0  0  0  0  0  0  0  0  0  0  0
    7.8452   -5.2708   28.7655 C   0  0  0  0  0  0  0  0  0  0  0  0
    8.1516   -3.0788   28.1496 C   0  0  0  0  0  0  0  0  0  0  0  0
   10.4916   -0.9687   23.6746 C   0  0  0  0  0  0  0  0  0  0  0  0
    8.3308   -3.4212   26.8190 C   0  0  0  0  0  0  0  0  0  0  0  0
   12.6096   -1.1319   22.5238 C   0  0  0  0  0  0  0  0  0  0  0  0
    8.7765   -2.6220   24.4733 C   0  0  0  0  0  0  0  0  0  0  0  0
    7.8162   -1.1951   17.8163 C   0  0  0  0  0  0  0  0  0  0  0  0
    6.5640   -1.2906   21.0108 C   0  0  0  0  0  0  0  0  0  0  0  0
    7.0764   -1.2099   22.4372 C   0  0  0  0  0  0  0  0  0  0  0  0
    9.0185   -1.2949   23.7578 C   0  0  2  0  0  0  0  0  0  0  0  0
    7.9099   -3.9721   29.1351 N   0  0  0  0  0  0  0  0  0  0  0  0
    8.5812   -2.4328   25.8381 N   0  0  0  0  0  0  0  0  0  0  0  0
    7.1474   -0.1969   20.2133 N   0  0  0  0  0  0  0  0  0  0  0  0
    8.7821   -3.6865   23.8619 O   0  0  0  0  0  0  0  0  0  0  0  0
    7.0514    1.2919   18.0994 O   0  0  0  0  0  0  0  0  0  0  0  0
    5.3583   -0.5507   18.4070 O   0  0  0  0  0  0  0  0  0  0  0  0
    8.4900   -1.3634   22.4405 O   0  0  0  0  0  0  0  0  0  0  0  0
    6.7029   -0.0332   18.5731 S   0  0  0  0  0  0  0  0  0  0  0  0
   13.5456   -1.7046   21.1981 Cl  0  0  0  0  0  0  0  0  0  0  0  0
   12.9219    0.6910   25.3774 H   0  0  0  0  0  0  0  0  0  0  0  0
    7.9481   -6.7706   27.2207 H   0  0  0  0  0  0  0  0  0  0  0  0
   10.5106    0.1608   25.5157 H   0  0  0  0  0  0  0  0  0  0  0  0
    8.3904   -5.0872   25.4478 H   0  0  0  0  0  0  0  0  0  0  0  0
   14.2706   -0.1260   23.4778 H   0  0  0  0  0  0  0  0  0  0  0  0
   10.7755   -2.0275   21.8223 H   0  0  0  0  0  0  0  0  0  0  0  0
    7.6512   -5.9713   29.5711 H   0  0  0  0  0  0  0  0  0  0  0  0
    8.1976   -2.0445   28.4775 H   0  0  0  0  0  0  0  0  0  0  0  0
    7.6367   -1.1930   16.7400 H   0  0  0  0  0  0  0  0  0  0  0  0
    8.8390   -0.8839   18.0340 H   0  0  0  0  0  0  0  0  0  0  0  0
    7.6194   -2.1832   18.2349 H   0  0  0  0  0  0  0  0  0  0  0  0
    6.8400   -2.2410   20.5432 H   0  0  0  0  0  0  0  0  0  0  0  0
    5.4752   -1.1842   20.9907 H   0  0  0  0  0  0  0  0  0  0  0  0
    6.6473   -2.0194   23.0359 H   0  0  0  0  0  0  0  0  0  0  0  0
    6.8252   -0.2507   22.9015 H   0  0  0  0  0  0  0  0  0  0  0  0
    8.4759   -0.4985   24.2815 H   0  0  0  0  0  0  0  0  0  0  0  0
    8.6170   -1.4767   26.1852 H   0  0  0  0  0  0  0  0  0  0  0  0
    8.1229    0.0211   20.4547 H   0  0  0  0  0  0  0  0  0  0  0  0
  1  3  2  0  0  0  0
  1  5  1  0  0  0  0
  2  4  2  0  0  0  0
  2  7  1  0  0  0  0
  3  9  1  0  0  0  0
  4 10  1  0  0  0  0
  5 11  2  0  0  0  0
  6  9  2  0  0  0  0
  6 11  1  0  0  0  0
  7 17  2  0  0  0  0
  8 10  2  0  0  0  0
  8 17  1  0  0  0  0
  9 16  1  0  0  0  0
 10 18  1  0  0  0  0
 11 25  1  0  0  0  0
 12 16  1  1  0  0  0
 12 18  1  0  0  0  0
 12 20  2  0  0  0  0
 13 24  1  0  0  0  0
 14 15  1  0  0  0  0
 14 19  1  0  0  0  0
 15 23  1  0  0  0  0
 16 23  1  0  0  0  0
 19 24  1  0  0  0  0
 21 24  2  0  0  0  0
 22 24  2  0  0  0  0
  1 26  1  0  0  0  0
  2 27  1  0  0  0  0
  3 28  1  0  0  0  0
  4 29  1  0  0  0  0
  5 30  1  0  0  0  0
  6 31  1  0  0  0  0
  7 32  1  0  0  0  0
  8 33  1  0  0  0  0
 13 34  1  0  0  0  0
 13 35  1  0  0  0  0
 13 36  1  0  0  0  0
 14 37  1  0  0  0  0
 14 38  1  0  0  0  0
 15 39  1  0  0  0  0
 15 40  1  0  0  0  0
 16 41  1  0  0  0  0
 18 42  1  0  0  0  0
 19 43  1  0  0  0  0
M  END
> <Chemgauss4 Score>
-5.678466796875

> <Number of Confs>
200

$$$$
AGN-NEW-c7b-6
  -OEChem-03242005443D

 33 34  0     0  0  0  0  0  0999 V2000
    8.6358   -0.8557   28.2008 C   0  0  0  0  0  0  0  0  0  0  0  0
    8.5604   -2.0326   27.9749 C   0  0  0  0  0  0  0  0  0  0  0  0
   11.3248    0.2885   24.5066 C   0  0  0  0  0  0  0  0  0  0  0  0
    8.2789   -6.1356   27.3824 C   0  0  0  0  0  0  0  0  0  0  0  0
   12.5257   -0.0230   23.8690 C   0  0  0  0  0  0  0  0  0  0  0  0
   10.1775   -0.4572   24.2360 C   0  0  0  0  0  0  0  0  0  0  0  0
    8.4504   -5.3255   26.2654 C   0  0  0  0  0  0  0  0  0  0  0  0
   11.4319   -1.8258   22.6898 C   0  0  0  0  0  0  0  0  0  0  0  0
    8.2128   -5.5234   28.6236 C   0  0  0  0  0  0  0  0  0  0  0  0
    8.4709   -3.4331   27.7059 C   0  0  0  0  0  0  0  0  0  0  0  0
   12.5792   -1.0801   22.9606 C   0  0  0  0  0  0  0  0  0  0  0  0
   10.2310   -1.5144   23.3275 C   0  0  0  0  0  0  0  0  0  0  0  0
    8.5493   -3.9474   26.4216 C   0  0  0  0  0  0  0  0  0  0  0  0
    8.8179   -3.5177   23.9542 C   0  0  0  0  0  0  0  0  0  0  0  0
   13.8639   -1.4134   22.2803 C   0  0  0  0  0  0  0  0  0  0  0  0
    9.0040   -2.3113   23.0376 C   0  0  0  0  0  0  0  0  0  0  0  0
    8.3047   -4.1883   28.8148 N   0  0  0  0  0  0  0  0  0  0  0  0
    8.7247   -3.1213   25.2859 N   0  0  0  0  0  0  0  0  0  0  0  0
    8.7668   -4.6619   23.5143 O   0  0  0  0  0  0  0  0  0  0  0  0
    8.7032    0.1881   28.4010 H   0  0  0  0  0  0  0  0  0  0  0  0
   11.2833    1.1117   25.2141 H   0  0  0  0  0  0  0  0  0  0  0  0
    8.1988   -7.2122   27.2845 H   0  0  0  0  0  0  0  0  0  0  0  0
   13.4147    0.5633   24.0866 H   0  0  0  0  0  0  0  0  0  0  0  0
    9.2461   -0.2069   24.7369 H   0  0  0  0  0  0  0  0  0  0  0  0
    8.5055   -5.7791   25.2793 H   0  0  0  0  0  0  0  0  0  0  0  0
   11.4732   -2.6507   21.9824 H   0  0  0  0  0  0  0  0  0  0  0  0
    8.0790   -6.1108   29.5260 H   0  0  0  0  0  0  0  0  0  0  0  0
   14.4304   -2.1439   22.8708 H   0  0  0  0  0  0  0  0  0  0  0  0
   13.6885   -1.8342   21.2817 H   0  0  0  0  0  0  0  0  0  0  0  0
   14.4858   -0.5192   22.1433 H   0  0  0  0  0  0  0  0  0  0  0  0
    8.1063   -1.6769   23.1231 H   0  0  0  0  0  0  0  0  0  0  0  0
    9.0205   -2.6722   21.9961 H   0  0  0  0  0  0  0  0  0  0  0  0
    8.7904   -2.1211   25.4631 H   0  0  0  0  0  0  0  0  0  0  0  0
  1  2  3  0  0  0  0
  2 10  1  0  0  0  0
  3  5  1  0  0  0  0
  3  6  2  0  0  0  0
  4  7  2  0  0  0  0
  4  9  1  0  0  0  0
  5 11  2  0  0  0  0
  6 12  1  0  0  0  0
  7 13  1  0  0  0  0
  8 11  1  0  0  0  0
  8 12  2  0  0  0  0
  9 17  2  0  0  0  0
 10 13  2  0  0  0  0
 10 17  1  0  0  0  0
 11 15  1  0  0  0  0
 12 16  1  0  0  0  0
 13 18  1  0  0  0  0
 14 16  1  0  0  0  0
 14 18  1  0  0  0  0
 14 19  2  0  0  0  0
  1 20  1  0  0  0  0
  3 21  1  0  0  0  0
  4 22  1  0  0  0  0
  5 23  1  0  0  0  0
  6 24  1  0  0  0  0
  7 25  1  0  0  0  0
  8 26  1  0  0  0  0
  9 27  1  0  0  0  0
 15 28  1  0  0  0  0
 15 29  1  0  0  0  0
 15 30  1  0  0  0  0
 16 31  1  0  0  0  0
 16 32  1  0  0  0  0
 18 33  1  0  0  0  0
M  END
> <Chemgauss4 Score>
-5.67219495773315

> <Number of Confs>
20

$$$$
CHR-SOS-597-3
  -OEChem-03242005443D

 43 45  0     0  0  0  0  0  0999 V2000
    7.5411   -4.6936   28.9714 C   0  0  0  0  0  0  0  0  0  0  0  0
    8.1071   -3.6480   28.2505 C   0  0  0  0  0  0  0  0  0  0  0  0
    7.6492   -5.9732   28.4511 C   0  0  0  0  0  0  0  0  0  0  0  0
    8.8086   -5.2250   26.6142 C   0  0  0  0  0  0  0  0  0  0  0  0
    7.2231   -2.7838   23.9273 C   0  0  0  0  0  0  0  0  0  0  0  0
    8.7547   -3.9103   27.0483 C   0  0  0  0  0  0  0  0  0  0  0  0
    8.0837   -1.8888   23.3269 C   0  0  0  0  0  0  0  0  0  0  0  0
    6.2690   -0.9202   24.5805 C   0  0  0  0  0  0  0  0  0  0  0  0
   10.0159   -2.9738   25.0800 C   0  0  0  0  0  0  0  0  0  0  0  0
   12.9193   -1.0785   22.7566 C   0  0  0  0  0  0  0  0  0  0  0  0
   12.1962    0.2669   22.8170 C   0  0  0  0  0  0  0  0  0  0  0  0
   11.8363   -2.1352   22.5510 C   0  0  0  0  0  0  0  0  0  0  0  0
   10.7106   -0.0402   22.6434 C   0  0  0  0  0  0  0  0  0  0  0  0
   10.5494   -1.4986   23.0939 C   0  0  0  0  0  0  0  0  0  0  0  0
    5.3251    0.0154   25.2304 C   0  0  0  0  0  0  0  0  0  0  0  0
    9.3021   -2.1418   22.4843 C   0  0  0  0  0  0  0  0  0  0  0  0
   10.4771   -1.6050   24.6258 C   0  0  0  0  0  0  0  0  0  0  0  0
    8.2706   -6.2669   27.2870 N   0  0  0  0  0  0  0  0  0  0  0  0
    6.1822   -2.2302   24.6469 N   0  0  0  0  0  0  0  0  0  0  0  0
    9.3401   -2.8670   26.2922 N   0  0  0  0  0  0  0  0  0  0  0  0
   10.2330   -3.9940   24.4347 O   0  0  0  0  0  0  0  0  0  0  0  0
    7.5775   -0.2862   23.6690 S   0  0  0  0  0  0  0  0  0  0  0  0
    7.0315   -4.5125   29.9108 H   0  0  0  0  0  0  0  0  0  0  0  0
    8.0378   -2.6336   28.6342 H   0  0  0  0  0  0  0  0  0  0  0  0
    7.2238   -6.8229   28.9748 H   0  0  0  0  0  0  0  0  0  0  0  0
    9.3006   -5.4925   25.6838 H   0  0  0  0  0  0  0  0  0  0  0  0
    7.3083   -3.8611   23.8733 H   0  0  0  0  0  0  0  0  0  0  0  0
   13.6573   -1.1056   21.9484 H   0  0  0  0  0  0  0  0  0  0  0  0
   13.4569   -1.2563   23.6950 H   0  0  0  0  0  0  0  0  0  0  0  0
   12.3793    0.7464   23.7855 H   0  0  0  0  0  0  0  0  0  0  0  0
   12.5526    0.9540   22.0427 H   0  0  0  0  0  0  0  0  0  0  0  0
   11.7409   -2.3434   21.4776 H   0  0  0  0  0  0  0  0  0  0  0  0
   12.0895   -3.0785   23.0460 H   0  0  0  0  0  0  0  0  0  0  0  0
   10.0825    0.6552   23.2099 H   0  0  0  0  0  0  0  0  0  0  0  0
   10.4466    0.0675   21.5835 H   0  0  0  0  0  0  0  0  0  0  0  0
    5.6596    0.2685   26.2485 H   0  0  0  0  0  0  0  0  0  0  0  0
    5.2240    0.9556   24.6643 H   0  0  0  0  0  0  0  0  0  0  0  0
    4.3108   -0.4099   25.3037 H   0  0  0  0  0  0  0  0  0  0  0  0
    9.4668   -3.2176   22.3755 H   0  0  0  0  0  0  0  0  0  0  0  0
    9.1492   -1.7485   21.4752 H   0  0  0  0  0  0  0  0  0  0  0  0
    9.7824   -0.8497   24.9929 H   0  0  0  0  0  0  0  0  0  0  0  0
   11.4673   -1.4036   25.0341 H   0  0  0  0  0  0  0  0  0  0  0  0
    9.2488   -1.9356   26.6926 H   0  0  0  0  0  0  0  0  0  0  0  0
  1  2  2  0  0  0  0
  1  3  1  0  0  0  0
  2  6  1  0  0  0  0
  3 18  2  0  0  0  0
  4  6  2  0  0  0  0
  4 18  1  0  0  0  0
  5  7  2  0  0  0  0
  5 19  1  0  0  0  0
  6 20  1  0  0  0  0
  7 16  1  0  0  0  0
  7 22  1  0  0  0  0
  8 15  1  0  0  0  0
  8 19  2  0  0  0  0
  8 22  1  0  0  0  0
  9 17  1  0  0  0  0
  9 20  1  0  0  0  0
  9 21  2  0  0  0  0
 10 11  1  0  0  0  0
 10 12  1  0  0  0  0
 11 13  1  0  0  0  0
 12 14  1  0  0  0  0
 13 14  1  0  0  0  0
 14 16  1  0  0  0  0
 14 17  1  0  0  0  0
  1 23  1  0  0  0  0
  2 24  1  0  0  0  0
  3 25  1  0  0  0  0
  4 26  1  0  0  0  0
  5 27  1  0  0  0  0
 10 28  1  0  0  0  0
 10 29  1  0  0  0  0
 11 30  1  0  0  0  0
 11 31  1  0  0  0  0
 12 32  1  0  0  0  0
 12 33  1  0  0  0  0
 13 34  1  0  0  0  0
 13 35  1  0  0  0  0
 15 36  1  0  0  0  0
 15 37  1  0  0  0  0
 15 38  1  0  0  0  0
 16 39  1  0  0  0  0
 16 40  1  0  0  0  0
 17 41  1  0  0  0  0
 17 42  1  0  0  0  0
 20 43  1  0  0  0  0
M  END
> <Chemgauss4 Score>
-5.66640520095825

> <Number of Confs>
200

$$$$
HEI-REL-0c9-1
  -OEChem-03242005443D

 51 53  0     1  0  0  0  0  0999 V2000
   11.0990   -4.1728   24.7287 C   0  0  0  0  0  0  0  0  0  0  0  0
   10.2003   -4.7424   25.6229 C   0  0  0  0  0  0  0  0  0  0  0  0
    8.8559   -2.7401   25.5093 C   0  0  0  0  0  0  0  0  0  0  0  0
   10.8865   -2.8766   24.2257 C   0  0  0  0  0  0  0  0  0  0  0  0
    9.7411   -2.1324   24.5960 C   0  0  0  0  0  0  0  0  0  0  0  0
    9.0800   -4.0243   26.0159 C   0  0  0  0  0  0  0  0  0  0  0  0
    5.2423    1.5316   19.3515 C   0  0  0  0  0  0  0  0  0  0  0  0
   11.8925   -2.3221   23.2488 C   0  0  0  0  0  0  0  0  0  0  0  0
   11.8075   -0.8050   23.1697 C   0  0  0  0  0  0  0  0  0  0  0  0
    6.9306    1.7592   21.2367 C   0  0  0  0  0  0  0  0  0  0  0  0
    6.1988   -0.4603   20.4604 C   0  0  0  0  0  0  0  0  0  0  0  0
    8.3672    1.2365   21.2927 C   0  0  0  0  0  0  0  0  0  0  0  0
    7.6489   -0.9383   20.5253 C   0  0  0  0  0  0  0  0  0  0  0  0
   10.3645   -0.3252   23.0060 C   0  0  1  0  0  0  0  0  0  0  0  0
    5.0487    0.7534   18.0745 C   0  0  0  0  0  0  0  0  0  0  0  0
    8.5749    0.0578   24.7197 C   0  0  0  0  0  0  0  0  0  0  0  0
    9.7695   -0.6923   21.6444 C   0  0  0  0  0  0  0  0  0  0  0  0
    9.5186   -0.8538   24.0844 N   0  0  3  0  0  0  0  0  0  0  0  0
    6.1252    0.9893   20.2842 N   0  0  0  0  0  0  0  0  0  0  0  0
    8.3920   -0.2085   21.5629 N   0  0  0  0  0  0  0  0  0  0  0  0
    8.6678   -6.2503   27.4229 N   0  0  0  0  0  0  0  0  0  0  0  0
    4.6245    2.5867   19.5153 O   0  0  0  0  0  0  0  0  0  0  0  0
    7.9798   -3.9549   28.3734 O   0  0  0  0  0  0  0  0  0  0  0  0
    6.6783   -4.9335   26.4509 O   0  0  0  0  0  0  0  0  0  0  0  0
    7.9442   -4.7285   27.1404 S   0  0  0  0  0  0  0  0  0  0  0  0
   11.9741   -4.7414   24.4231 H   0  0  0  0  0  0  0  0  0  0  0  0
   10.3837   -5.7428   26.0044 H   0  0  0  0  0  0  0  0  0  0  0  0
    7.9608   -2.2174   25.8403 H   0  0  0  0  0  0  0  0  0  0  0  0
   12.9080   -2.6017   23.5541 H   0  0  0  0  0  0  0  0  0  0  0  0
   11.7102   -2.7674   22.2638 H   0  0  0  0  0  0  0  0  0  0  0  0
   12.2242   -0.3680   24.0874 H   0  0  0  0  0  0  0  0  0  0  0  0
   12.4302   -0.4423   22.3433 H   0  0  0  0  0  0  0  0  0  0  0  0
    6.4481    1.6597   22.2170 H   0  0  0  0  0  0  0  0  0  0  0  0
    6.9447    2.8225   20.9898 H   0  0  0  0  0  0  0  0  0  0  0  0
    5.6755   -0.9764   19.6489 H   0  0  0  0  0  0  0  0  0  0  0  0
    5.6721   -0.6999   21.3925 H   0  0  0  0  0  0  0  0  0  0  0  0
    8.8752    1.4644   20.3515 H   0  0  0  0  0  0  0  0  0  0  0  0
    8.8894    1.7650   22.0937 H   0  0  0  0  0  0  0  0  0  0  0  0
    7.6443   -2.0046   20.7631 H   0  0  0  0  0  0  0  0  0  0  0  0
    8.1209   -0.8129   19.5468 H   0  0  0  0  0  0  0  0  0  0  0  0
   10.3853    0.7706   23.0717 H   0  0  0  0  0  0  0  0  0  0  0  0
    4.2297    0.0540   18.2059 H   0  0  0  0  0  0  0  0  0  0  0  0
    5.9626    0.2152   17.8442 H   0  0  0  0  0  0  0  0  0  0  0  0
    4.8212    1.4440   17.2688 H   0  0  0  0  0  0  0  0  0  0  0  0
    8.5489    1.0061   24.1630 H   0  0  0  0  0  0  0  0  0  0  0  0
    7.5722   -0.3945   24.7203 H   0  0  0  0  0  0  0  0  0  0  0  0
    8.8913    0.2494   25.7557 H   0  0  0  0  0  0  0  0  0  0  0  0
   10.3901   -0.2191   20.8867 H   0  0  0  0  0  0  0  0  0  0  0  0
    9.8033   -1.7764   21.5630 H   0  0  0  0  0  0  0  0  0  0  0  0
    9.1027   -6.4143   28.3391 H   0  0  0  0  0  0  0  0  0  0  0  0
    8.2140   -7.0811   27.0240 H   0  0  0  0  0  0  0  0  0  0  0  0
  1  2  2  0  0  0  0
  1  4  1  0  0  0  0
  2  6  1  0  0  0  0
  3  5  1  0  0  0  0
  3  6  2  0  0  0  0
  4  5  2  0  0  0  0
  4  8  1  0  0  0  0
  5 18  1  0  0  0  0
  6 25  1  0  0  0  0
  7 15  1  0  0  0  0
  7 19  1  0  0  0  0
  7 22  2  0  0  0  0
  8  9  1  0  0  0  0
  9 14  1  0  0  0  0
 10 12  1  0  0  0  0
 10 19  1  0  0  0  0
 11 13  1  0  0  0  0
 11 19  1  0  0  0  0
 12 20  1  0  0  0  0
 13 20  1  0  0  0  0
 14 17  1  1  0  0  0
 14 18  1  0  0  0  0
 16 18  1  6  0  0  0
 17 20  1  0  0  0  0
 21 25  1  0  0  0  0
 23 25  2  0  0  0  0
 24 25  2  0  0  0  0
  1 26  1  0  0  0  0
  2 27  1  0  0  0  0
  3 28  1  0  0  0  0
  8 29  1  0  0  0  0
  8 30  1  0  0  0  0
  9 31  1  0  0  0  0
  9 32  1  0  0  0  0
 10 33  1  0  0  0  0
 10 34  1  0  0  0  0
 11 35  1  0  0  0  0
 11 36  1  0  0  0  0
 12 37  1  0  0  0  0
 12 38  1  0  0  0  0
 13 39  1  0  0  0  0
 13 40  1  0  0  0  0
 14 41  1  0  0  0  0
 15 42  1  0  0  0  0
 15 43  1  0  0  0  0
 15 44  1  0  0  0  0
 16 45  1  0  0  0  0
 16 46  1  0  0  0  0
 16 47  1  0  0  0  0
 17 48  1  0  0  0  0
 17 49  1  0  0  0  0
 21 50  1  0  0  0  0
 21 51  1  0  0  0  0
M  END
> <Chemgauss4 Score>
-5.66221618652344

> <Number of Confs>
39

$$$$
DUN-NEW-f8c-3
  -OEChem-03242005443D

 47 49  0     1  0  0  0  0  0999 V2000
    5.0761   -3.5138   23.0060 C   0  0  0  0  0  0  0  0  0  0  0  0
    4.6422   -4.1441   24.1722 C   0  0  0  0  0  0  0  0  0  0  0  0
    6.3071   -2.8581   22.9842 C   0  0  0  0  0  0  0  0  0  0  0  0
    5.4392   -4.1187   25.3166 C   0  0  0  0  0  0  0  0  0  0  0  0
    7.1041   -2.8327   24.1286 C   0  0  0  0  0  0  0  0  0  0  0  0
    6.6702   -3.4630   25.2948 C   0  0  0  0  0  0  0  0  0  0  0  0
    8.9055   -5.3817   26.2133 C   0  0  0  0  0  0  0  0  0  0  0  0
   12.1120   -0.1573   24.1749 C   0  0  0  0  0  0  0  0  0  0  0  0
    8.2767   -2.6000   28.4638 C   0  0  0  0  0  0  0  0  0  0  0  0
    9.2056   -3.7103   28.0019 C   0  0  0  0  0  0  0  0  0  0  0  0
    6.9867   -2.8700   27.6994 C   0  0  0  0  0  0  0  0  0  0  0  0
    9.3762   -2.5787   23.1450 C   0  0  0  0  0  0  0  0  0  0  0  0
    8.5896   -1.0214   24.9557 C   0  0  0  0  0  0  0  0  0  0  0  0
   10.7615   -2.2376   23.6945 C   0  0  0  0  0  0  0  0  0  0  0  0
    9.6504   -0.1100   24.3424 C   0  0  0  0  0  0  0  0  0  0  0  0
    8.8273   -3.9229   26.5328 C   0  0  2  0  0  0  0  0  0  0  0  0
   13.3480   -0.9703   23.8775 C   0  0  0  0  0  0  0  0  0  0  0  0
    8.3292   -2.1715   24.0854 N   0  0  0  0  0  0  0  0  0  0  0  0
    7.4437   -3.4499   26.4389 N   0  0  3  0  0  0  0  0  0  0  0  0
   10.8926   -0.8270   24.0662 N   0  0  0  0  0  0  0  0  0  0  0  0
    8.0503   -6.1591   26.9580 N   0  0  0  0  0  0  0  0  0  0  0  0
    9.6597   -5.8212   25.3487 O   0  0  0  0  0  0  0  0  0  0  0  0
   12.2239    1.0303   24.4877 O   0  0  0  0  0  0  0  0  0  0  0  0
   13.6399   -0.8267   22.1482 Cl  0  0  0  0  0  0  0  0  0  0  0  0
    4.4557   -3.5340   22.1148 H   0  0  0  0  0  0  0  0  0  0  0  0
    3.6841   -4.6553   24.1888 H   0  0  0  0  0  0  0  0  0  0  0  0
    6.6345   -2.3703   22.0695 H   0  0  0  0  0  0  0  0  0  0  0  0
    5.0907   -4.6140   26.2194 H   0  0  0  0  0  0  0  0  0  0  0  0
    8.0984   -2.6776   29.5430 H   0  0  0  0  0  0  0  0  0  0  0  0
    8.6835   -1.6057   28.2562 H   0  0  0  0  0  0  0  0  0  0  0  0
   10.2479   -3.3737   28.0720 H   0  0  0  0  0  0  0  0  0  0  0  0
    9.0920   -4.6118   28.6136 H   0  0  0  0  0  0  0  0  0  0  0  0
    6.3237   -3.5554   28.2398 H   0  0  0  0  0  0  0  0  0  0  0  0
    6.4496   -1.9290   27.5216 H   0  0  0  0  0  0  0  0  0  0  0  0
    9.2251   -2.0784   22.1800 H   0  0  0  0  0  0  0  0  0  0  0  0
    9.3186   -3.6597   22.9691 H   0  0  0  0  0  0  0  0  0  0  0  0
    8.9209   -1.3831   25.9366 H   0  0  0  0  0  0  0  0  0  0  0  0
    7.6741   -0.4392   25.1193 H   0  0  0  0  0  0  0  0  0  0  0  0
   10.9711   -2.8302   24.5932 H   0  0  0  0  0  0  0  0  0  0  0  0
   11.5196   -2.4951   22.9487 H   0  0  0  0  0  0  0  0  0  0  0  0
    9.2972    0.3113   23.3933 H   0  0  0  0  0  0  0  0  0  0  0  0
    9.8491    0.7325   25.0139 H   0  0  0  0  0  0  0  0  0  0  0  0
    9.5308   -3.3881   25.8800 H   0  0  0  0  0  0  0  0  0  0  0  0
   13.1581   -2.0047   24.1390 H   0  0  0  0  0  0  0  0  0  0  0  0
   14.1814   -0.5559   24.4323 H   0  0  0  0  0  0  0  0  0  0  0  0
    7.4524   -5.7072   27.6421 H   0  0  0  0  0  0  0  0  0  0  0  0
    7.9929   -7.1666   26.8509 H   0  0  0  0  0  0  0  0  0  0  0  0
  1  2  1  0  0  0  0
  1  3  2  0  0  0  0
  2  4  2  0  0  0  0
  3  5  1  0  0  0  0
  4  6  1  0  0  0  0
  5  6  2  0  0  0  0
  5 18  1  0  0  0  0
  6 19  1  6  0  0  0
  7 16  1  1  0  0  0
  7 21  1  0  0  0  0
  7 22  2  0  0  0  0
  8 17  1  0  0  0  0
  8 20  1  0  0  0  0
  8 23  2  0  0  0  0
  9 10  1  0  0  0  0
  9 11  1  0  0  0  0
 10 16  1  0  0  0  0
 11 19  1  0  0  0  0
 12 14  1  0  0  0  0
 12 18  1  0  0  0  0
 13 15  1  0  0  0  0
 13 18  1  0  0  0  0
 14 20  1  0  0  0  0
 15 20  1  0  0  0  0
 16 19  1  0  0  0  0
 17 24  1  0  0  0  0
  1 25  1  0  0  0  0
  2 26  1  0  0  0  0
  3 27  1  0  0  0  0
  4 28  1  0  0  0  0
  9 29  1  0  0  0  0
  9 30  1  0  0  0  0
 10 31  1  0  0  0  0
 10 32  1  0  0  0  0
 11 33  1  0  0  0  0
 11 34  1  0  0  0  0
 12 35  1  0  0  0  0
 12 36  1  0  0  0  0
 13 37  1  0  0  0  0
 13 38  1  0  0  0  0
 14 39  1  0  0  0  0
 14 40  1  0  0  0  0
 15 41  1  0  0  0  0
 15 42  1  0  0  0  0
 16 43  1  0  0  0  0
 17 44  1  0  0  0  0
 17 45  1  0  0  0  0
 21 46  1  0  0  0  0
 21 47  1  0  0  0  0
M  END
> <Chemgauss4 Score>
-5.6556715965271

> <Number of Confs>
139

$$$$
HEI-REL-0c9-1
  -OEChem-03242005443D

 51 53  0     1  0  0  0  0  0999 V2000
   10.1226   -2.5882   26.2775 C   0  0  0  0  0  0  0  0  0  0  0  0
    9.2633   -3.6183   26.6413 C   0  0  0  0  0  0  0  0  0  0  0  0
    8.6563   -3.8984   24.3213 C   0  0  0  0  0  0  0  0  0  0  0  0
   10.2617   -2.2124   24.9293 C   0  0  0  0  0  0  0  0  0  0  0  0
    9.5122   -2.8546   23.9151 C   0  0  0  0  0  0  0  0  0  0  0  0
    8.5323   -4.2756   25.6623 C   0  0  0  0  0  0  0  0  0  0  0  0
    5.6958    1.1154   18.3365 C   0  0  0  0  0  0  0  0  0  0  0  0
   11.2004   -1.0782   24.6032 C   0  0  0  0  0  0  0  0  0  0  0  0
   11.6080   -1.1028   23.1375 C   0  0  0  0  0  0  0  0  0  0  0  0
    6.0327    0.3410   20.7330 C   0  0  0  0  0  0  0  0  0  0  0  0
    7.6007   -0.3330   18.9578 C   0  0  0  0  0  0  0  0  0  0  0  0
    7.2270    0.5964   21.6542 C   0  0  0  0  0  0  0  0  0  0  0  0
    8.7642   -0.0590   19.9100 C   0  0  0  0  0  0  0  0  0  0  0  0
   10.3998   -1.2716   22.2151 C   0  0  2  0  0  0  0  0  0  0  0  0
    4.4138    1.7783   18.7733 C   0  0  0  0  0  0  0  0  0  0  0  0
    9.1719   -3.3382   21.5021 C   0  0  0  0  0  0  0  0  0  0  0  0
    9.4826   -0.0462   22.2108 C   0  0  0  0  0  0  0  0  0  0  0  0
    9.6350   -2.4718   22.5792 N   0  0  3  0  0  0  0  0  0  0  0  0
    6.4204    0.4485   19.3234 N   0  0  0  0  0  0  0  0  0  0  0  0
    8.3573   -0.2769   21.3058 N   0  0  0  0  0  0  0  0  0  0  0  0
    8.4960   -6.9194   26.0002 N   0  0  0  0  0  0  0  0  0  0  0  0
    6.0433    1.1920   17.1554 O   0  0  0  0  0  0  0  0  0  0  0  0
    7.0602   -5.3887   27.4973 O   0  0  0  0  0  0  0  0  0  0  0  0
    6.4266   -5.6931   25.0779 O   0  0  0  0  0  0  0  0  0  0  0  0
    7.4500   -5.5727   26.1066 S   0  0  0  0  0  0  0  0  0  0  0  0
   10.6908   -2.0748   27.0497 H   0  0  0  0  0  0  0  0  0  0  0  0
    9.1727   -3.8976   27.6871 H   0  0  0  0  0  0  0  0  0  0  0  0
    8.0580   -4.4370   23.5893 H   0  0  0  0  0  0  0  0  0  0  0  0
   10.7069   -0.1303   24.8478 H   0  0  0  0  0  0  0  0  0  0  0  0
   12.1044   -1.1480   25.2200 H   0  0  0  0  0  0  0  0  0  0  0  0
   12.1554   -0.1854   22.8908 H   0  0  0  0  0  0  0  0  0  0  0  0
   12.3040   -1.9351   22.9666 H   0  0  0  0  0  0  0  0  0  0  0  0
    5.6447   -0.6744   20.8812 H   0  0  0  0  0  0  0  0  0  0  0  0
    5.2286    1.0345   20.9868 H   0  0  0  0  0  0  0  0  0  0  0  0
    7.9060   -0.1156   17.9290 H   0  0  0  0  0  0  0  0  0  0  0  0
    7.3126   -1.3908   18.9958 H   0  0  0  0  0  0  0  0  0  0  0  0
    7.5164    1.6493   21.5928 H   0  0  0  0  0  0  0  0  0  0  0  0
    6.9132    0.3929   22.6806 H   0  0  0  0  0  0  0  0  0  0  0  0
    9.5777   -0.7430   19.6571 H   0  0  0  0  0  0  0  0  0  0  0  0
    9.1251    0.9630   19.7642 H   0  0  0  0  0  0  0  0  0  0  0  0
   10.7925   -1.3925   21.1973 H   0  0  0  0  0  0  0  0  0  0  0  0
    4.6276    2.7967   19.0804 H   0  0  0  0  0  0  0  0  0  0  0  0
    3.9908    1.2217   19.6035 H   0  0  0  0  0  0  0  0  0  0  0  0
    3.7144    1.7801   17.9435 H   0  0  0  0  0  0  0  0  0  0  0  0
    9.3604   -2.8525   20.5333 H   0  0  0  0  0  0  0  0  0  0  0  0
    9.7123   -4.2954   21.5436 H   0  0  0  0  0  0  0  0  0  0  0  0
    8.0932   -3.5209   21.6168 H   0  0  0  0  0  0  0  0  0  0  0  0
    9.1340    0.0956   23.2314 H   0  0  0  0  0  0  0  0  0  0  0  0
   10.0800    0.7989   21.8759 H   0  0  0  0  0  0  0  0  0  0  0  0
    8.7924   -7.3695   26.8749 H   0  0  0  0  0  0  0  0  0  0  0  0
    8.3597   -7.5751   25.2213 H   0  0  0  0  0  0  0  0  0  0  0  0
  1  2  2  0  0  0  0
  1  4  1  0  0  0  0
  2  6  1  0  0  0  0
  3  5  1  0  0  0  0
  3  6  2  0  0  0  0
  4  5  2  0  0  0  0
  4  8  1  0  0  0  0
  5 18  1  0  0  0  0
  6 25  1  0  0  0  0
  7 15  1  0  0  0  0
  7 19  1  0  0  0  0
  7 22  2  0  0  0  0
  8  9  1  0  0  0  0
  9 14  1  0  0  0  0
 10 12  1  0  0  0  0
 10 19  1  0  0  0  0
 11 13  1  0  0  0  0
 11 19  1  0  0  0  0
 12 20  1  0  0  0  0
 13 20  1  0  0  0  0
 14 17  1  6  0  0  0
 14 18  1  0  0  0  0
 16 18  1  6  0  0  0
 17 20  1  0  0  0  0
 21 25  1  0  0  0  0
 23 25  2  0  0  0  0
 24 25  2  0  0  0  0
  1 26  1  0  0  0  0
  2 27  1  0  0  0  0
  3 28  1  0  0  0  0
  8 29  1  0  0  0  0
  8 30  1  0  0  0  0
  9 31  1  0  0  0  0
  9 32  1  0  0  0  0
 10 33  1  0  0  0  0
 10 34  1  0  0  0  0
 11 35  1  0  0  0  0
 11 36  1  0  0  0  0
 12 37  1  0  0  0  0
 12 38  1  0  0  0  0
 13 39  1  0  0  0  0
 13 40  1  0  0  0  0
 14 41  1  0  0  0  0
 15 42  1  0  0  0  0
 15 43  1  0  0  0  0
 15 44  1  0  0  0  0
 16 45  1  0  0  0  0
 16 46  1  0  0  0  0
 16 47  1  0  0  0  0
 17 48  1  0  0  0  0
 17 49  1  0  0  0  0
 21 50  1  0  0  0  0
 21 51  1  0  0  0  0
M  END
> <Chemgauss4 Score>
-5.64073848724365

> <Number of Confs>
40

$$$$
CHR-SOS-6c4-16
  -OEChem-03242005443D

 39 41  0     0  0  0  0  0  0999 V2000
    9.9446   -1.7653   25.4668 C   0  0  0  0  0  0  0  0  0  0  0  0
    9.1500   -2.1304   26.2902 C   0  0  0  0  0  0  0  0  0  0  0  0
    6.3307   -4.0544   21.5851 C   0  0  0  0  0  0  0  0  0  0  0  0
    6.1356   -5.4199   21.4545 C   0  0  0  0  0  0  0  0  0  0  0  0
    6.7426   -5.8058   23.6364 C   0  0  0  0  0  0  0  0  0  0  0  0
   11.3963   -2.0438   23.4271 C   0  0  0  0  0  0  0  0  0  0  0  0
   12.2306   -0.0052   23.4945 C   0  0  0  0  0  0  0  0  0  0  0  0
   10.8905   -1.3282   24.4867 C   0  0  0  0  0  0  0  0  0  0  0  0
    6.7541   -3.5725   22.8188 C   0  0  0  0  0  0  0  0  0  0  0  0
    6.9664   -4.4584   23.8692 C   0  0  0  0  0  0  0  0  0  0  0  0
    7.6475   -4.7914   26.2787 C   0  0  0  0  0  0  0  0  0  0  0  0
    6.9879   -1.6874   27.5064 C   0  0  0  0  0  0  0  0  0  0  0  0
    8.0753   -1.7345   28.5348 C   0  0  0  0  0  0  0  0  0  0  0  0
    8.1985   -2.5665   27.2763 C   0  0  0  0  0  0  0  0  0  0  0  0
    6.9730   -2.1047   22.9874 C   0  0  0  0  0  0  0  0  0  0  0  0
   13.0376   -1.4643   21.6234 C   0  0  0  0  0  0  0  0  0  0  0  0
    6.3313   -6.3112   22.4519 N   0  0  0  0  0  0  0  0  0  0  0  0
   11.4136   -0.0598   24.5228 N   0  0  0  0  0  0  0  0  0  0  0  0
   12.2529   -1.1830   22.8006 N   0  0  0  0  0  0  0  0  0  0  0  0
    7.3966   -4.0173   25.1424 N   0  0  0  0  0  0  0  0  0  0  0  0
    8.0611   -3.9836   27.3565 N   0  0  0  0  0  0  0  0  0  0  0  0
    7.5370   -6.0115   26.3730 O   0  0  0  0  0  0  0  0  0  0  0  0
    6.1564   -3.3900   20.7456 H   0  0  0  0  0  0  0  0  0  0  0  0
    5.8059   -5.8462   20.5128 H   0  0  0  0  0  0  0  0  0  0  0  0
    6.8905   -6.5463   24.4169 H   0  0  0  0  0  0  0  0  0  0  0  0
   11.2296   -3.0528   23.0748 H   0  0  0  0  0  0  0  0  0  0  0  0
   12.8250    0.8506   23.2050 H   0  0  0  0  0  0  0  0  0  0  0  0
    6.0449   -2.1629   27.7511 H   0  0  0  0  0  0  0  0  0  0  0  0
    6.8817   -0.7763   26.9287 H   0  0  0  0  0  0  0  0  0  0  0  0
    8.6990   -0.8550   28.6474 H   0  0  0  0  0  0  0  0  0  0  0  0
    7.8609   -2.2414   29.4688 H   0  0  0  0  0  0  0  0  0  0  0  0
    6.0492   -1.6191   23.3226 H   0  0  0  0  0  0  0  0  0  0  0  0
    7.7608   -1.9035   23.7238 H   0  0  0  0  0  0  0  0  0  0  0  0
    7.2903   -1.6406   22.0454 H   0  0  0  0  0  0  0  0  0  0  0  0
   12.4422   -1.1917   20.7481 H   0  0  0  0  0  0  0  0  0  0  0  0
   13.9619   -0.8806   21.6539 H   0  0  0  0  0  0  0  0  0  0  0  0
   13.2870   -2.5289   21.6012 H   0  0  0  0  0  0  0  0  0  0  0  0
    7.5397   -3.0150   25.2374 H   0  0  0  0  0  0  0  0  0  0  0  0
    8.2752   -4.4400   28.2479 H   0  0  0  0  0  0  0  0  0  0  0  0
  1  2  3  0  0  0  0
  1  8  1  0  0  0  0
  2 14  1  0  0  0  0
  3  4  2  0  0  0  0
  3  9  1  0  0  0  0
  4 17  1  0  0  0  0
  5 10  1  0  0  0  0
  5 17  2  0  0  0  0
  6  8  2  0  0  0  0
  6 19  1  0  0  0  0
  7 18  2  0  0  0  0
  7 19  1  0  0  0  0
  8 18  1  0  0  0  0
  9 10  2  0  0  0  0
  9 15  1  0  0  0  0
 10 20  1  0  0  0  0
 11 20  1  0  0  0  0
 11 21  1  0  0  0  0
 11 22  2  0  0  0  0
 12 13  1  0  0  0  0
 12 14  1  0  0  0  0
 13 14  1  0  0  0  0
 14 21  1  0  0  0  0
 16 19  1  0  0  0  0
  3 23  1  0  0  0  0
  4 24  1  0  0  0  0
  5 25  1  0  0  0  0
  6 26  1  0  0  0  0
  7 27  1  0  0  0  0
 12 28  1  0  0  0  0
 12 29  1  0  0  0  0
 13 30  1  0  0  0  0
 13 31  1  0  0  0  0
 15 32  1  0  0  0  0
 15 33  1  0  0  0  0
 15 34  1  0  0  0  0
 16 35  1  0  0  0  0
 16 36  1  0  0  0  0
 16 37  1  0  0  0  0
 20 38  1  0  0  0  0
 21 39  1  0  0  0  0
M  END
> <Chemgauss4 Score>
-5.63337993621826

> <Number of Confs>
5

$$$$
HEI-REL-0c9-5
  -OEChem-03242005443D

 49 51  0     1  0  0  0  0  0999 V2000
    9.3225   -0.9805   24.5278 C   0  0  0  0  0  0  0  0  0  0  0  0
   10.7868   -1.4255   22.6641 C   0  0  0  0  0  0  0  0  0  0  0  0
    9.6798   -2.2008   25.1222 C   0  0  0  0  0  0  0  0  0  0  0  0
   10.6208   -3.0286   24.4847 C   0  0  0  0  0  0  0  0  0  0  0  0
    9.8711   -0.5968   23.3047 C   0  0  0  0  0  0  0  0  0  0  0  0
   11.1581   -2.6355   23.2490 C   0  0  0  0  0  0  0  0  0  0  0  0
    5.5064    1.5477   18.9116 C   0  0  0  0  0  0  0  0  0  0  0  0
    9.0862   -2.5590   26.4630 C   0  0  0  0  0  0  0  0  0  0  0  0
   11.0243   -4.3609   25.0620 C   0  0  0  0  0  0  0  0  0  0  0  0
   10.6559   -4.5278   26.5361 C   0  0  0  0  0  0  0  0  0  0  0  0
    6.1865    1.9553   21.3256 C   0  0  0  0  0  0  0  0  0  0  0  0
    6.7827   -0.1441   20.1849 C   0  0  0  0  0  0  0  0  0  0  0  0
    7.5953    2.0013   21.9202 C   0  0  0  0  0  0  0  0  0  0  0  0
    8.1808   -0.0548   20.7958 C   0  0  0  0  0  0  0  0  0  0  0  0
    9.2467   -4.0315   26.8448 C   0  0  2  0  0  0  0  0  0  0  0  0
    6.1086    1.0589   17.6184 C   0  0  0  0  0  0  0  0  0  0  0  0
    9.4750    0.7000   22.6838 C   0  0  0  0  0  0  0  0  0  0  0  0
    6.1622    1.1760   20.0843 N   0  0  0  0  0  0  0  0  0  0  0  0
    8.1410    0.6464   22.0873 N   0  0  0  0  0  0  0  0  0  0  0  0
    7.9567   -4.3107   24.5403 N   0  0  0  0  0  0  0  0  0  0  0  0
    4.4826    2.2351   18.8792 O   0  0  0  0  0  0  0  0  0  0  0  0
    8.5433   -6.3827   25.9471 O   0  0  0  0  0  0  0  0  0  0  0  0
    6.7499   -4.7984   26.7590 O   0  0  0  0  0  0  0  0  0  0  0  0
    8.0062   -5.0424   26.0777 S   0  0  0  0  0  0  0  0  0  0  0  0
   12.2810   -3.6185   22.3686 Cl  0  0  0  0  0  0  0  0  0  0  0  0
    8.6089   -0.3274   25.0261 H   0  0  0  0  0  0  0  0  0  0  0  0
   11.2051   -1.1225   21.7066 H   0  0  0  0  0  0  0  0  0  0  0  0
    9.5966   -1.9445   27.2160 H   0  0  0  0  0  0  0  0  0  0  0  0
    8.0246   -2.2835   26.4821 H   0  0  0  0  0  0  0  0  0  0  0  0
   10.5459   -5.1543   24.4747 H   0  0  0  0  0  0  0  0  0  0  0  0
   12.1092   -4.4999   24.9864 H   0  0  0  0  0  0  0  0  0  0  0  0
   10.7686   -5.5805   26.8214 H   0  0  0  0  0  0  0  0  0  0  0  0
   11.3685   -3.9587   27.1481 H   0  0  0  0  0  0  0  0  0  0  0  0
    5.4923    1.4689   22.0221 H   0  0  0  0  0  0  0  0  0  0  0  0
    5.8282    2.9751   21.1715 H   0  0  0  0  0  0  0  0  0  0  0  0
    6.8389   -0.6218   19.2013 H   0  0  0  0  0  0  0  0  0  0  0  0
    6.1275   -0.7625   20.8108 H   0  0  0  0  0  0  0  0  0  0  0  0
    8.2440    2.6073   21.2780 H   0  0  0  0  0  0  0  0  0  0  0  0
    7.5376    2.4956   22.8949 H   0  0  0  0  0  0  0  0  0  0  0  0
    8.5539   -1.0731   20.9429 H   0  0  0  0  0  0  0  0  0  0  0  0
    8.8568    0.4496   20.0964 H   0  0  0  0  0  0  0  0  0  0  0  0
    9.0545   -4.1406   27.9190 H   0  0  0  0  0  0  0  0  0  0  0  0
    5.6757    0.0964   17.3668 H   0  0  0  0  0  0  0  0  0  0  0  0
    7.1827    0.9619   17.7408 H   0  0  0  0  0  0  0  0  0  0  0  0
    5.8961    1.7778   16.8337 H   0  0  0  0  0  0  0  0  0  0  0  0
    9.4720    1.5102   23.4265 H   0  0  0  0  0  0  0  0  0  0  0  0
   10.1759    0.9985   21.8921 H   0  0  0  0  0  0  0  0  0  0  0  0
    8.3482   -4.8335   23.7472 H   0  0  0  0  0  0  0  0  0  0  0  0
    7.1270   -3.7543   24.3003 H   0  0  0  0  0  0  0  0  0  0  0  0
  1  3  1  0  0  0  0
  1  5  2  0  0  0  0
  2  5  1  0  0  0  0
  2  6  2  0  0  0  0
  3  4  2  0  0  0  0
  3  8  1  0  0  0  0
  4  6  1  0  0  0  0
  4  9  1  0  0  0  0
  5 17  1  0  0  0  0
  6 25  1  0  0  0  0
  7 16  1  0  0  0  0
  7 18  1  0  0  0  0
  7 21  2  0  0  0  0
  8 15  1  0  0  0  0
  9 10  1  0  0  0  0
 10 15  1  0  0  0  0
 11 13  1  0  0  0  0
 11 18  1  0  0  0  0
 12 14  1  0  0  0  0
 12 18  1  0  0  0  0
 13 19  1  0  0  0  0
 14 19  1  0  0  0  0
 15 24  1  1  0  0  0
 17 19  1  0  0  0  0
 20 24  1  0  0  0  0
 22 24  2  0  0  0  0
 23 24  2  0  0  0  0
  1 26  1  0  0  0  0
  2 27  1  0  0  0  0
  8 28  1  0  0  0  0
  8 29  1  0  0  0  0
  9 30  1  0  0  0  0
  9 31  1  0  0  0  0
 10 32  1  0  0  0  0
 10 33  1  0  0  0  0
 11 34  1  0  0  0  0
 11 35  1  0  0  0  0
 12 36  1  0  0  0  0
 12 37  1  0  0  0  0
 13 38  1  0  0  0  0
 13 39  1  0  0  0  0
 14 40  1  0  0  0  0
 14 41  1  0  0  0  0
 15 42  1  0  0  0  0
 16 43  1  0  0  0  0
 16 44  1  0  0  0  0
 16 45  1  0  0  0  0
 17 46  1  0  0  0  0
 17 47  1  0  0  0  0
 20 48  1  0  0  0  0
 20 49  1  0  0  0  0
M  END
> <Chemgauss4 Score>
-5.63201236724854

> <Number of Confs>
200

$$$$
AGN-NEW-891-8
  -OEChem-03242005443D

 38 40  0     0  0  0  0  0  0999 V2000
   12.9261    0.1176   23.3656 C   0  0  0  0  0  0  0  0  0  0  0  0
   13.0335   -0.8477   22.3646 C   0  0  0  0  0  0  0  0  0  0  0  0
    8.8770   -0.5033   27.2723 C   0  0  0  0  0  0  0  0  0  0  0  0
    5.8341   -6.1990   22.2652 C   0  0  0  0  0  0  0  0  0  0  0  0
   12.0404   -0.0731   24.4263 C   0  0  0  0  0  0  0  0  0  0  0  0
    9.7608   -0.3184   26.2092 C   0  0  0  0  0  0  0  0  0  0  0  0
    6.8464   -5.8872   23.1660 C   0  0  0  0  0  0  0  0  0  0  0  0
   12.2552   -2.0037   22.4240 C   0  0  0  0  0  0  0  0  0  0  0  0
    8.5772   -1.7921   27.7140 C   0  0  0  0  0  0  0  0  0  0  0  0
   10.0451   -2.7109   26.0293 C   0  0  0  0  0  0  0  0  0  0  0  0
    4.5313   -5.8899   22.6213 C   0  0  0  0  0  0  0  0  0  0  0  0
    5.1954   -5.0161   24.6396 C   0  0  0  0  0  0  0  0  0  0  0  0
   10.3448   -1.4221   25.5877 C   0  0  0  0  0  0  0  0  0  0  0  0
   11.2620   -1.2291   24.4857 C   0  0  0  0  0  0  0  0  0  0  0  0
    6.5294   -5.2844   24.3782 C   0  0  0  0  0  0  0  0  0  0  0  0
   11.3694   -2.1944   23.4846 C   0  0  0  0  0  0  0  0  0  0  0  0
    9.1613   -2.8958   27.0925 C   0  0  0  0  0  0  0  0  0  0  0  0
    7.5788   -4.9422   25.3539 C   0  0  0  0  0  0  0  0  0  0  0  0
    7.4119   -4.9316   26.6822 C   0  0  0  0  0  0  0  0  0  0  0  0
    4.1846   -5.3044   23.7894 N   0  0  0  0  0  0  0  0  0  0  0  0
    9.8922   -5.3895   27.2886 O   0  0  0  0  0  0  0  0  0  0  0  0
    8.3795   -4.4148   29.0440 O   0  0  0  0  0  0  0  0  0  0  0  0
   10.6271   -3.3105   23.5260 F   0  0  0  0  0  0  0  0  0  0  0  0
    8.7873   -4.5086   27.6476 S   0  0  0  0  0  0  0  0  0  0  0  0
   13.5324    1.0175   23.3192 H   0  0  0  0  0  0  0  0  0  0  0  0
   13.7230   -0.6992   21.5388 H   0  0  0  0  0  0  0  0  0  0  0  0
    8.4224    0.3561   27.7566 H   0  0  0  0  0  0  0  0  0  0  0  0
    6.0579   -6.6689   21.3144 H   0  0  0  0  0  0  0  0  0  0  0  0
   11.9680    0.6888   25.1987 H   0  0  0  0  0  0  0  0  0  0  0  0
    9.9839    0.6925   25.8763 H   0  0  0  0  0  0  0  0  0  0  0  0
    7.8770   -6.1199   22.9099 H   0  0  0  0  0  0  0  0  0  0  0  0
   12.3387   -2.7553   21.6446 H   0  0  0  0  0  0  0  0  0  0  0  0
    7.8874   -1.9251   28.5429 H   0  0  0  0  0  0  0  0  0  0  0  0
   10.4974   -3.5754   25.5478 H   0  0  0  0  0  0  0  0  0  0  0  0
    3.7060   -6.1137   21.9535 H   0  0  0  0  0  0  0  0  0  0  0  0
    4.8818   -4.5466   25.5677 H   0  0  0  0  0  0  0  0  0  0  0  0
    8.5515   -4.7026   24.9288 H   0  0  0  0  0  0  0  0  0  0  0  0
    6.4818   -5.1783   27.1778 H   0  0  0  0  0  0  0  0  0  0  0  0
  1  2  1  0  0  0  0
  1  5  2  0  0  0  0
  2  8  2  0  0  0  0
  3  6  1  0  0  0  0
  3  9  2  0  0  0  0
  4  7  2  0  0  0  0
  4 11  1  0  0  0  0
  5 14  1  0  0  0  0
  6 13  2  0  0  0  0
  7 15  1  0  0  0  0
  8 16  1  0  0  0  0
  9 17  1  0  0  0  0
 10 13  1  0  0  0  0
 10 17  2  0  0  0  0
 11 20  2  0  0  0  0
 12 15  2  0  0  0  0
 12 20  1  0  0  0  0
 13 14  1  0  0  0  0
 14 16  2  0  0  0  0
 15 18  1  0  0  0  0
 16 23  1  0  0  0  0
 17 24  1  0  0  0  0
 18 19  2  0  0  0  0
 19 24  1  0  0  0  0
 21 24  2  0  0  0  0
 22 24  2  0  0  0  0
  1 25  1  0  0  0  0
  2 26  1  0  0  0  0
  3 27  1  0  0  0  0
  4 28  1  0  0  0  0
  5 29  1  0  0  0  0
  6 30  1  0  0  0  0
  7 31  1  0  0  0  0
  8 32  1  0  0  0  0
  9 33  1  0  0  0  0
 10 34  1  0  0  0  0
 11 35  1  0  0  0  0
 12 36  1  0  0  0  0
 18 37  1  0  0  0  0
 19 38  1  0  0  0  0
M  END
> <Chemgauss4 Score>
-5.62912225723267

> <Number of Confs>
200

$$$$
AGN-NEW-c7b-2
  -OEChem-03242005443D

 35 36  0     0  0  0  0  0  0999 V2000
   11.6109    0.2780   24.3438 C   0  0  0  0  0  0  0  0  0  0  0  0
    7.9942   -5.6114   27.6689 C   0  0  0  0  0  0  0  0  0  0  0  0
   12.7034   -0.2066   23.6246 C   0  0  0  0  0  0  0  0  0  0  0  0
   10.3571   -0.3138   24.1906 C   0  0  0  0  0  0  0  0  0  0  0  0
    8.1794   -4.8568   26.5158 C   0  0  0  0  0  0  0  0  0  0  0  0
   11.2882   -1.8747   22.5989 C   0  0  0  0  0  0  0  0  0  0  0  0
    8.1104   -4.9681   28.8906 C   0  0  0  0  0  0  0  0  0  0  0  0
   12.5420   -1.2829   22.7521 C   0  0  0  0  0  0  0  0  0  0  0  0
   10.1957   -1.3901   23.3182 C   0  0  0  0  0  0  0  0  0  0  0  0
    8.4710   -3.5012   26.6182 C   0  0  0  0  0  0  0  0  0  0  0  0
    8.5657   -2.9523   27.8869 C   0  0  0  0  0  0  0  0  0  0  0  0
    8.4655   -0.8405   29.1300 C   0  0  0  0  0  0  0  0  0  0  0  0
    8.8687   -1.5398   28.0802 C   0  0  0  0  0  0  0  0  0  0  0  0
    8.5884   -3.1707   24.1238 C   0  0  0  0  0  0  0  0  0  0  0  0
   13.7109   -1.8014   21.9846 C   0  0  0  0  0  0  0  0  0  0  0  0
    8.8548   -2.0223   23.1540 C   0  0  0  0  0  0  0  0  0  0  0  0
    8.3924   -3.6533   29.0298 N   0  0  0  0  0  0  0  0  0  0  0  0
    8.6588   -2.7336   25.4441 N   0  0  0  0  0  0  0  0  0  0  0  0
    8.3510   -4.3079   23.7294 O   0  0  0  0  0  0  0  0  0  0  0  0
   11.7367    1.1160   25.0232 H   0  0  0  0  0  0  0  0  0  0  0  0
    7.7665   -6.6697   27.6131 H   0  0  0  0  0  0  0  0  0  0  0  0
   13.6767    0.2605   23.7508 H   0  0  0  0  0  0  0  0  0  0  0  0
    9.5113    0.0708   24.7545 H   0  0  0  0  0  0  0  0  0  0  0  0
    8.0940   -5.3361   25.5441 H   0  0  0  0  0  0  0  0  0  0  0  0
   11.1620   -2.7144   21.9196 H   0  0  0  0  0  0  0  0  0  0  0  0
    7.9757   -5.5125   29.8194 H   0  0  0  0  0  0  0  0  0  0  0  0
    8.7481    0.2057   29.1987 H   0  0  0  0  0  0  0  0  0  0  0  0
    7.8764   -1.2396   29.9470 H   0  0  0  0  0  0  0  0  0  0  0  0
    9.4775   -1.0660   27.3296 H   0  0  0  0  0  0  0  0  0  0  0  0
   14.2235   -2.5867   22.5535 H   0  0  0  0  0  0  0  0  0  0  0  0
   13.3996   -2.2188   21.0182 H   0  0  0  0  0  0  0  0  0  0  0  0
   14.4315   -1.0020   21.7678 H   0  0  0  0  0  0  0  0  0  0  0  0
    8.0585   -1.2717   23.2878 H   0  0  0  0  0  0  0  0  0  0  0  0
    8.7374   -2.4072   22.1276 H   0  0  0  0  0  0  0  0  0  0  0  0
    8.8698   -1.7472   25.5807 H   0  0  0  0  0  0  0  0  0  0  0  0
  1  3  1  0  0  0  0
  1  4  2  0  0  0  0
  2  5  2  0  0  0  0
  2  7  1  0  0  0  0
  3  8  2  0  0  0  0
  4  9  1  0  0  0  0
  5 10  1  0  0  0  0
  6  8  1  0  0  0  0
  6  9  2  0  0  0  0
  7 17  2  0  0  0  0
  8 15  1  0  0  0  0
  9 16  1  0  0  0  0
 10 11  2  0  0  0  0
 10 18  1  0  0  0  0
 11 13  1  0  0  0  0
 11 17  1  0  0  0  0
 12 13  2  0  0  0  0
 14 16  1  0  0  0  0
 14 18  1  0  0  0  0
 14 19  2  0  0  0  0
  1 20  1  0  0  0  0
  2 21  1  0  0  0  0
  3 22  1  0  0  0  0
  4 23  1  0  0  0  0
  5 24  1  0  0  0  0
  6 25  1  0  0  0  0
  7 26  1  0  0  0  0
 12 27  1  0  0  0  0
 12 28  1  0  0  0  0
 13 29  1  0  0  0  0
 15 30  1  0  0  0  0
 15 31  1  0  0  0  0
 15 32  1  0  0  0  0
 16 33  1  0  0  0  0
 16 34  1  0  0  0  0
 18 35  1  0  0  0  0
M  END
> <Chemgauss4 Score>
-5.62836742401123

> <Number of Confs>
60

$$$$
HAR-NEW-972-1
  -OEChem-03242005443D

 45 47  0     1  0  0  0  0  0999 V2000
    9.6135   -2.3658   25.6448 C   0  0  0  0  0  0  0  0  0  0  0  0
   10.2451   -1.5642   24.6629 C   0  0  0  0  0  0  0  0  0  0  0  0
    9.9391   -3.6787   25.3726 C   0  0  0  0  0  0  0  0  0  0  0  0
   10.9387   -2.4167   23.8281 C   0  0  0  0  0  0  0  0  0  0  0  0
    6.3054   -4.3379   24.8548 C   0  0  0  0  0  0  0  0  0  0  0  0
   10.2511   -0.0857   24.4838 C   0  0  0  0  0  0  0  0  0  0  0  0
   11.7351   -2.0267   22.6366 C   0  0  0  0  0  0  0  0  0  0  0  0
   12.0069   -0.5101   22.6666 C   0  0  0  0  0  0  0  0  0  0  0  0
    7.9469   -4.3318   28.0193 C   0  0  0  0  0  0  0  0  0  0  0  0
    9.3204   -4.8851   27.6168 C   0  0  0  0  0  0  0  0  0  0  0  0
    6.8094   -5.0016   27.2563 C   0  0  0  0  0  0  0  0  0  0  0  0
    8.3249   -5.6473   25.4309 C   0  0  0  0  0  0  0  0  0  0  0  0
    9.5466   -4.9688   26.0878 C   0  0  1  0  0  0  0  0  0  0  0  0
   10.7513    0.3048   23.0690 C   0  0  2  0  0  0  0  0  0  0  0  0
    6.7748   -4.4489   23.4264 C   0  0  0  0  0  0  0  0  0  0  0  0
   11.0343    1.8039   22.9996 C   0  0  0  0  0  0  0  0  0  0  0  0
   10.7467   -3.6982   24.2624 N   0  0  0  0  0  0  0  0  0  0  0  0
    7.0827   -4.9789   25.8180 N   0  0  0  0  0  0  0  0  0  0  0  0
    9.8431    2.5329   23.2785 N   0  0  0  0  0  0  0  0  0  0  0  0
    5.2776   -3.7031   25.1051 O   0  0  0  0  0  0  0  0  0  0  0  0
    5.5981   -3.5874   22.4411 Cl  0  0  0  0  0  0  0  0  0  0  0  0
    8.9918   -2.0259   26.4618 H   0  0  0  0  0  0  0  0  0  0  0  0
    9.2448    0.3185   24.6438 H   0  0  0  0  0  0  0  0  0  0  0  0
   10.9052    0.3536   25.2475 H   0  0  0  0  0  0  0  0  0  0  0  0
   12.6837   -2.5732   22.6007 H   0  0  0  0  0  0  0  0  0  0  0  0
   11.1709   -2.2783   21.7306 H   0  0  0  0  0  0  0  0  0  0  0  0
   12.8137   -0.3026   23.3826 H   0  0  0  0  0  0  0  0  0  0  0  0
   12.3688   -0.1925   21.6814 H   0  0  0  0  0  0  0  0  0  0  0  0
    7.7994   -4.4763   29.0992 H   0  0  0  0  0  0  0  0  0  0  0  0
    7.9250   -3.2480   27.8416 H   0  0  0  0  0  0  0  0  0  0  0  0
   10.1085   -4.2528   28.0750 H   0  0  0  0  0  0  0  0  0  0  0  0
    9.4560   -5.8868   28.0708 H   0  0  0  0  0  0  0  0  0  0  0  0
    6.6753   -6.0234   27.6142 H   0  0  0  0  0  0  0  0  0  0  0  0
    5.8714   -4.4645   27.4184 H   0  0  0  0  0  0  0  0  0  0  0  0
    8.3947   -5.5896   24.3363 H   0  0  0  0  0  0  0  0  0  0  0  0
    8.3156   -6.7106   25.6855 H   0  0  0  0  0  0  0  0  0  0  0  0
   10.4163   -5.6898   25.9242 H   0  0  0  0  0  0  0  0  0  0  0  0
    9.9563    0.0760   22.3458 H   0  0  0  0  0  0  0  0  0  0  0  0
    6.8006   -5.4955   23.1452 H   0  0  0  0  0  0  0  0  0  0  0  0
    7.7482   -3.9801   23.3390 H   0  0  0  0  0  0  0  0  0  0  0  0
   11.8005    2.0224   23.7415 H   0  0  0  0  0  0  0  0  0  0  0  0
   11.3890    2.0190   21.9930 H   0  0  0  0  0  0  0  0  0  0  0  0
   11.1335   -4.5280   23.8335 H   0  0  0  0  0  0  0  0  0  0  0  0
    9.6167    3.1356   22.5076 H   0  0  0  0  0  0  0  0  0  0  0  0
    9.0775    1.9005   23.4296 H   0  0  0  0  0  0  0  0  0  0  0  0
  1  2  1  0  0  0  0
  1  3  2  0  0  0  0
  2  4  2  0  0  0  0
  2  6  1  0  0  0  0
  3 13  1  6  0  0  0
  3 17  1  0  0  0  0
  4  7  1  0  0  0  0
  4 17  1  0  0  0  0
  5 15  1  0  0  0  0
  5 18  1  0  0  0  0
  5 20  2  0  0  0  0
  6 14  1  0  0  0  0
  7  8  1  0  0  0  0
  8 14  1  0  0  0  0
  9 10  1  0  0  0  0
  9 11  1  0  0  0  0
 10 13  1  0  0  0  0
 11 18  1  0  0  0  0
 12 13  1  0  0  0  0
 12 18  1  0  0  0  0
 14 16  1  6  0  0  0
 15 21  1  0  0  0  0
 16 19  1  0  0  0  0
  1 22  1  0  0  0  0
  6 23  1  0  0  0  0
  6 24  1  0  0  0  0
  7 25  1  0  0  0  0
  7 26  1  0  0  0  0
  8 27  1  0  0  0  0
  8 28  1  0  0  0  0
  9 29  1  0  0  0  0
  9 30  1  0  0  0  0
 10 31  1  0  0  0  0
 10 32  1  0  0  0  0
 11 33  1  0  0  0  0
 11 34  1  0  0  0  0
 12 35  1  0  0  0  0
 12 36  1  0  0  0  0
 13 37  1  0  0  0  0
 14 38  1  0  0  0  0
 15 39  1  0  0  0  0
 15 40  1  0  0  0  0
 16 41  1  0  0  0  0
 16 42  1  0  0  0  0
 17 43  1  0  0  0  0
 19 44  1  0  0  0  0
 19 45  1  0  0  0  0
M  END
> <Chemgauss4 Score>
-5.6264796257019

> <Number of Confs>
200

$$$$
BAR-COM-21d-1
  -OEChem-03242005443D

 47 49  0     1  0  0  0  0  0999 V2000
   13.4275   -1.8069   23.4775 C   0  0  0  0  0  0  0  0  0  0  0  0
    5.2304    0.2123   19.5303 C   0  0  0  0  0  0  0  0  0  0  0  0
   12.7732   -1.9962   24.6946 C   0  0  0  0  0  0  0  0  0  0  0  0
   12.6998   -1.4486   22.3427 C   0  0  0  0  0  0  0  0  0  0  0  0
    6.4671   -0.0848   20.0920 C   0  0  0  0  0  0  0  0  0  0  0  0
   10.6632   -1.4690   23.6423 C   0  0  0  0  0  0  0  0  0  0  0  0
    5.1894    0.5263   18.1814 C   0  0  0  0  0  0  0  0  0  0  0  0
    7.4614    0.2669   17.9604 C   0  0  0  0  0  0  0  0  0  0  0  0
   11.3910   -1.8273   24.7771 C   0  0  0  0  0  0  0  0  0  0  0  0
   11.3177   -1.2797   22.4251 C   0  0  0  0  0  0  0  0  0  0  0  0
    7.6089   -0.0591   19.2990 C   0  0  0  0  0  0  0  0  0  0  0  0
    9.1963   -0.7028   21.1659 C   0  0  0  0  0  0  0  0  0  0  0  0
    7.1883   -5.0976   26.3218 C   0  0  0  0  0  0  0  0  0  0  0  0
    7.3041   -5.6812   24.9420 C   0  0  0  0  0  0  0  0  0  0  0  0
    8.5477   -5.2595   25.6862 C   0  0  0  0  0  0  0  0  0  0  0  0
   10.6841   -2.0321   26.0932 C   0  0  0  0  0  0  0  0  0  0  0  0
   10.2092   -3.4742   26.3234 C   0  0  0  0  0  0  0  0  0  0  0  0
    9.2884   -4.0121   25.2211 C   0  0  1  0  0  0  0  0  0  0  0  0
    6.2770    0.5614   17.3791 N   0  0  0  0  0  0  0  0  0  0  0  0
   10.5902   -0.9206   21.2900 N   0  0  0  0  0  0  0  0  0  0  0  0
    8.8811   -0.3565   19.8421 N   0  0  0  0  0  0  0  0  0  0  0  0
    9.3904   -6.3511   26.2186 N   0  3  0  0  0  0  0  0  0  0  0  0
    8.3890   -0.8036   22.0842 O   0  0  0  0  0  0  0  0  0  0  0  0
   10.0696   -4.3409   24.0761 O   0  0  0  0  0  0  0  0  0  0  0  0
   14.5038   -1.9381   23.4133 H   0  0  0  0  0  0  0  0  0  0  0  0
    4.3272    0.1984   20.1295 H   0  0  0  0  0  0  0  0  0  0  0  0
   13.3485   -2.2759   25.5729 H   0  0  0  0  0  0  0  0  0  0  0  0
   13.2202   -1.3039   21.3993 H   0  0  0  0  0  0  0  0  0  0  0  0
    6.5297   -0.3348   21.1479 H   0  0  0  0  0  0  0  0  0  0  0  0
    9.5853   -1.3386   23.7089 H   0  0  0  0  0  0  0  0  0  0  0  0
    4.2493    0.7664   17.6959 H   0  0  0  0  0  0  0  0  0  0  0  0
    8.3157    0.3033   17.2908 H   0  0  0  0  0  0  0  0  0  0  0  0
    6.7732   -4.1007   26.4123 H   0  0  0  0  0  0  0  0  0  0  0  0
    6.9074   -5.7649   27.1282 H   0  0  0  0  0  0  0  0  0  0  0  0
    7.1001   -6.7390   24.8247 H   0  0  0  0  0  0  0  0  0  0  0  0
    6.9670   -5.0742   24.1100 H   0  0  0  0  0  0  0  0  0  0  0  0
   11.3262   -1.7094   26.9220 H   0  0  0  0  0  0  0  0  0  0  0  0
    9.8141   -1.3628   26.1203 H   0  0  0  0  0  0  0  0  0  0  0  0
    9.7054   -3.5536   27.2945 H   0  0  0  0  0  0  0  0  0  0  0  0
   11.1060   -4.1055   26.3745 H   0  0  0  0  0  0  0  0  0  0  0  0
    8.5588   -3.2500   24.9269 H   0  0  0  0  0  0  0  0  0  0  0  0
   11.1375   -0.7982   20.4315 H   0  0  0  0  0  0  0  0  0  0  0  0
    9.6584   -0.3129   19.1879 H   0  0  0  0  0  0  0  0  0  0  0  0
    8.8328   -7.0193   26.7647 H   0  0  0  0  0  0  0  0  0  0  0  0
   10.1280   -5.9850   26.8335 H   0  0  0  0  0  0  0  0  0  0  0  0
    9.8471   -6.8726   25.4601 H   0  0  0  0  0  0  0  0  0  0  0  0
   10.6894   -5.0335   24.3534 H   0  0  0  0  0  0  0  0  0  0  0  0
  1  3  2  0  0  0  0
  1  4  1  0  0  0  0
  2  5  2  0  0  0  0
  2  7  1  0  0  0  0
  3  9  1  0  0  0  0
  4 10  2  0  0  0  0
  5 11  1  0  0  0  0
  6  9  2  0  0  0  0
  6 10  1  0  0  0  0
  7 19  2  0  0  0  0
  8 11  2  0  0  0  0
  8 19  1  0  0  0  0
  9 16  1  0  0  0  0
 10 20  1  0  0  0  0
 11 21  1  0  0  0  0
 12 20  1  0  0  0  0
 12 21  1  0  0  0  0
 12 23  2  0  0  0  0
 13 14  1  0  0  0  0
 13 15  1  0  0  0  0
 14 15  1  0  0  0  0
 15 18  1  0  0  0  0
 15 22  1  0  0  0  0
 16 17  1  0  0  0  0
 17 18  1  0  0  0  0
 18 24  1  0  0  0  0
  1 25  1  0  0  0  0
  2 26  1  0  0  0  0
  3 27  1  0  0  0  0
  4 28  1  0  0  0  0
  5 29  1  0  0  0  0
  6 30  1  0  0  0  0
  7 31  1  0  0  0  0
  8 32  1  0  0  0  0
 13 33  1  0  0  0  0
 13 34  1  0  0  0  0
 14 35  1  0  0  0  0
 14 36  1  0  0  0  0
 16 37  1  0  0  0  0
 16 38  1  0  0  0  0
 17 39  1  0  0  0  0
 17 40  1  0  0  0  0
 18 41  1  1  0  0  0
 20 42  1  0  0  0  0
 21 43  1  0  0  0  0
 22 44  1  0  0  0  0
 22 45  1  0  0  0  0
 22 46  1  0  0  0  0
 24 47  1  0  0  0  0
M  CHG  1  22   1
M  END
> <Chemgauss4 Score>
-5.61975526809692

> <Number of Confs>
200

$$$$
CHR-SOS-597-4
  -OEChem-03242005443D

 46 48  0     0  0  0  0  0  0999 V2000
   13.8037   -1.3851   22.0322 C   0  0  0  0  0  0  0  0  0  0  0  0
   12.5419   -1.8350   22.4044 C   0  0  0  0  0  0  0  0  0  0  0  0
   14.3088   -0.2660   22.6743 C   0  0  0  0  0  0  0  0  0  0  0  0
   12.4268   -0.0525   23.9747 C   0  0  0  0  0  0  0  0  0  0  0  0
    8.6827   -3.8492   28.2765 C   0  0  0  0  0  0  0  0  0  0  0  0
   11.8335   -1.1615   23.3933 C   0  0  0  0  0  0  0  0  0  0  0  0
    9.1143   -3.4208   27.0386 C   0  0  0  0  0  0  0  0  0  0  0  0
    8.7116   -1.6911   28.6660 C   0  0  0  0  0  0  0  0  0  0  0  0
    9.8287   -2.6829   23.3049 C   0  0  0  0  0  0  0  0  0  0  0  0
    5.9575   -5.4950   23.5680 C   0  0  0  0  0  0  0  0  0  0  0  0
    5.7844   -4.3126   24.5148 C   0  0  0  0  0  0  0  0  0  0  0  0
    7.2838   -5.4335   22.8186 C   0  0  0  0  0  0  0  0  0  0  0  0
    6.9664   -4.1799   25.4750 C   0  0  0  0  0  0  0  0  0  0  0  0
    8.4682   -5.3027   23.7760 C   0  0  0  0  0  0  0  0  0  0  0  0
    8.3352   -4.1179   24.7596 C   0  0  0  0  0  0  0  0  0  0  0  0
    8.5786   -0.3933   29.3636 C   0  0  0  0  0  0  0  0  0  0  0  0
    9.4550   -4.2138   25.8128 C   0  0  0  0  0  0  0  0  0  0  0  0
    8.4975   -2.7773   24.0173 C   0  0  0  0  0  0  0  0  0  0  0  0
   13.6505    0.4143   23.6394 N   0  0  0  0  0  0  0  0  0  0  0  0
    8.4516   -2.8588   29.2110 N   0  0  0  0  0  0  0  0  0  0  0  0
   10.5472   -1.5954   23.7932 N   0  0  0  0  0  0  0  0  0  0  0  0
   10.1741   -3.4743   22.4337 O   0  0  0  0  0  0  0  0  0  0  0  0
    9.2376   -1.7102   27.0326 S   0  0  0  0  0  0  0  0  0  0  0  0
   14.3739   -1.8946   21.2637 H   0  0  0  0  0  0  0  0  0  0  0  0
   12.1203   -2.7106   21.9178 H   0  0  0  0  0  0  0  0  0  0  0  0
   15.2882    0.1252   22.4196 H   0  0  0  0  0  0  0  0  0  0  0  0
   11.9235    0.5144   24.7522 H   0  0  0  0  0  0  0  0  0  0  0  0
    8.5184   -4.8816   28.5555 H   0  0  0  0  0  0  0  0  0  0  0  0
    5.9075   -6.4292   24.1411 H   0  0  0  0  0  0  0  0  0  0  0  0
    5.1291   -5.5181   22.8510 H   0  0  0  0  0  0  0  0  0  0  0  0
    5.6637   -3.3900   23.9358 H   0  0  0  0  0  0  0  0  0  0  0  0
    4.8611   -4.4410   25.0918 H   0  0  0  0  0  0  0  0  0  0  0  0
    7.4033   -6.3403   22.2142 H   0  0  0  0  0  0  0  0  0  0  0  0
    7.2724   -4.5921   22.1164 H   0  0  0  0  0  0  0  0  0  0  0  0
    6.8240   -3.2900   26.1009 H   0  0  0  0  0  0  0  0  0  0  0  0
    6.9513   -5.0411   26.1567 H   0  0  0  0  0  0  0  0  0  0  0  0
    8.5530   -6.2389   24.3443 H   0  0  0  0  0  0  0  0  0  0  0  0
    9.3939   -5.2114   23.1940 H   0  0  0  0  0  0  0  0  0  0  0  0
    9.5192   -0.1176   29.8653 H   0  0  0  0  0  0  0  0  0  0  0  0
    8.3147    0.4209   28.6692 H   0  0  0  0  0  0  0  0  0  0  0  0
    7.7831   -0.4170   30.1262 H   0  0  0  0  0  0  0  0  0  0  0  0
   10.3846   -3.8544   25.3706 H   0  0  0  0  0  0  0  0  0  0  0  0
    9.6094   -5.2631   26.0665 H   0  0  0  0  0  0  0  0  0  0  0  0
    8.4164   -1.9710   24.7444 H   0  0  0  0  0  0  0  0  0  0  0  0
    7.6900   -2.6867   23.2927 H   0  0  0  0  0  0  0  0  0  0  0  0
   10.1080   -1.0387   24.5236 H   0  0  0  0  0  0  0  0  0  0  0  0
  1  2  2  0  0  0  0
  1  3  1  0  0  0  0
  2  6  1  0  0  0  0
  3 19  2  0  0  0  0
  4  6  2  0  0  0  0
  4 19  1  0  0  0  0
  5  7  2  0  0  0  0
  5 20  1  0  0  0  0
  6 21  1  0  0  0  0
  7 17  1  0  0  0  0
  7 23  1  0  0  0  0
  8 16  1  0  0  0  0
  8 20  2  0  0  0  0
  8 23  1  0  0  0  0
  9 18  1  0  0  0  0
  9 21  1  0  0  0  0
  9 22  2  0  0  0  0
 10 11  1  0  0  0  0
 10 12  1  0  0  0  0
 11 13  1  0  0  0  0
 12 14  1  0  0  0  0
 13 15  1  0  0  0  0
 14 15  1  0  0  0  0
 15 17  1  0  0  0  0
 15 18  1  0  0  0  0
  1 24  1  0  0  0  0
  2 25  1  0  0  0  0
  3 26  1  0  0  0  0
  4 27  1  0  0  0  0
  5 28  1  0  0  0  0
 10 29  1  0  0  0  0
 10 30  1  0  0  0  0
 11 31  1  0  0  0  0
 11 32  1  0  0  0  0
 12 33  1  0  0  0  0
 12 34  1  0  0  0  0
 13 35  1  0  0  0  0
 13 36  1  0  0  0  0
 14 37  1  0  0  0  0
 14 38  1  0  0  0  0
 16 39  1  0  0  0  0
 16 40  1  0  0  0  0
 16 41  1  0  0  0  0
 17 42  1  0  0  0  0
 17 43  1  0  0  0  0
 18 44  1  0  0  0  0
 18 45  1  0  0  0  0
 21 46  1  0  0  0  0
M  END
> <Chemgauss4 Score>
-5.61954641342163

> <Number of Confs>
200

$$$$
HEI-REL-0c9-6
  -OEChem-03242005443D

 53 56  0     1  0  0  0  0  0999 V2000
   12.3616   -1.6222   22.4849 C   0  0  0  0  0  0  0  0  0  0  0  0
   11.5155   -0.5275   22.6374 C   0  0  0  0  0  0  0  0  0  0  0  0
   12.1362   -2.7847   23.2214 C   0  0  0  0  0  0  0  0  0  0  0  0
   10.4449   -0.5934   23.5279 C   0  0  0  0  0  0  0  0  0  0  0  0
    5.9579   -2.2483   20.5686 C   0  0  0  0  0  0  0  0  0  0  0  0
    5.6261   -1.0794   19.8931 C   0  0  0  0  0  0  0  0  0  0  0  0
    6.3651    0.2050   21.7996 C   0  0  0  0  0  0  0  0  0  0  0  0
   11.0605   -2.8656   24.1187 C   0  0  0  0  0  0  0  0  0  0  0  0
   10.2104   -1.7567   24.2773 C   0  0  0  0  0  0  0  0  0  0  0  0
    6.5069   -2.1941   21.8609 C   0  0  0  0  0  0  0  0  0  0  0  0
    6.7062   -0.9594   22.5171 C   0  0  0  0  0  0  0  0  0  0  0  0
    5.8342    0.1479   20.5072 C   0  0  0  0  0  0  0  0  0  0  0  0
    9.0339   -5.2983   26.2180 C   0  0  0  0  0  0  0  0  0  0  0  0
    6.8326   -3.4800   22.5692 C   0  0  0  0  0  0  0  0  0  0  0  0
   10.8544   -4.1432   24.8947 C   0  0  0  0  0  0  0  0  0  0  0  0
    8.0177   -3.2555   23.4905 C   0  0  0  0  0  0  0  0  0  0  0  0
    9.3002   -2.8449   26.3396 C   0  0  0  0  0  0  0  0  0  0  0  0
    9.0400   -1.8150   25.2346 C   0  0  2  0  0  0  0  0  0  0  0  0
    7.7409   -2.1179   24.4827 C   0  0  1  0  0  0  0  0  0  0  0  0
    8.3788   -5.2255   27.5755 C   0  0  0  0  0  0  0  0  0  0  0  0
    6.9657    0.2822   24.6226 C   0  0  0  0  0  0  0  0  0  0  0  0
    7.2199   -0.9090   23.8160 N   0  0  3  0  0  0  0  0  0  0  0  0
    9.6832   -4.1410   25.7806 N   0  0  0  0  0  0  0  0  0  0  0  0
    3.8117    1.8441   20.1372 N   0  0  0  0  0  0  0  0  0  0  0  0
    8.9763   -6.3482   25.5735 O   0  0  0  0  0  0  0  0  0  0  0  0
    6.2413    2.7020   20.2182 O   0  0  0  0  0  0  0  0  0  0  0  0
    5.4738    1.3588   18.2296 O   0  0  0  0  0  0  0  0  0  0  0  0
    5.4376    1.6233   19.6610 S   0  0  0  0  0  0  0  0  0  0  0  0
   13.1966   -1.5716   21.7924 H   0  0  0  0  0  0  0  0  0  0  0  0
   11.6892    0.3779   22.0632 H   0  0  0  0  0  0  0  0  0  0  0  0
   12.8046   -3.6325   23.0915 H   0  0  0  0  0  0  0  0  0  0  0  0
    9.7921    0.2692   23.6364 H   0  0  0  0  0  0  0  0  0  0  0  0
    5.7845   -3.2062   20.0860 H   0  0  0  0  0  0  0  0  0  0  0  0
    5.2079   -1.1382   18.8922 H   0  0  0  0  0  0  0  0  0  0  0  0
    6.5158    1.1879   22.2397 H   0  0  0  0  0  0  0  0  0  0  0  0
    5.9822   -3.8117   23.1624 H   0  0  0  0  0  0  0  0  0  0  0  0
    7.0602   -4.2449   21.8293 H   0  0  0  0  0  0  0  0  0  0  0  0
   10.7728   -4.9724   24.1856 H   0  0  0  0  0  0  0  0  0  0  0  0
   11.7273   -4.3200   25.5344 H   0  0  0  0  0  0  0  0  0  0  0  0
    8.2233   -4.1717   24.0556 H   0  0  0  0  0  0  0  0  0  0  0  0
    8.9130   -3.0396   22.9010 H   0  0  0  0  0  0  0  0  0  0  0  0
   10.1324   -2.5195   26.9775 H   0  0  0  0  0  0  0  0  0  0  0  0
    8.4221   -2.9401   26.9873 H   0  0  0  0  0  0  0  0  0  0  0  0
    8.9384   -0.8359   25.7217 H   0  0  0  0  0  0  0  0  0  0  0  0
    7.0268   -2.4964   25.2061 H   0  0  0  0  0  0  0  0  0  0  0  0
    7.3557   -4.8856   27.4568 H   0  0  0  0  0  0  0  0  0  0  0  0
    8.9315   -4.5303   28.1988 H   0  0  0  0  0  0  0  0  0  0  0  0
    8.3931   -6.2111   28.0287 H   0  0  0  0  0  0  0  0  0  0  0  0
    7.4342    0.1633   25.6108 H   0  0  0  0  0  0  0  0  0  0  0  0
    7.3904    1.1632   24.1192 H   0  0  0  0  0  0  0  0  0  0  0  0
    5.8809    0.4173   24.7452 H   0  0  0  0  0  0  0  0  0  0  0  0
    3.6011    2.6058   20.7937 H   0  0  0  0  0  0  0  0  0  0  0  0
    3.0783    1.6863   19.4353 H   0  0  0  0  0  0  0  0  0  0  0  0
  1  2  1  0  0  0  0
  1  3  2  0  0  0  0
  2  4  2  0  0  0  0
  3  8  1  0  0  0  0
  4  9  1  0  0  0  0
  5  6  2  0  0  0  0
  5 10  1  0  0  0  0
  6 12  1  0  0  0  0
  7 11  1  0  0  0  0
  7 12  2  0  0  0  0
  8  9  2  0  0  0  0
  8 15  1  0  0  0  0
  9 18  1  0  0  0  0
 10 11  2  0  0  0  0
 10 14  1  0  0  0  0
 11 22  1  0  0  0  0
 12 28  1  0  0  0  0
 13 20  1  0  0  0  0
 13 23  1  0  0  0  0
 13 25  2  0  0  0  0
 14 16  1  0  0  0  0
 15 23  1  0  0  0  0
 16 19  1  1  0  0  0
 17 18  1  1  0  0  0
 17 23  1  0  0  0  0
 18 19  1  0  0  0  0
 19 22  1  0  0  0  0
 21 22  1  1  0  0  0
 24 28  1  0  0  0  0
 26 28  2  0  0  0  0
 27 28  2  0  0  0  0
  1 29  1  0  0  0  0
  2 30  1  0  0  0  0
  3 31  1  0  0  0  0
  4 32  1  0  0  0  0
  5 33  1  0  0  0  0
  6 34  1  0  0  0  0
  7 35  1  0  0  0  0
 14 36  1  0  0  0  0
 14 37  1  0  0  0  0
 15 38  1  0  0  0  0
 15 39  1  0  0  0  0
 16 40  1  0  0  0  0
 16 41  1  0  0  0  0
 17 42  1  0  0  0  0
 17 43  1  0  0  0  0
 18 44  1  0  0  0  0
 19 45  1  0  0  0  0
 20 46  1  0  0  0  0
 20 47  1  0  0  0  0
 20 48  1  0  0  0  0
 21 49  1  0  0  0  0
 21 50  1  0  0  0  0
 21 51  1  0  0  0  0
 24 52  1  0  0  0  0
 24 53  1  0  0  0  0
M  END
> <Chemgauss4 Score>
-5.61361217498779

> <Number of Confs>
18

$$$$
MIH-UNI-6b9-3
  -OEChem-03242005443D

 46 48  0     1  0  0  0  0  0999 V2000
    8.6945   -1.0163   24.4418 C   0  0  0  0  0  0  0  0  0  0  0  0
    7.6522   -1.9288   24.2835 C   0  0  0  0  0  0  0  0  0  0  0  0
    8.8771   -5.0678   27.9099 C   0  0  0  0  0  0  0  0  0  0  0  0
    8.9058   -3.0517   22.5576 C   0  0  0  0  0  0  0  0  0  0  0  0
    8.1768   -4.3625   28.8752 C   0  0  0  0  0  0  0  0  0  0  0  0
    9.0292   -2.3545   28.1543 C   0  0  0  0  0  0  0  0  0  0  0  0
    9.8601   -1.1106   23.6620 C   0  0  0  0  0  0  0  0  0  0  0  0
    9.9669   -2.1451   22.7126 C   0  0  0  0  0  0  0  0  0  0  0  0
    9.6864   -4.3487   27.0374 C   0  0  0  0  0  0  0  0  0  0  0  0
    9.7696   -2.9658   27.1553 C   0  0  0  0  0  0  0  0  0  0  0  0
    7.7581   -2.9469   23.3419 C   0  0  0  0  0  0  0  0  0  0  0  0
   10.7493   -0.8084   26.3022 C   0  0  0  0  0  0  0  0  0  0  0  0
   11.1617   -2.2702   21.8008 C   0  0  0  0  0  0  0  0  0  0  0  0
   12.3774   -1.4775   22.2713 C   0  0  0  0  0  0  0  0  0  0  0  0
   11.9657   -0.0746   22.7009 C   0  0  0  0  0  0  0  0  0  0  0  0
   10.9799   -0.1100   23.8804 C   0  0  2  0  0  0  0  0  0  0  0  0
   10.4531   -5.0838   25.9874 C   0  0  0  0  0  0  0  0  0  0  0  0
   11.7056   -0.3962   25.2014 C   0  0  0  0  0  0  0  0  0  0  0  0
    8.2322   -3.0195   29.0204 N   0  0  0  0  0  0  0  0  0  0  0  0
    5.5194   -3.2988   21.9386 N   0  0  0  0  0  0  0  0  0  0  0  0
   10.5787   -2.1898   26.2916 N   0  0  0  0  0  0  0  0  0  0  0  0
   10.2304    0.0011   27.0637 O   0  0  0  0  0  0  0  0  0  0  0  0
    6.9965   -5.3139   22.5737 O   0  0  0  0  0  0  0  0  0  0  0  0
    5.6807   -4.1350   24.3700 O   0  0  0  0  0  0  0  0  0  0  0  0
    6.4514   -4.0858   23.1352 S   0  0  0  0  0  0  0  0  0  0  0  0
    8.5943   -0.2256   25.1817 H   0  0  0  0  0  0  0  0  0  0  0  0
    6.7624   -1.8341   24.9000 H   0  0  0  0  0  0  0  0  0  0  0  0
    8.7905   -6.1471   27.8447 H   0  0  0  0  0  0  0  0  0  0  0  0
    8.9791   -3.8415   21.8127 H   0  0  0  0  0  0  0  0  0  0  0  0
    7.5318   -4.8767   29.5801 H   0  0  0  0  0  0  0  0  0  0  0  0
    9.0520   -1.2781   28.2963 H   0  0  0  0  0  0  0  0  0  0  0  0
   11.4467   -3.3243   21.7004 H   0  0  0  0  0  0  0  0  0  0  0  0
   10.8644   -1.9138   20.8061 H   0  0  0  0  0  0  0  0  0  0  0  0
   12.8665   -1.9994   23.1021 H   0  0  0  0  0  0  0  0  0  0  0  0
   13.1121   -1.4207   21.4600 H   0  0  0  0  0  0  0  0  0  0  0  0
   12.8530    0.5143   22.9613 H   0  0  0  0  0  0  0  0  0  0  0  0
   11.4935    0.4332   21.8492 H   0  0  0  0  0  0  0  0  0  0  0  0
   10.5349    0.8921   23.9535 H   0  0  0  0  0  0  0  0  0  0  0  0
    9.8573   -5.1683   25.0713 H   0  0  0  0  0  0  0  0  0  0  0  0
   11.3914   -4.5685   25.7480 H   0  0  0  0  0  0  0  0  0  0  0  0
   10.7202   -6.0929   26.3252 H   0  0  0  0  0  0  0  0  0  0  0  0
   12.2400    0.5038   25.5088 H   0  0  0  0  0  0  0  0  0  0  0  0
   12.4293   -1.1958   25.0367 H   0  0  0  0  0  0  0  0  0  0  0  0
    5.5169   -3.6960   20.9911 H   0  0  0  0  0  0  0  0  0  0  0  0
    4.6200   -2.8899   22.2197 H   0  0  0  0  0  0  0  0  0  0  0  0
   11.0898   -2.7155   25.5855 H   0  0  0  0  0  0  0  0  0  0  0  0
  1  2  2  0  0  0  0
  1  7  1  0  0  0  0
  2 11  1  0  0  0  0
  3  5  2  0  0  0  0
  3  9  1  0  0  0  0
  4  8  1  0  0  0  0
  4 11  2  0  0  0  0
  5 19  1  0  0  0  0
  6 10  1  0  0  0  0
  6 19  2  0  0  0  0
  7  8  2  0  0  0  0
  7 16  1  0  0  0  0
  8 13  1  0  0  0  0
  9 10  2  0  0  0  0
  9 17  1  0  0  0  0
 10 21  1  0  0  0  0
 11 25  1  0  0  0  0
 12 18  1  0  0  0  0
 12 21  1  0  0  0  0
 12 22  2  0  0  0  0
 13 14  1  0  0  0  0
 14 15  1  0  0  0  0
 15 16  1  0  0  0  0
 16 18  1  0  0  0  0
 20 25  1  0  0  0  0
 23 25  2  0  0  0  0
 24 25  2  0  0  0  0
  1 26  1  0  0  0  0
  2 27  1  0  0  0  0
  3 28  1  0  0  0  0
  4 29  1  0  0  0  0
  5 30  1  0  0  0  0
  6 31  1  0  0  0  0
 13 32  1  0  0  0  0
 13 33  1  0  0  0  0
 14 34  1  0  0  0  0
 14 35  1  0  0  0  0
 15 36  1  0  0  0  0
 15 37  1  0  0  0  0
 16 38  1  1  0  0  0
 17 39  1  0  0  0  0
 17 40  1  0  0  0  0
 17 41  1  0  0  0  0
 18 42  1  0  0  0  0
 18 43  1  0  0  0  0
 20 44  1  0  0  0  0
 20 45  1  0  0  0  0
 21 46  1  0  0  0  0
M  END
> <Chemgauss4 Score>
-5.61274814605713

> <Number of Confs>
157

$$$$
CHR-SOS-f73-4
  -OEChem-03242005443D

 41 43  0     0  0  0  0  0  0999 V2000
    7.0498   -2.1223   22.5709 C   0  0  0  0  0  0  0  0  0  0  0  0
    8.0265   -3.0779   22.2909 C   0  0  0  0  0  0  0  0  0  0  0  0
    7.3760   -0.9890   23.3158 C   0  0  0  0  0  0  0  0  0  0  0  0
    5.8721   -4.7293   26.8852 C   0  0  0  0  0  0  0  0  0  0  0  0
    9.3296   -2.9002   22.7558 C   0  0  0  0  0  0  0  0  0  0  0  0
    8.6791   -0.8113   23.7808 C   0  0  0  0  0  0  0  0  0  0  0  0
    6.8495   -3.7695   26.6469 C   0  0  0  0  0  0  0  0  0  0  0  0
    6.2132   -6.0604   26.7078 C   0  0  0  0  0  0  0  0  0  0  0  0
    8.3609   -5.5211   26.0957 C   0  0  0  0  0  0  0  0  0  0  0  0
    9.6559   -1.7669   23.5008 C   0  0  0  0  0  0  0  0  0  0  0  0
    8.1203   -4.1647   26.2442 C   0  0  0  0  0  0  0  0  0  0  0  0
   10.4451   -3.4527   25.5879 C   0  0  0  0  0  0  0  0  0  0  0  0
   12.3075   -1.2185   21.9339 C   0  0  0  0  0  0  0  0  0  0  0  0
   12.0262    0.1513   22.5481 C   0  0  0  0  0  0  0  0  0  0  0  0
   12.1243   -2.2266   23.0675 C   0  0  0  0  0  0  0  0  0  0  0  0
   11.6249   -0.1186   23.9979 C   0  0  0  0  0  0  0  0  0  0  0  0
   11.0912   -1.5707   24.0135 C   0  0  0  0  0  0  0  0  0  0  0  0
   11.1946   -2.1427   25.4374 C   0  0  0  0  0  0  0  0  0  0  0  0
    7.4369   -6.4826   26.3178 N   0  0  0  0  0  0  0  0  0  0  0  0
    9.1357   -3.2112   25.9938 N   0  0  0  0  0  0  0  0  0  0  0  0
   10.9693   -4.5398   25.3689 O   0  0  0  0  0  0  0  0  0  0  0  0
    6.0355   -2.2601   22.2077 H   0  0  0  0  0  0  0  0  0  0  0  0
    7.7729   -3.9598   21.7100 H   0  0  0  0  0  0  0  0  0  0  0  0
    6.6161   -0.2443   23.5331 H   0  0  0  0  0  0  0  0  0  0  0  0
    4.8746   -4.4442   27.1999 H   0  0  0  0  0  0  0  0  0  0  0  0
   10.0840   -3.6501   22.5330 H   0  0  0  0  0  0  0  0  0  0  0  0
    8.9241    0.0747   24.3605 H   0  0  0  0  0  0  0  0  0  0  0  0
    6.6104   -2.7175   26.7779 H   0  0  0  0  0  0  0  0  0  0  0  0
    5.4863   -6.8473   26.8800 H   0  0  0  0  0  0  0  0  0  0  0  0
    9.3332   -5.8911   25.7840 H   0  0  0  0  0  0  0  0  0  0  0  0
   11.6364   -1.4345   21.0990 H   0  0  0  0  0  0  0  0  0  0  0  0
   13.3321   -1.2531   21.5521 H   0  0  0  0  0  0  0  0  0  0  0  0
   12.9277    0.7698   22.5093 H   0  0  0  0  0  0  0  0  0  0  0  0
   11.2372    0.6831   22.0106 H   0  0  0  0  0  0  0  0  0  0  0  0
   11.7297   -3.1589   22.6541 H   0  0  0  0  0  0  0  0  0  0  0  0
   13.0667   -2.4563   23.5649 H   0  0  0  0  0  0  0  0  0  0  0  0
   12.4608    0.0314   24.6860 H   0  0  0  0  0  0  0  0  0  0  0  0
   10.8351    0.5849   24.2851 H   0  0  0  0  0  0  0  0  0  0  0  0
   10.7846   -1.4150   26.1411 H   0  0  0  0  0  0  0  0  0  0  0  0
   12.2476   -2.3051   25.6775 H   0  0  0  0  0  0  0  0  0  0  0  0
    8.8634   -2.2399   26.1301 H   0  0  0  0  0  0  0  0  0  0  0  0
  1  2  1  0  0  0  0
  1  3  2  0  0  0  0
  2  5  2  0  0  0  0
  3  6  1  0  0  0  0
  4  7  2  0  0  0  0
  4  8  1  0  0  0  0
  5 10  1  0  0  0  0
  6 10  2  0  0  0  0
  7 11  1  0  0  0  0
  8 19  2  0  0  0  0
  9 11  2  0  0  0  0
  9 19  1  0  0  0  0
 10 17  1  0  0  0  0
 11 20  1  0  0  0  0
 12 18  1  0  0  0  0
 12 20  1  0  0  0  0
 12 21  2  0  0  0  0
 13 14  1  0  0  0  0
 13 15  1  0  0  0  0
 14 16  1  0  0  0  0
 15 17  1  0  0  0  0
 16 17  1  0  0  0  0
 17 18  1  0  0  0  0
  1 22  1  0  0  0  0
  2 23  1  0  0  0  0
  3 24  1  0  0  0  0
  4 25  1  0  0  0  0
  5 26  1  0  0  0  0
  6 27  1  0  0  0  0
  7 28  1  0  0  0  0
  8 29  1  0  0  0  0
  9 30  1  0  0  0  0
 13 31  1  0  0  0  0
 13 32  1  0  0  0  0
 14 33  1  0  0  0  0
 14 34  1  0  0  0  0
 15 35  1  0  0  0  0
 15 36  1  0  0  0  0
 16 37  1  0  0  0  0
 16 38  1  0  0  0  0
 18 39  1  0  0  0  0
 18 40  1  0  0  0  0
 20 41  1  0  0  0  0
M  END
> <Chemgauss4 Score>
-5.61147356033325

> <Number of Confs>
99

$$$$
DAR-DIA-43a-10
  -OEChem-03242005443D

 37 39  0     1  0  0  0  0  0999 V2000
    9.9141   -4.4927   28.1138 C   0  0  0  0  0  0  0  0  0  0  0  0
   10.1201   -4.6109   26.7393 C   0  0  0  0  0  0  0  0  0  0  0  0
    9.3855   -3.3144   28.6409 C   0  0  0  0  0  0  0  0  0  0  0  0
    9.2690   -2.3726   26.4191 C   0  0  0  0  0  0  0  0  0  0  0  0
    9.7976   -3.5509   25.8920 C   0  0  0  0  0  0  0  0  0  0  0  0
    9.0629   -2.2543   27.7936 C   0  0  0  0  0  0  0  0  0  0  0  0
   11.0034   -2.6697   23.8663 C   0  0  0  0  0  0  0  0  0  0  0  0
   10.4223   -1.7736   23.0586 C   0  0  0  0  0  0  0  0  0  0  0  0
    7.4673   -3.6580   24.1299 C   0  0  0  0  0  0  0  0  0  0  0  0
    8.9554   -2.0302   22.9069 C   0  0  0  0  0  0  0  0  0  0  0  0
   13.5736   -1.2739   21.9362 C   0  0  0  0  0  0  0  0  0  0  0  0
   13.5048    0.2273   21.8958 C   0  0  0  0  0  0  0  0  0  0  0  0
   10.0229   -3.6797   24.3985 C   0  0  2  0  0  0  0  0  0  0  0  0
    8.8001   -3.4441   23.4800 C   0  0  1  0  0  0  0  0  0  0  0  0
   12.5454   -0.5461   22.7572 C   0  0  0  0  0  0  0  0  0  0  0  0
   11.0765   -0.6225   22.3854 C   0  0  0  0  0  0  0  0  0  0  0  0
    6.4010   -3.4777   23.2808 N   0  0  0  0  0  0  0  0  0  0  0  0
    7.3610   -3.9812   25.3104 O   0  0  0  0  0  0  0  0  0  0  0  0
    8.4118   -0.8004   28.4447 Cl  0  0  0  0  0  0  0  0  0  0  0  0
   10.1655   -5.3183   28.7733 H   0  0  0  0  0  0  0  0  0  0  0  0
   10.5326   -5.5327   26.3373 H   0  0  0  0  0  0  0  0  0  0  0  0
    9.2305   -3.2362   29.7142 H   0  0  0  0  0  0  0  0  0  0  0  0
    9.0187   -1.5491   25.7542 H   0  0  0  0  0  0  0  0  0  0  0  0
   12.0670   -2.6959   24.0783 H   0  0  0  0  0  0  0  0  0  0  0  0
    8.3579   -1.2900   23.4481 H   0  0  0  0  0  0  0  0  0  0  0  0
    8.6814   -2.0020   21.8470 H   0  0  0  0  0  0  0  0  0  0  0  0
   13.2469   -1.8167   21.0579 H   0  0  0  0  0  0  0  0  0  0  0  0
   14.4074   -1.7263   22.4589 H   0  0  0  0  0  0  0  0  0  0  0  0
   14.2922    0.7816   22.3915 H   0  0  0  0  0  0  0  0  0  0  0  0
   13.1322    0.6899   20.9902 H   0  0  0  0  0  0  0  0  0  0  0  0
   10.4422   -4.6817   24.2180 H   0  0  0  0  0  0  0  0  0  0  0  0
    8.8368   -4.1976   22.6312 H   0  0  0  0  0  0  0  0  0  0  0  0
   12.6921   -0.5110   23.8300 H   0  0  0  0  0  0  0  0  0  0  0  0
   10.9635   -0.7358   21.3011 H   0  0  0  0  0  0  0  0  0  0  0  0
   10.5610    0.2959   22.6887 H   0  0  0  0  0  0  0  0  0  0  0  0
    6.5845   -3.2235   22.3158 H   0  0  0  0  0  0  0  0  0  0  0  0
    5.4378   -3.5887   23.5806 H   0  0  0  0  0  0  0  0  0  0  0  0
  1  2  2  0  0  0  0
  1  3  1  0  0  0  0
  2  5  1  0  0  0  0
  3  6  2  0  0  0  0
  4  5  2  0  0  0  0
  4  6  1  0  0  0  0
  5 13  1  0  0  0  0
  6 19  1  0  0  0  0
  7  8  2  0  0  0  0
  7 13  1  0  0  0  0
  8 10  1  0  0  0  0
  8 16  1  0  0  0  0
  9 14  1  0  0  0  0
  9 17  1  0  0  0  0
  9 18  2  0  0  0  0
 10 14  1  0  0  0  0
 11 12  1  0  0  0  0
 11 15  1  0  0  0  0
 12 15  1  0  0  0  0
 13 14  1  0  0  0  0
 15 16  1  0  0  0  0
  1 20  1  0  0  0  0
  2 21  1  0  0  0  0
  3 22  1  0  0  0  0
  4 23  1  0  0  0  0
  7 24  1  0  0  0  0
 10 25  1  0  0  0  0
 10 26  1  0  0  0  0
 11 27  1  0  0  0  0
 11 28  1  0  0  0  0
 12 29  1  0  0  0  0
 12 30  1  0  0  0  0
 13 31  1  6  0  0  0
 14 32  1  1  0  0  0
 15 33  1  0  0  0  0
 16 34  1  0  0  0  0
 16 35  1  0  0  0  0
 17 36  1  0  0  0  0
 17 37  1  0  0  0  0
M  END
> <Chemgauss4 Score>
-5.60416555404663

> <Number of Confs>
112

$$$$
SAL-INS-1c7-11
  -OEChem-03242005443D

 41 43  0     1  0  0  0  0  0999 V2000
   13.8917   -0.2837   22.4640 C   0  0  0  0  0  0  0  0  0  0  0  0
   13.1572    0.4593   23.3882 C   0  0  0  0  0  0  0  0  0  0  0  0
   13.4668   -1.5618   22.1011 C   0  0  0  0  0  0  0  0  0  0  0  0
   11.9979   -0.0759   23.9497 C   0  0  0  0  0  0  0  0  0  0  0  0
   12.3075   -2.0970   22.6627 C   0  0  0  0  0  0  0  0  0  0  0  0
    6.6594   -1.6550   20.9152 C   0  0  0  0  0  0  0  0  0  0  0  0
    5.7085   -0.6944   20.4643 C   0  0  0  0  0  0  0  0  0  0  0  0
   11.5730   -1.3540   23.5870 C   0  0  0  0  0  0  0  0  0  0  0  0
    7.7348   -1.0642   21.5412 C   0  0  0  0  0  0  0  0  0  0  0  0
    6.0934    0.5942   20.7631 C   0  0  0  0  0  0  0  0  0  0  0  0
    9.0345   -4.9708   25.9643 C   0  0  0  0  0  0  0  0  0  0  0  0
    7.8215   -3.3940   24.5060 C   0  0  0  0  0  0  0  0  0  0  0  0
    7.8914   -1.8770   24.3305 C   0  0  0  0  0  0  0  0  0  0  0  0
   10.2938   -3.4781   24.3404 C   0  0  0  0  0  0  0  0  0  0  0  0
   10.3055   -1.9400   24.2008 C   0  0  2  0  0  0  0  0  0  0  0  0
    8.9388   -1.7224   22.1507 C   0  0  0  0  0  0  0  0  0  0  0  0
   10.1776   -5.0312   26.9460 C   0  0  0  0  0  0  0  0  0  0  0  0
    9.0759   -3.9451   25.0178 N   0  0  0  0  0  0  0  0  0  0  0  0
    9.0673   -1.4166   23.5766 N   0  0  1  0  0  0  0  0  0  0  0  0
    8.1308   -5.8073   26.0390 O   0  0  0  0  0  0  0  0  0  0  0  0
    7.5957    0.6421   21.5836 S   0  0  0  0  0  0  0  0  0  0  0  0
    9.7236   -4.0165   28.3105 Cl  0  0  0  0  0  0  0  0  0  0  0  0
    5.0889    2.1452   20.3241 Br  0  0  0  0  0  0  0  0  0  0  0  0
   14.7936    0.1337   22.0258 H   0  0  0  0  0  0  0  0  0  0  0  0
   13.4873    1.4549   23.6700 H   0  0  0  0  0  0  0  0  0  0  0  0
   14.0377   -2.1401   21.3808 H   0  0  0  0  0  0  0  0  0  0  0  0
   11.4321    0.5102   24.6692 H   0  0  0  0  0  0  0  0  0  0  0  0
   11.9841   -3.0936   22.3742 H   0  0  0  0  0  0  0  0  0  0  0  0
    6.5558   -2.7247   20.7848 H   0  0  0  0  0  0  0  0  0  0  0  0
    4.7909   -0.9465   19.9475 H   0  0  0  0  0  0  0  0  0  0  0  0
    6.9925   -3.6452   25.1762 H   0  0  0  0  0  0  0  0  0  0  0  0
    7.6191   -3.8908   23.5500 H   0  0  0  0  0  0  0  0  0  0  0  0
    6.9701   -1.5161   23.8568 H   0  0  0  0  0  0  0  0  0  0  0  0
    7.9104   -1.4061   25.3223 H   0  0  0  0  0  0  0  0  0  0  0  0
   10.3292   -3.9743   23.3625 H   0  0  0  0  0  0  0  0  0  0  0  0
   11.1893   -3.7965   24.8807 H   0  0  0  0  0  0  0  0  0  0  0  0
   10.3092   -1.5150   25.2458 H   0  0  0  0  0  0  0  0  0  0  0  0
    8.8795   -2.8110   22.0431 H   0  0  0  0  0  0  0  0  0  0  0  0
    9.8586   -1.3961   21.6541 H   0  0  0  0  0  0  0  0  0  0  0  0
   11.0696   -4.6391   26.4710 H   0  0  0  0  0  0  0  0  0  0  0  0
   10.3072   -6.0569   27.2713 H   0  0  0  0  0  0  0  0  0  0  0  0
  1  2  1  0  0  0  0
  1  3  2  0  0  0  0
  2  4  2  0  0  0  0
  3  5  1  0  0  0  0
  4  8  1  0  0  0  0
  5  8  2  0  0  0  0
  6  7  1  0  0  0  0
  6  9  2  0  0  0  0
  7 10  2  0  0  0  0
  8 15  1  6  0  0  0
  9 16  1  0  0  0  0
  9 21  1  0  0  0  0
 10 21  1  0  0  0  0
 10 23  1  0  0  0  0
 11 17  1  0  0  0  0
 11 18  1  0  0  0  0
 11 20  2  0  0  0  0
 12 13  1  0  0  0  0
 12 18  1  0  0  0  0
 13 19  1  0  0  0  0
 14 15  1  0  0  0  0
 14 18  1  0  0  0  0
 15 19  1  0  0  0  0
 16 19  1  6  0  0  0
 17 22  1  0  0  0  0
  1 24  1  0  0  0  0
  2 25  1  0  0  0  0
  3 26  1  0  0  0  0
  4 27  1  0  0  0  0
  5 28  1  0  0  0  0
  6 29  1  0  0  0  0
  7 30  1  0  0  0  0
 12 31  1  0  0  0  0
 12 32  1  0  0  0  0
 13 33  1  0  0  0  0
 13 34  1  0  0  0  0
 14 35  1  0  0  0  0
 14 36  1  0  0  0  0
 15 37  1  0  0  0  0
 16 38  1  0  0  0  0
 16 39  1  0  0  0  0
 17 40  1  0  0  0  0
 17 41  1  0  0  0  0
M  END
> <Chemgauss4 Score>
-5.59847068786621

> <Number of Confs>
72

$$$$
HEI-REL-0c9-6
  -OEChem-03242005443D

 53 56  0     1  0  0  0  0  0999 V2000
   12.0408    0.4142   24.0917 C   0  0  0  0  0  0  0  0  0  0  0  0
   11.7573   -0.0714   22.8185 C   0  0  0  0  0  0  0  0  0  0  0  0
   11.6913   -0.3328   25.2161 C   0  0  0  0  0  0  0  0  0  0  0  0
   11.1258   -1.3054   22.6683 C   0  0  0  0  0  0  0  0  0  0  0  0
    5.6063   -0.2808   22.3130 C   0  0  0  0  0  0  0  0  0  0  0  0
    5.4977    0.1965   21.0119 C   0  0  0  0  0  0  0  0  0  0  0  0
    7.2726   -1.2965   20.3404 C   0  0  0  0  0  0  0  0  0  0  0  0
   11.0532   -1.5750   25.0793 C   0  0  0  0  0  0  0  0  0  0  0  0
   10.7729   -2.0678   23.7924 C   0  0  0  0  0  0  0  0  0  0  0  0
    6.5591   -1.2618   22.6359 C   0  0  0  0  0  0  0  0  0  0  0  0
    7.4058   -1.8091   21.6467 C   0  0  0  0  0  0  0  0  0  0  0  0
    6.3345   -0.3083   20.0261 C   0  0  0  0  0  0  0  0  0  0  0  0
    9.1797   -4.2555   27.0122 C   0  0  0  0  0  0  0  0  0  0  0  0
    6.6326   -1.7695   24.0495 C   0  0  0  0  0  0  0  0  0  0  0  0
   10.6944   -2.3499   26.3234 C   0  0  0  0  0  0  0  0  0  0  0  0
    8.0638   -2.1658   24.3633 C   0  0  0  0  0  0  0  0  0  0  0  0
   10.3314   -4.3037   24.8268 C   0  0  0  0  0  0  0  0  0  0  0  0
   10.0815   -3.4017   23.6129 C   0  0  1  0  0  0  0  0  0  0  0  0
    8.5839   -3.2052   23.3612 C   0  0  2  0  0  0  0  0  0  0  0  0
    9.0176   -3.5599   28.3416 C   0  0  0  0  0  0  0  0  0  0  0  0
    8.8244   -3.6688   20.8896 C   0  0  0  0  0  0  0  0  0  0  0  0
    8.3286   -2.8100   21.9626 N   0  0  3  0  0  0  0  0  0  0  0  0
    9.9993   -3.6198   26.0762 N   0  0  0  0  0  0  0  0  0  0  0  0
    4.9665    1.4471   18.5595 N   0  0  0  0  0  0  0  0  0  0  0  0
    8.5932   -5.3217   26.8114 O   0  0  0  0  0  0  0  0  0  0  0  0
    7.4568    0.9927   18.0717 O   0  0  0  0  0  0  0  0  0  0  0  0
    5.7511   -0.7813   17.5321 O   0  0  0  0  0  0  0  0  0  0  0  0
    6.2186    0.2967   18.3920 S   0  0  0  0  0  0  0  0  0  0  0  0
   12.5330    1.3749   24.2105 H   0  0  0  0  0  0  0  0  0  0  0  0
   12.0278    0.5101   21.9420 H   0  0  0  0  0  0  0  0  0  0  0  0
   11.9182    0.0593   26.2045 H   0  0  0  0  0  0  0  0  0  0  0  0
   10.9099   -1.6718   21.6678 H   0  0  0  0  0  0  0  0  0  0  0  0
    4.9424    0.1119   23.0783 H   0  0  0  0  0  0  0  0  0  0  0  0
    4.7591    0.9586   20.7795 H   0  0  0  0  0  0  0  0  0  0  0  0
    7.9107   -1.6594   19.5380 H   0  0  0  0  0  0  0  0  0  0  0  0
    6.2926   -0.9879   24.7260 H   0  0  0  0  0  0  0  0  0  0  0  0
    5.9900   -2.6397   24.1734 H   0  0  0  0  0  0  0  0  0  0  0  0
   11.6123   -2.5995   26.8690 H   0  0  0  0  0  0  0  0  0  0  0  0
   10.0754   -1.7142   26.9635 H   0  0  0  0  0  0  0  0  0  0  0  0
    8.7050   -1.2801   24.3625 H   0  0  0  0  0  0  0  0  0  0  0  0
    8.1144   -2.5940   25.3709 H   0  0  0  0  0  0  0  0  0  0  0  0
    9.7700   -5.2391   24.7292 H   0  0  0  0  0  0  0  0  0  0  0  0
   11.3933   -4.5751   24.8899 H   0  0  0  0  0  0  0  0  0  0  0  0
   10.5167   -3.9056   22.7394 H   0  0  0  0  0  0  0  0  0  0  0  0
    8.0888   -4.1423   23.5931 H   0  0  0  0  0  0  0  0  0  0  0  0
    8.1678   -2.8881   28.2880 H   0  0  0  0  0  0  0  0  0  0  0  0
    9.9208   -3.0002   28.5610 H   0  0  0  0  0  0  0  0  0  0  0  0
    8.8547   -4.3049   29.1133 H   0  0  0  0  0  0  0  0  0  0  0  0
    9.5370   -4.3980   21.3025 H   0  0  0  0  0  0  0  0  0  0  0  0
    7.9806   -4.2021   20.4275 H   0  0  0  0  0  0  0  0  0  0  0  0
    9.3288   -3.0528   20.1306 H   0  0  0  0  0  0  0  0  0  0  0  0
    5.2170    2.4423   18.5114 H   0  0  0  0  0  0  0  0  0  0  0  0
    4.0526    1.2285   18.1445 H   0  0  0  0  0  0  0  0  0  0  0  0
  1  2  1  0  0  0  0
  1  3  2  0  0  0  0
  2  4  2  0  0  0  0
  3  8  1  0  0  0  0
  4  9  1  0  0  0  0
  5  6  2  0  0  0  0
  5 10  1  0  0  0  0
  6 12  1  0  0  0  0
  7 11  1  0  0  0  0
  7 12  2  0  0  0  0
  8  9  2  0  0  0  0
  8 15  1  0  0  0  0
  9 18  1  0  0  0  0
 10 11  2  0  0  0  0
 10 14  1  0  0  0  0
 11 22  1  0  0  0  0
 12 28  1  0  0  0  0
 13 20  1  0  0  0  0
 13 23  1  0  0  0  0
 13 25  2  0  0  0  0
 14 16  1  0  0  0  0
 15 23  1  0  0  0  0
 16 19  1  6  0  0  0
 17 18  1  6  0  0  0
 17 23  1  0  0  0  0
 18 19  1  0  0  0  0
 19 22  1  0  0  0  0
 21 22  1  1  0  0  0
 24 28  1  0  0  0  0
 26 28  2  0  0  0  0
 27 28  2  0  0  0  0
  1 29  1  0  0  0  0
  2 30  1  0  0  0  0
  3 31  1  0  0  0  0
  4 32  1  0  0  0  0
  5 33  1  0  0  0  0
  6 34  1  0  0  0  0
  7 35  1  0  0  0  0
 14 36  1  0  0  0  0
 14 37  1  0  0  0  0
 15 38  1  0  0  0  0
 15 39  1  0  0  0  0
 16 40  1  0  0  0  0
 16 41  1  0  0  0  0
 17 42  1  0  0  0  0
 17 43  1  0  0  0  0
 18 44  1  0  0  0  0
 19 45  1  0  0  0  0
 20 46  1  0  0  0  0
 20 47  1  0  0  0  0
 20 48  1  0  0  0  0
 21 49  1  0  0  0  0
 21 50  1  0  0  0  0
 21 51  1  0  0  0  0
 24 52  1  0  0  0  0
 24 53  1  0  0  0  0
M  END
> <Chemgauss4 Score>
-5.59746122360229

> <Number of Confs>
13

$$$$
DAR-DIA-43a-11
  -OEChem-03242005443D

 40 42  0     1  0  0  0  0  0999 V2000
    6.4743   -5.4174   27.9429 C   0  0  0  0  0  0  0  0  0  0  0  0
    7.7971   -5.0464   27.7019 C   0  0  0  0  0  0  0  0  0  0  0  0
    5.4400   -4.8195   27.2228 C   0  0  0  0  0  0  0  0  0  0  0  0
    7.0515   -3.4795   26.0209 C   0  0  0  0  0  0  0  0  0  0  0  0
   12.7837   -0.1141   24.1455 C   0  0  0  0  0  0  0  0  0  0  0  0
   12.1563   -1.1181   22.2925 C   0  0  0  0  0  0  0  0  0  0  0  0
    8.0857   -4.0775   26.7410 C   0  0  0  0  0  0  0  0  0  0  0  0
   11.6737   -0.7013   23.5090 C   0  0  0  0  0  0  0  0  0  0  0  0
    5.7286   -3.8506   26.2619 C   0  0  0  0  0  0  0  0  0  0  0  0
    9.6599   -2.2345   26.0632 C   0  0  0  0  0  0  0  0  0  0  0  0
   10.0622   -2.1095   24.7922 C   0  0  0  0  0  0  0  0  0  0  0  0
    9.7120   -5.7527   24.9814 C   0  0  0  0  0  0  0  0  0  0  0  0
   10.2687   -3.4412   24.1405 C   0  0  0  0  0  0  0  0  0  0  0  0
    9.5235   -3.6739   26.4806 C   0  0  2  0  0  0  0  0  0  0  0  0
   10.2622   -4.4044   25.3337 C   0  0  1  0  0  0  0  0  0  0  0  0
   14.4076   -1.0011   21.1985 C   0  0  0  0  0  0  0  0  0  0  0  0
   10.2700   -0.8445   24.0420 C   0  0  0  0  0  0  0  0  0  0  0  0
   13.8882   -0.1527   23.3954 N   0  0  0  0  0  0  0  0  0  0  0  0
   13.4747   -0.7691   22.2751 N   0  0  0  0  0  0  0  0  0  0  0  0
   10.2541   -6.7816   25.7146 N   0  0  0  0  0  0  0  0  0  0  0  0
    8.8440   -5.8999   24.1246 O   0  0  0  0  0  0  0  0  0  0  0  0
    4.4521   -3.1124   25.3746 Cl  0  0  0  0  0  0  0  0  0  0  0  0
    6.2500   -6.1719   28.6914 H   0  0  0  0  0  0  0  0  0  0  0  0
    8.5967   -5.5175   28.2678 H   0  0  0  0  0  0  0  0  0  0  0  0
    4.4137   -5.1183   27.4214 H   0  0  0  0  0  0  0  0  0  0  0  0
    7.2817   -2.7249   25.2723 H   0  0  0  0  0  0  0  0  0  0  0  0
   12.8364    0.3400   25.1248 H   0  0  0  0  0  0  0  0  0  0  0  0
   11.6858   -1.6219   21.4590 H   0  0  0  0  0  0  0  0  0  0  0  0
    9.4949   -1.3971   26.7328 H   0  0  0  0  0  0  0  0  0  0  0  0
    9.4780   -3.6637   23.4171 H   0  0  0  0  0  0  0  0  0  0  0  0
   11.2355   -3.4568   23.6263 H   0  0  0  0  0  0  0  0  0  0  0  0
   10.0739   -3.8028   27.4254 H   0  0  0  0  0  0  0  0  0  0  0  0
   11.3316   -4.6006   25.6616 H   0  0  0  0  0  0  0  0  0  0  0  0
   14.3764   -0.1346   20.5327 H   0  0  0  0  0  0  0  0  0  0  0  0
   15.4126   -1.1315   21.6094 H   0  0  0  0  0  0  0  0  0  0  0  0
   14.1201   -1.9087   20.6605 H   0  0  0  0  0  0  0  0  0  0  0  0
   10.0416    0.0123   24.6909 H   0  0  0  0  0  0  0  0  0  0  0  0
    9.5508   -0.7867   23.2139 H   0  0  0  0  0  0  0  0  0  0  0  0
   10.9581   -6.5643   26.4123 H   0  0  0  0  0  0  0  0  0  0  0  0
    9.9784   -7.7498   25.5860 H   0  0  0  0  0  0  0  0  0  0  0  0
  1  2  2  0  0  0  0
  1  3  1  0  0  0  0
  2  7  1  0  0  0  0
  3  9  2  0  0  0  0
  4  7  2  0  0  0  0
  4  9  1  0  0  0  0
  5  8  1  0  0  0  0
  5 18  2  0  0  0  0
  6  8  2  0  0  0  0
  6 19  1  0  0  0  0
  7 14  1  0  0  0  0
  8 17  1  0  0  0  0
  9 22  1  0  0  0  0
 10 11  2  0  0  0  0
 10 14  1  0  0  0  0
 11 13  1  0  0  0  0
 11 17  1  0  0  0  0
 12 15  1  0  0  0  0
 12 20  1  0  0  0  0
 12 21  2  0  0  0  0
 13 15  1  0  0  0  0
 14 15  1  0  0  0  0
 16 19  1  0  0  0  0
 18 19  1  0  0  0  0
  1 23  1  0  0  0  0
  2 24  1  0  0  0  0
  3 25  1  0  0  0  0
  4 26  1  0  0  0  0
  5 27  1  0  0  0  0
  6 28  1  0  0  0  0
 10 29  1  0  0  0  0
 13 30  1  0  0  0  0
 13 31  1  0  0  0  0
 14 32  1  6  0  0  0
 15 33  1  6  0  0  0
 16 34  1  0  0  0  0
 16 35  1  0  0  0  0
 16 36  1  0  0  0  0
 17 37  1  0  0  0  0
 17 38  1  0  0  0  0
 20 39  1  0  0  0  0
 20 40  1  0  0  0  0
M  END
> <Chemgauss4 Score>
-5.58957767486572

> <Number of Confs>
200

$$$$
DAR-DIA-fc9-8
  -OEChem-03242005443D

 33 35  0     1  0  0  0  0  0999 V2000
   13.1003   -0.1816   22.5782 C   0  0  0  0  0  0  0  0  0  0  0  0
   12.1603    0.5398   23.3142 C   0  0  0  0  0  0  0  0  0  0  0  0
   12.8050   -1.4749   22.1469 C   0  0  0  0  0  0  0  0  0  0  0  0
    8.2271   -4.6422   28.5712 C   0  0  0  0  0  0  0  0  0  0  0  0
   10.9251   -0.0321   23.6190 C   0  0  0  0  0  0  0  0  0  0  0  0
   11.5698   -2.0468   22.4517 C   0  0  0  0  0  0  0  0  0  0  0  0
    8.4063   -3.9205   27.3963 C   0  0  0  0  0  0  0  0  0  0  0  0
    7.9880   -6.0030   28.4664 C   0  0  0  0  0  0  0  0  0  0  0  0
    8.0977   -5.9363   26.1725 C   0  0  0  0  0  0  0  0  0  0  0  0
   10.6298   -1.3254   23.1878 C   0  0  0  0  0  0  0  0  0  0  0  0
    8.3418   -4.5724   26.1699 C   0  0  0  0  0  0  0  0  0  0  0  0
    9.3400   -2.7069   24.8579 C   0  0  0  0  0  0  0  0  0  0  0  0
    7.9771   -4.4430   23.7059 C   0  0  0  0  0  0  0  0  0  0  0  0
    7.6918   -3.4049   22.6427 C   0  0  0  0  0  0  0  0  0  0  0  0
    9.2880   -1.9475   23.5188 C   0  0  2  0  0  0  0  0  0  0  0  0
    7.9184   -6.6710   27.2931 N   0  0  0  0  0  0  0  0  0  0  0  0
    8.5234   -3.8503   24.9325 N   0  0  0  0  0  0  0  0  0  0  0  0
   10.0463   -2.2736   25.7714 O   0  0  0  0  0  0  0  0  0  0  0  0
    8.8908   -2.6952   22.3866 O   0  0  0  0  0  0  0  0  0  0  0  0
   14.0615    0.2643   22.3398 H   0  0  0  0  0  0  0  0  0  0  0  0
   12.3896    1.5472   23.6492 H   0  0  0  0  0  0  0  0  0  0  0  0
   13.5361   -2.0364   21.5730 H   0  0  0  0  0  0  0  0  0  0  0  0
    8.2732   -4.1548   29.5384 H   0  0  0  0  0  0  0  0  0  0  0  0
   10.1989    0.5374   24.1931 H   0  0  0  0  0  0  0  0  0  0  0  0
   11.3486   -3.0550   22.1117 H   0  0  0  0  0  0  0  0  0  0  0  0
    8.5954   -2.8515   27.4479 H   0  0  0  0  0  0  0  0  0  0  0  0
    7.8406   -6.6104   29.3533 H   0  0  0  0  0  0  0  0  0  0  0  0
    8.0363   -6.5006   25.2467 H   0  0  0  0  0  0  0  0  0  0  0  0
    7.0633   -4.9960   23.9502 H   0  0  0  0  0  0  0  0  0  0  0  0
    8.7327   -5.1496   23.3411 H   0  0  0  0  0  0  0  0  0  0  0  0
    7.3817   -3.8944   21.7142 H   0  0  0  0  0  0  0  0  0  0  0  0
    6.8924   -2.7162   22.9411 H   0  0  0  0  0  0  0  0  0  0  0  0
    8.5719   -1.1158   23.6520 H   0  0  0  0  0  0  0  0  0  0  0  0
  1  2  1  0  0  0  0
  1  3  2  0  0  0  0
  2  5  2  0  0  0  0
  3  6  1  0  0  0  0
  4  7  2  0  0  0  0
  4  8  1  0  0  0  0
  5 10  1  0  0  0  0
  6 10  2  0  0  0  0
  7 11  1  0  0  0  0
  8 16  2  0  0  0  0
  9 11  2  0  0  0  0
  9 16  1  0  0  0  0
 10 15  1  1  0  0  0
 11 17  1  0  0  0  0
 12 15  1  0  0  0  0
 12 17  1  0  0  0  0
 12 18  2  0  0  0  0
 13 14  1  0  0  0  0
 13 17  1  0  0  0  0
 14 19  1  0  0  0  0
 15 19  1  0  0  0  0
  1 20  1  0  0  0  0
  2 21  1  0  0  0  0
  3 22  1  0  0  0  0
  4 23  1  0  0  0  0
  5 24  1  0  0  0  0
  6 25  1  0  0  0  0
  7 26  1  0  0  0  0
  8 27  1  0  0  0  0
  9 28  1  0  0  0  0
 13 29  1  0  0  0  0
 13 30  1  0  0  0  0
 14 31  1  0  0  0  0
 14 32  1  0  0  0  0
 15 33  1  0  0  0  0
M  END
> <Chemgauss4 Score>
-5.58173084259033

> <Number of Confs>
14

$$$$
DAV-AUT-fa2-2
  -OEChem-03242005443D

 44 46  0     1  0  0  0  0  0999 V2000
    8.0887   -3.7809   22.8204 C   0  0  0  0  0  0  0  0  0  0  0  0
    7.9434   -4.6523   25.0478 C   0  0  0  0  0  0  0  0  0  0  0  0
    8.5759   -3.7777   24.1378 C   0  0  0  0  0  0  0  0  0  0  0  0
    6.8871   -5.4476   24.5944 C   0  0  0  0  0  0  0  0  0  0  0  0
    7.0315   -4.6137   22.4752 C   0  0  0  0  0  0  0  0  0  0  0  0
   11.6926   -2.3303   23.3577 C   0  0  0  0  0  0  0  0  0  0  0  0
   10.0875   -0.5894   24.1902 C   0  0  0  0  0  0  0  0  0  0  0  0
   10.0343   -2.9121   25.9404 C   0  0  0  0  0  0  0  0  0  0  0  0
   12.3333   -1.2350   22.5148 C   0  0  0  0  0  0  0  0  0  0  0  0
   10.8170    0.4080   23.2993 C   0  0  0  0  0  0  0  0  0  0  0  0
    8.3675   -4.7353   26.4984 C   0  0  1  0  0  0  0  0  0  0  0  0
   10.2239   -2.0081   23.6354 C   0  0  0  0  0  0  0  0  0  0  0  0
    9.8027   -4.2386   26.6366 C   0  0  0  0  0  0  0  0  0  0  0  0
    7.3942   -3.9451   27.3788 C   0  0  0  0  0  0  0  0  0  0  0  0
    7.7132   -4.2924   19.7626 C   0  0  0  0  0  0  0  0  0  0  0  0
    6.4165   -5.4497   23.3315 N   0  0  0  0  0  0  0  0  0  0  0  0
    5.9898   -6.1593   20.6018 N   0  0  0  0  0  0  0  0  0  0  0  0
    9.6452   -2.9761   24.5334 N   0  0  3  0  0  0  0  0  0  0  0  0
    5.4416   -3.5557   20.7193 O   0  0  0  0  0  0  0  0  0  0  0  0
   12.1868    0.0386   23.1427 O   0  0  0  0  0  0  0  0  0  0  0  0
    6.2840   -6.2789   25.4609 F   0  0  0  0  0  0  0  0  0  0  0  0
   10.1355   -4.1296   27.9471 F   0  0  0  0  0  0  0  0  0  0  0  0
   10.6500   -5.1654   26.1110 F   0  0  0  0  0  0  0  0  0  0  0  0
    6.3695   -4.6773   20.8708 S   0  0  1  0  0  0  0  0  0  0  0  0
    8.5200   -3.1442   22.0538 H   0  0  0  0  0  0  0  0  0  0  0  0
   11.7316   -3.2683   22.7955 H   0  0  0  0  0  0  0  0  0  0  0  0
   12.2496   -2.4807   24.2847 H   0  0  0  0  0  0  0  0  0  0  0  0
   10.4476   -0.5265   25.2179 H   0  0  0  0  0  0  0  0  0  0  0  0
    9.0246   -0.3330   24.1975 H   0  0  0  0  0  0  0  0  0  0  0  0
    9.4860   -2.1064   26.4422 H   0  0  0  0  0  0  0  0  0  0  0  0
   11.0994   -2.6638   26.0209 H   0  0  0  0  0  0  0  0  0  0  0  0
   13.3963   -1.4325   22.3313 H   0  0  0  0  0  0  0  0  0  0  0  0
   11.8383   -1.1816   21.5394 H   0  0  0  0  0  0  0  0  0  0  0  0
   10.3608    0.4192   22.3045 H   0  0  0  0  0  0  0  0  0  0  0  0
   10.7573    1.4266   23.6992 H   0  0  0  0  0  0  0  0  0  0  0  0
    8.3503   -5.7865   26.8153 H   0  0  0  0  0  0  0  0  0  0  0  0
    9.6647   -2.0659   22.6761 H   0  0  0  0  0  0  0  0  0  0  0  0
    7.3980   -2.9002   27.0788 H   0  0  0  0  0  0  0  0  0  0  0  0
    7.6995   -4.0225   28.4193 H   0  0  0  0  0  0  0  0  0  0  0  0
    6.3912   -4.3490   27.2662 H   0  0  0  0  0  0  0  0  0  0  0  0
    7.3352   -4.3224   18.7395 H   0  0  0  0  0  0  0  0  0  0  0  0
    8.0839   -3.2951   20.0042 H   0  0  0  0  0  0  0  0  0  0  0  0
    8.4985   -5.0368   19.9022 H   0  0  0  0  0  0  0  0  0  0  0  0
    5.5852   -6.3144   19.6737 H   0  0  0  0  0  0  0  0  0  0  0  0
  1  3  2  0  0  0  0
  1  5  1  0  0  0  0
  2  3  1  0  0  0  0
  2  4  2  0  0  0  0
  2 11  1  0  0  0  0
  3 18  1  0  0  0  0
  4 16  1  0  0  0  0
  4 21  1  0  0  0  0
  5 16  2  0  0  0  0
  5 24  1  0  0  0  0
  6  9  1  0  0  0  0
  6 12  1  0  0  0  0
  7 10  1  0  0  0  0
  7 12  1  0  0  0  0
  8 13  1  0  0  0  0
  8 18  1  0  0  0  0
  9 20  1  0  0  0  0
 10 20  1  0  0  0  0
 11 13  1  0  0  0  0
 11 14  1  0  0  0  0
 12 18  1  1  0  0  0
 13 22  1  0  0  0  0
 13 23  1  0  0  0  0
 15 24  1  6  0  0  0
 17 24  2  0  0  0  0
 19 24  2  0  0  0  0
  1 25  1  0  0  0  0
  6 26  1  0  0  0  0
  6 27  1  0  0  0  0
  7 28  1  0  0  0  0
  7 29  1  0  0  0  0
  8 30  1  0  0  0  0
  8 31  1  0  0  0  0
  9 32  1  0  0  0  0
  9 33  1  0  0  0  0
 10 34  1  0  0  0  0
 10 35  1  0  0  0  0
 11 36  1  1  0  0  0
 12 37  1  0  0  0  0
 14 38  1  0  0  0  0
 14 39  1  0  0  0  0
 14 40  1  0  0  0  0
 15 41  1  0  0  0  0
 15 42  1  0  0  0  0
 15 43  1  0  0  0  0
 17 44  1  0  0  0  0
M  END
> <Chemgauss4 Score>
-5.57330226898193

> <Number of Confs>
13

$$$$
ANT-DIA-045-5
  -OEChem-03242005443D

 38 40  0     1  0  0  0  0  0999 V2000
    6.2086   -3.8771   26.7587 C   0  0  0  0  0  0  0  0  0  0  0  0
    6.3611   -3.4504   25.4442 C   0  0  0  0  0  0  0  0  0  0  0  0
   10.2196   -3.3701   25.8419 C   0  0  0  0  0  0  0  0  0  0  0  0
    6.6677   -5.1424   27.0873 C   0  0  0  0  0  0  0  0  0  0  0  0
    7.3852   -5.5370   24.9408 C   0  0  0  0  0  0  0  0  0  0  0  0
   10.1019   -4.5869   26.4768 C   0  0  0  0  0  0  0  0  0  0  0  0
   11.5706   -4.7108   24.5078 C   0  0  0  0  0  0  0  0  0  0  0  0
   11.0703   -3.4418   24.7012 C   0  0  0  0  0  0  0  0  0  0  0  0
    6.9596   -4.2903   24.5116 C   0  0  0  0  0  0  0  0  0  0  0  0
    9.0043   -2.2197   22.9490 C   0  0  0  0  0  0  0  0  0  0  0  0
   11.4541    0.0697   23.2388 C   0  0  0  0  0  0  0  0  0  0  0  0
   11.3737   -0.8634   24.4393 C   0  0  0  0  0  0  0  0  0  0  0  0
   10.7315   -0.6521   22.0998 C   0  0  0  0  0  0  0  0  0  0  0  0
   11.3866   -2.2612   23.8089 C   0  0  2  0  0  0  0  0  0  0  0  0
   10.4583   -2.0782   22.5921 C   0  0  1  0  0  0  0  0  0  0  0  0
    7.1392   -3.8585   23.0849 C   0  0  0  0  0  0  0  0  0  0  0  0
    7.2542   -5.9864   26.2090 N   0  0  0  0  0  0  0  0  0  0  0  0
    8.5096   -3.5009   22.7965 N   0  0  0  0  0  0  0  0  0  0  0  0
    8.3788   -1.2392   23.3353 O   0  0  0  0  0  0  0  0  0  0  0  0
   11.0146   -5.8089   25.6983 S   0  0  0  0  0  0  0  0  0  0  0  0
    5.7453   -3.2392   27.5027 H   0  0  0  0  0  0  0  0  0  0  0  0
    6.0112   -2.4629   25.1558 H   0  0  0  0  0  0  0  0  0  0  0  0
    9.7178   -2.4735   26.1833 H   0  0  0  0  0  0  0  0  0  0  0  0
    6.5718   -5.5218   28.0993 H   0  0  0  0  0  0  0  0  0  0  0  0
    7.8593   -6.2355   24.2581 H   0  0  0  0  0  0  0  0  0  0  0  0
    9.5242   -4.8167   27.3610 H   0  0  0  0  0  0  0  0  0  0  0  0
   12.2369   -5.0494   23.7265 H   0  0  0  0  0  0  0  0  0  0  0  0
   11.0102    1.0468   23.4528 H   0  0  0  0  0  0  0  0  0  0  0  0
   12.5022    0.2366   22.9631 H   0  0  0  0  0  0  0  0  0  0  0  0
   12.2099   -0.7125   25.1300 H   0  0  0  0  0  0  0  0  0  0  0  0
   10.4471   -0.6850   24.9994 H   0  0  0  0  0  0  0  0  0  0  0  0
    9.8148   -0.1203   21.8208 H   0  0  0  0  0  0  0  0  0  0  0  0
   11.3762   -0.6706   21.2133 H   0  0  0  0  0  0  0  0  0  0  0  0
   12.4215   -2.4466   23.4031 H   0  0  0  0  0  0  0  0  0  0  0  0
   10.6704   -2.8186   21.8164 H   0  0  0  0  0  0  0  0  0  0  0  0
    6.8487   -4.6617   22.3989 H   0  0  0  0  0  0  0  0  0  0  0  0
    6.5114   -2.9913   22.8547 H   0  0  0  0  0  0  0  0  0  0  0  0
    9.1392   -4.2260   22.4659 H   0  0  0  0  0  0  0  0  0  0  0  0
  1  2  2  0  0  0  0
  1  4  1  0  0  0  0
  2  9  1  0  0  0  0
  3  6  2  0  0  0  0
  3  8  1  0  0  0  0
  4 17  2  0  0  0  0
  5  9  2  0  0  0  0
  5 17  1  0  0  0  0
  6 20  1  0  0  0  0
  7  8  2  0  0  0  0
  7 20  1  0  0  0  0
  8 14  1  0  0  0  0
  9 16  1  0  0  0  0
 10 15  1  0  0  0  0
 10 18  1  0  0  0  0
 10 19  2  0  0  0  0
 11 12  1  0  0  0  0
 11 13  1  0  0  0  0
 12 14  1  0  0  0  0
 13 15  1  0  0  0  0
 14 15  1  0  0  0  0
 16 18  1  0  0  0  0
  1 21  1  0  0  0  0
  2 22  1  0  0  0  0
  3 23  1  0  0  0  0
  4 24  1  0  0  0  0
  5 25  1  0  0  0  0
  6 26  1  0  0  0  0
  7 27  1  0  0  0  0
 11 28  1  0  0  0  0
 11 29  1  0  0  0  0
 12 30  1  0  0  0  0
 12 31  1  0  0  0  0
 13 32  1  0  0  0  0
 13 33  1  0  0  0  0
 14 34  1  6  0  0  0
 15 35  1  1  0  0  0
 16 36  1  0  0  0  0
 16 37  1  0  0  0  0
 18 38  1  0  0  0  0
M  END
> <Chemgauss4 Score>
-5.572434425354

> <Number of Confs>
200

$$$$
DAV-AUT-fa2-3
  -OEChem-03242005443D

 48 50  0     1  0  0  0  0  0999 V2000
    7.0176   -3.2753   22.6626 C   0  0  0  0  0  0  0  0  0  0  0  0
    6.6787   -2.3733   21.6590 C   0  0  0  0  0  0  0  0  0  0  0  0
    8.8573   -1.3705   21.8630 C   0  0  0  0  0  0  0  0  0  0  0  0
    8.2790   -3.2332   23.2962 C   0  0  0  0  0  0  0  0  0  0  0  0
    9.2426   -2.2732   22.8794 C   0  0  0  0  0  0  0  0  0  0  0  0
    7.5974   -1.4165   21.2626 C   0  0  0  0  0  0  0  0  0  0  0  0
   12.7370   -2.0423   22.4531 C   0  0  0  0  0  0  0  0  0  0  0  0
   11.9226   -0.3015   24.0675 C   0  0  0  0  0  0  0  0  0  0  0  0
   10.9474   -3.2543   24.3779 C   0  0  0  0  0  0  0  0  0  0  0  0
   13.8413   -1.0664   22.0673 C   0  0  0  0  0  0  0  0  0  0  0  0
   13.0713    0.5777   23.5899 C   0  0  0  0  0  0  0  0  0  0  0  0
   11.5120   -1.2918   22.9767 C   0  0  0  0  0  0  0  0  0  0  0  0
    8.6086   -4.2548   24.3937 C   0  0  0  0  0  0  0  0  0  0  0  0
    9.7917   -3.7336   25.2272 C   0  0  0  0  0  0  0  0  0  0  0  0
    8.9699   -5.5931   23.7140 C   0  0  0  0  0  0  0  0  0  0  0  0
    7.4303   -4.5039   25.3618 C   0  0  0  0  0  0  0  0  0  0  0  0
    7.3176    1.3432   20.7815 C   0  0  0  0  0  0  0  0  0  0  0  0
    8.2924   -0.3454   18.9490 N   0  0  0  0  0  0  0  0  0  0  0  0
   10.5116   -2.2113   23.4581 N   0  0  3  0  0  0  0  0  0  0  0  0
    5.7505   -0.4123   19.7432 O   0  0  0  0  0  0  0  0  0  0  0  0
   14.1767   -0.2203   23.1669 O   0  0  0  0  0  0  0  0  0  0  0  0
   10.2327   -4.6993   26.0740 F   0  0  0  0  0  0  0  0  0  0  0  0
    9.3844   -2.7004   26.0160 F   0  0  0  0  0  0  0  0  0  0  0  0
    7.1763   -0.2619   20.0224 S   0  0  1  0  0  0  0  0  0  0  0  0
    6.2732   -4.0124   22.9514 H   0  0  0  0  0  0  0  0  0  0  0  0
    5.6961   -2.4279   21.1988 H   0  0  0  0  0  0  0  0  0  0  0  0
    9.5444   -0.5986   21.5221 H   0  0  0  0  0  0  0  0  0  0  0  0
   12.4360   -2.5968   21.5590 H   0  0  0  0  0  0  0  0  0  0  0  0
   13.1006   -2.7691   23.1823 H   0  0  0  0  0  0  0  0  0  0  0  0
   12.1862   -0.8144   24.9933 H   0  0  0  0  0  0  0  0  0  0  0  0
   11.0624    0.3393   24.2795 H   0  0  0  0  0  0  0  0  0  0  0  0
   11.7755   -2.8910   24.9966 H   0  0  0  0  0  0  0  0  0  0  0  0
   11.3360   -4.1120   23.8153 H   0  0  0  0  0  0  0  0  0  0  0  0
   14.7409   -1.5875   21.7186 H   0  0  0  0  0  0  0  0  0  0  0  0
   13.4983   -0.4246   21.2488 H   0  0  0  0  0  0  0  0  0  0  0  0
   12.7480    1.1770   22.7331 H   0  0  0  0  0  0  0  0  0  0  0  0
   13.4006    1.2725   24.3709 H   0  0  0  0  0  0  0  0  0  0  0  0
   11.0641   -0.7209   22.1341 H   0  0  0  0  0  0  0  0  0  0  0  0
    9.2048   -6.3233   24.4784 H   0  0  0  0  0  0  0  0  0  0  0  0
    9.8282   -5.4404   23.0716 H   0  0  0  0  0  0  0  0  0  0  0  0
    8.1236   -5.9294   23.1280 H   0  0  0  0  0  0  0  0  0  0  0  0
    7.7328   -5.2312   26.1055 H   0  0  0  0  0  0  0  0  0  0  0  0
    6.5852   -4.8809   24.7988 H   0  0  0  0  0  0  0  0  0  0  0  0
    7.1667   -3.5703   25.8438 H   0  0  0  0  0  0  0  0  0  0  0  0
    7.0619    2.0996   20.0378 H   0  0  0  0  0  0  0  0  0  0  0  0
    6.6269    1.3873   21.6248 H   0  0  0  0  0  0  0  0  0  0  0  0
    8.3459    1.4738   21.1218 H   0  0  0  0  0  0  0  0  0  0  0  0
    8.1528    0.2944   18.1613 H   0  0  0  0  0  0  0  0  0  0  0  0
  1  2  2  0  0  0  0
  1  4  1  0  0  0  0
  2  6  1  0  0  0  0
  3  5  1  0  0  0  0
  3  6  2  0  0  0  0
  4  5  2  0  0  0  0
  4 13  1  0  0  0  0
  5 19  1  0  0  0  0
  6 24  1  0  0  0  0
  7 10  1  0  0  0  0
  7 12  1  0  0  0  0
  8 11  1  0  0  0  0
  8 12  1  0  0  0  0
  9 14  1  0  0  0  0
  9 19  1  0  0  0  0
 10 21  1  0  0  0  0
 11 21  1  0  0  0  0
 12 19  1  6  0  0  0
 13 14  1  0  0  0  0
 13 15  1  0  0  0  0
 13 16  1  0  0  0  0
 14 22  1  0  0  0  0
 14 23  1  0  0  0  0
 17 24  1  6  0  0  0
 18 24  2  0  0  0  0
 20 24  2  0  0  0  0
  1 25  1  0  0  0  0
  2 26  1  0  0  0  0
  3 27  1  0  0  0  0
  7 28  1  0  0  0  0
  7 29  1  0  0  0  0
  8 30  1  0  0  0  0
  8 31  1  0  0  0  0
  9 32  1  0  0  0  0
  9 33  1  0  0  0  0
 10 34  1  0  0  0  0
 10 35  1  0  0  0  0
 11 36  1  0  0  0  0
 11 37  1  0  0  0  0
 12 38  1  0  0  0  0
 15 39  1  0  0  0  0
 15 40  1  0  0  0  0
 15 41  1  0  0  0  0
 16 42  1  0  0  0  0
 16 43  1  0  0  0  0
 16 44  1  0  0  0  0
 17 45  1  0  0  0  0
 17 46  1  0  0  0  0
 17 47  1  0  0  0  0
 18 48  1  0  0  0  0
M  END
> <Chemgauss4 Score>
-5.56031227111816

> <Number of Confs>
12

$$$$
SAL-INS-1ea-1
  -OEChem-03242005443D

 45 47  0     1  0  0  0  0  0999 V2000
    7.8877   -5.1178   23.1778 C   0  0  0  0  0  0  0  0  0  0  0  0
    6.8015   -3.0400   23.7607 C   0  0  0  0  0  0  0  0  0  0  0  0
    6.6497   -5.7600   23.1598 C   0  0  0  0  0  0  0  0  0  0  0  0
    5.5634   -3.6822   23.7426 C   0  0  0  0  0  0  0  0  0  0  0  0
    9.4258    0.9201   23.1034 C   0  0  0  0  0  0  0  0  0  0  0  0
   10.1479   -0.7738   21.5393 C   0  0  0  0  0  0  0  0  0  0  0  0
    8.2502    1.0934   22.3730 C   0  0  0  0  0  0  0  0  0  0  0  0
    8.9723   -0.6005   20.8089 C   0  0  0  0  0  0  0  0  0  0  0  0
    7.9637   -3.7578   23.4783 C   0  0  0  0  0  0  0  0  0  0  0  0
    5.4875   -5.0422   23.4422 C   0  0  0  0  0  0  0  0  0  0  0  0
   10.3747   -0.0134   22.6865 C   0  0  0  0  0  0  0  0  0  0  0  0
    8.0234    0.3331   21.2258 C   0  0  0  0  0  0  0  0  0  0  0  0
    8.8568   -4.4977   26.4267 C   0  0  0  0  0  0  0  0  0  0  0  0
    9.9254   -2.2862   26.5153 C   0  0  0  0  0  0  0  0  0  0  0  0
   10.2310   -1.1193   25.5918 C   0  0  0  0  0  0  0  0  0  0  0  0
   11.4501   -2.8626   24.2311 C   0  0  0  0  0  0  0  0  0  0  0  0
   10.1422   -3.6256   24.4226 C   0  0  1  0  0  0  0  0  0  0  0  0
    8.4228   -4.2057   27.8421 C   0  0  0  0  0  0  0  0  0  0  0  0
    9.6055   -3.5096   25.7821 N   0  0  0  0  0  0  0  0  0  0  0  0
   11.3696   -1.4490   24.7004 N   0  0  1  0  0  0  0  0  0  0  0  0
    8.5317   -5.5661   25.9019 O   0  0  0  0  0  0  0  0  0  0  0  0
   12.8641   -0.7721   22.7116 O   0  0  0  0  0  0  0  0  0  0  0  0
   12.1128    0.9924   24.3455 O   0  0  0  0  0  0  0  0  0  0  0  0
    9.1780   -3.1280   23.4960 O   0  0  0  0  0  0  0  0  0  0  0  0
    4.2985   -5.6589   23.4249 F   0  0  0  0  0  0  0  0  0  0  0  0
   11.8638   -0.2329   23.6116 S   0  0  0  0  0  0  0  0  0  0  0  0
    6.5730    0.5468   20.3247 Cl  0  0  0  0  0  0  0  0  0  0  0  0
    8.2892   -5.7594   28.6577 Cl  0  0  0  0  0  0  0  0  0  0  0  0
    8.7895   -5.6825   22.9570 H   0  0  0  0  0  0  0  0  0  0  0  0
    6.8541   -1.9804   23.9954 H   0  0  0  0  0  0  0  0  0  0  0  0
    6.5901   -6.8189   22.9260 H   0  0  0  0  0  0  0  0  0  0  0  0
    4.6583   -3.1237   23.9624 H   0  0  0  0  0  0  0  0  0  0  0  0
    9.5925    1.5177   23.9957 H   0  0  0  0  0  0  0  0  0  0  0  0
   10.8805   -1.5038   21.2057 H   0  0  0  0  0  0  0  0  0  0  0  0
    7.5197    1.8246   22.7097 H   0  0  0  0  0  0  0  0  0  0  0  0
    8.8089   -1.2000   19.9170 H   0  0  0  0  0  0  0  0  0  0  0  0
   10.7739   -2.4507   27.1897 H   0  0  0  0  0  0  0  0  0  0  0  0
    9.0562   -2.0600   27.1465 H   0  0  0  0  0  0  0  0  0  0  0  0
    9.3514   -0.8628   24.9894 H   0  0  0  0  0  0  0  0  0  0  0  0
   10.4831   -0.2215   26.1705 H   0  0  0  0  0  0  0  0  0  0  0  0
   12.2553   -3.3502   24.7995 H   0  0  0  0  0  0  0  0  0  0  0  0
   11.7605   -2.8714   23.1769 H   0  0  0  0  0  0  0  0  0  0  0  0
   10.3199   -4.6692   24.1611 H   0  0  0  0  0  0  0  0  0  0  0  0
    7.4578   -3.7131   27.8183 H   0  0  0  0  0  0  0  0  0  0  0  0
    9.1796   -3.5964   28.3221 H   0  0  0  0  0  0  0  0  0  0  0  0
  1  3  2  0  0  0  0
  1  9  1  0  0  0  0
  2  4  1  0  0  0  0
  2  9  2  0  0  0  0
  3 10  1  0  0  0  0
  4 10  2  0  0  0  0
  5  7  2  0  0  0  0
  5 11  1  0  0  0  0
  6  8  1  0  0  0  0
  6 11  2  0  0  0  0
  7 12  1  0  0  0  0
  8 12  2  0  0  0  0
  9 24  1  0  0  0  0
 10 25  1  0  0  0  0
 11 26  1  0  0  0  0
 12 27  1  0  0  0  0
 13 18  1  0  0  0  0
 13 19  1  0  0  0  0
 13 21  2  0  0  0  0
 14 15  1  0  0  0  0
 14 19  1  0  0  0  0
 15 20  1  0  0  0  0
 16 17  1  0  0  0  0
 16 20  1  0  0  0  0
 17 19  1  0  0  0  0
 17 24  1  0  0  0  0
 18 28  1  0  0  0  0
 20 26  1  6  0  0  0
 22 26  2  0  0  0  0
 23 26  2  0  0  0  0
  1 29  1  0  0  0  0
  2 30  1  0  0  0  0
  3 31  1  0  0  0  0
  4 32  1  0  0  0  0
  5 33  1  0  0  0  0
  6 34  1  0  0  0  0
  7 35  1  0  0  0  0
  8 36  1  0  0  0  0
 14 37  1  0  0  0  0
 14 38  1  0  0  0  0
 15 39  1  0  0  0  0
 15 40  1  0  0  0  0
 16 41  1  0  0  0  0
 16 42  1  0  0  0  0
 17 43  1  1  0  0  0
 18 44  1  0  0  0  0
 18 45  1  0  0  0  0
M  END
> <Chemgauss4 Score>
-5.55532932281494

> <Number of Confs>
180

$$$$
JOH-MSK-a63-10
  -OEChem-03242005443D

 30 31  0     0  0  0  0  0  0999 V2000
    8.1302   -1.5400   27.2029 C   0  0  0  0  0  0  0  0  0  0  0  0
    8.2728   -2.3407   28.3345 C   0  0  0  0  0  0  0  0  0  0  0  0
    8.7478   -1.8887   25.9963 C   0  0  0  0  0  0  0  0  0  0  0  0
    9.0347   -3.5120   28.2973 C   0  0  0  0  0  0  0  0  0  0  0  0
   10.8222   -4.8471   25.4445 C   0  0  0  0  0  0  0  0  0  0  0  0
    9.5209   -3.0651   25.9347 C   0  0  0  0  0  0  0  0  0  0  0  0
   10.2679   -3.7078   24.9082 C   0  0  0  0  0  0  0  0  0  0  0  0
    9.6463   -3.8480   27.0843 C   0  0  0  0  0  0  0  0  0  0  0  0
    9.9363   -0.1804   23.4414 C   0  0  0  0  0  0  0  0  0  0  0  0
   12.1524   -0.0179   24.3551 C   0  0  0  0  0  0  0  0  0  0  0  0
   10.4281   -3.2442   23.5149 C   0  0  0  0  0  0  0  0  0  0  0  0
   11.4138   -2.0728   23.3529 C   0  0  0  0  0  0  0  0  0  0  0  0
   10.4414   -4.9232   26.7574 N   0  0  0  0  0  0  0  0  0  0  0  0
   11.0153   -0.9196   24.1145 N   0  0  0  0  0  0  0  0  0  0  0  0
    7.5323   -0.6342   27.2564 H   0  0  0  0  0  0  0  0  0  0  0  0
    7.7845   -2.0509   29.2613 H   0  0  0  0  0  0  0  0  0  0  0  0
    8.6262   -1.2544   25.1228 H   0  0  0  0  0  0  0  0  0  0  0  0
    9.1460   -4.1341   29.1789 H   0  0  0  0  0  0  0  0  0  0  0  0
   11.4520   -5.6115   25.0104 H   0  0  0  0  0  0  0  0  0  0  0  0
    9.0860   -0.8547   23.2615 H   0  0  0  0  0  0  0  0  0  0  0  0
    9.6124    0.6561   24.0781 H   0  0  0  0  0  0  0  0  0  0  0  0
   10.3036    0.2106   22.4810 H   0  0  0  0  0  0  0  0  0  0  0  0
   12.9593   -0.5706   24.8585 H   0  0  0  0  0  0  0  0  0  0  0  0
   12.5196    0.3731   23.3947 H   0  0  0  0  0  0  0  0  0  0  0  0
   11.8285    0.8186   24.9918 H   0  0  0  0  0  0  0  0  0  0  0  0
    9.4496   -2.9233   23.1064 H   0  0  0  0  0  0  0  0  0  0  0  0
   10.7487   -4.0710   22.8494 H   0  0  0  0  0  0  0  0  0  0  0  0
   12.4139   -2.3506   23.7005 H   0  0  0  0  0  0  0  0  0  0  0  0
   11.4898   -1.7661   22.3045 H   0  0  0  0  0  0  0  0  0  0  0  0
   10.7055   -5.6615   27.3951 H   0  0  0  0  0  0  0  0  0  0  0  0
  1  2  1  0  0  0  0
  1  3  2  0  0  0  0
  2  4  2  0  0  0  0
  3  6  1  0  0  0  0
  4  8  1  0  0  0  0
  5  7  2  0  0  0  0
  5 13  1  0  0  0  0
  6  7  1  0  0  0  0
  6  8  2  0  0  0  0
  7 11  1  0  0  0  0
  8 13  1  0  0  0  0
  9 14  1  0  0  0  0
 10 14  1  0  0  0  0
 11 12  1  0  0  0  0
 12 14  1  0  0  0  0
  1 15  1  0  0  0  0
  2 16  1  0  0  0  0
  3 17  1  0  0  0  0
  4 18  1  0  0  0  0
  5 19  1  0  0  0  0
  9 20  1  0  0  0  0
  9 21  1  0  0  0  0
  9 22  1  0  0  0  0
 10 23  1  0  0  0  0
 10 24  1  0  0  0  0
 10 25  1  0  0  0  0
 11 26  1  0  0  0  0
 11 27  1  0  0  0  0
 12 28  1  0  0  0  0
 12 29  1  0  0  0  0
 13 30  1  0  0  0  0
M  END
> <Chemgauss4 Score>
-5.55167675018311

> <Number of Confs>
16

$$$$
GIA-UNK-995-16
  -OEChem-03242005443D

 35 36  0     0  0  0  0  0  0999 V2000
   10.6808   -1.7443   23.2323 C   0  0  0  0  0  0  0  0  0  0  0  0
   11.9054   -0.1653   24.5903 C   0  0  0  0  0  0  0  0  0  0  0  0
   11.7073   -1.7284   22.2881 C   0  0  0  0  0  0  0  0  0  0  0  0
   12.9320   -0.1494   23.6460 C   0  0  0  0  0  0  0  0  0  0  0  0
   10.7798   -0.9627   24.3834 C   0  0  0  0  0  0  0  0  0  0  0  0
   12.8329   -0.9310   22.4949 C   0  0  0  0  0  0  0  0  0  0  0  0
    9.7066   -0.9796   25.3704 C   0  0  0  0  0  0  0  0  0  0  0  0
    8.6111   -5.3521   27.7715 C   0  0  0  0  0  0  0  0  0  0  0  0
    8.8555   -2.9211   28.2647 C   0  0  0  0  0  0  0  0  0  0  0  0
   10.6022   -4.1591   26.8880 C   0  0  0  0  0  0  0  0  0  0  0  0
    8.3355   -2.2963   26.9697 C   0  0  0  0  0  0  0  0  0  0  0  0
   10.0155   -3.5049   25.6381 C   0  0  0  0  0  0  0  0  0  0  0  0
    9.6046   -4.2344   28.0436 C   0  0  0  0  0  0  0  0  0  0  0  0
    5.8996   -5.2890   28.1781 C   0  0  0  0  0  0  0  0  0  0  0  0
    9.4004   -2.2145   25.9707 N   0  0  0  0  0  0  0  0  0  0  0  0
    9.1079    0.0601   25.6514 O   0  0  0  0  0  0  0  0  0  0  0  0
    8.6254   -6.0244   26.7474 O   0  0  0  0  0  0  0  0  0  0  0  0
   13.8188   -0.9157   21.5883 F   0  0  0  0  0  0  0  0  0  0  0  0
    5.6872   -3.9497   28.0783 F   0  0  0  0  0  0  0  0  0  0  0  0
    7.4400   -5.5908   29.0679 S   0  0  0  0  0  0  0  0  0  0  0  0
    9.8083   -2.3694   23.0611 H   0  0  0  0  0  0  0  0  0  0  0  0
   11.9933    0.4473   25.4842 H   0  0  0  0  0  0  0  0  0  0  0  0
   11.6305   -2.3369   21.3919 H   0  0  0  0  0  0  0  0  0  0  0  0
   13.8084    0.4718   23.8068 H   0  0  0  0  0  0  0  0  0  0  0  0
    9.5359   -2.2058   28.7451 H   0  0  0  0  0  0  0  0  0  0  0  0
    8.0158   -3.0678   28.9549 H   0  0  0  0  0  0  0  0  0  0  0  0
   10.9679   -5.1609   26.6319 H   0  0  0  0  0  0  0  0  0  0  0  0
   11.4747   -3.5766   27.2109 H   0  0  0  0  0  0  0  0  0  0  0  0
    7.5283   -2.9029   26.5430 H   0  0  0  0  0  0  0  0  0  0  0  0
    7.9231   -1.3034   27.1769 H   0  0  0  0  0  0  0  0  0  0  0  0
   10.7997   -3.3936   24.8850 H   0  0  0  0  0  0  0  0  0  0  0  0
    9.2352   -4.1348   25.1958 H   0  0  0  0  0  0  0  0  0  0  0  0
   10.1229   -4.5196   28.9515 H   0  0  0  0  0  0  0  0  0  0  0  0
    5.0510   -5.7254   28.7113 H   0  0  0  0  0  0  0  0  0  0  0  0
    5.9493   -5.6980   27.1656 H   0  0  0  0  0  0  0  0  0  0  0  0
  1  3  2  0  0  0  0
  1  5  1  0  0  0  0
  2  4  1  0  0  0  0
  2  5  2  0  0  0  0
  3  6  1  0  0  0  0
  4  6  2  0  0  0  0
  5  7  1  0  0  0  0
  6 18  1  0  0  0  0
  7 15  1  0  0  0  0
  7 16  2  0  0  0  0
  8 13  1  0  0  0  0
  8 17  2  0  0  0  0
  8 20  1  0  0  0  0
  9 11  1  0  0  0  0
  9 13  1  0  0  0  0
 10 12  1  0  0  0  0
 10 13  1  0  0  0  0
 11 15  1  0  0  0  0
 12 15  1  0  0  0  0
 14 19  1  0  0  0  0
 14 20  1  0  0  0  0
  1 21  1  0  0  0  0
  2 22  1  0  0  0  0
  3 23  1  0  0  0  0
  4 24  1  0  0  0  0
  9 25  1  0  0  0  0
  9 26  1  0  0  0  0
 10 27  1  0  0  0  0
 10 28  1  0  0  0  0
 11 29  1  0  0  0  0
 11 30  1  0  0  0  0
 12 31  1  0  0  0  0
 12 32  1  0  0  0  0
 13 33  1  0  0  0  0
 14 34  1  0  0  0  0
 14 35  1  0  0  0  0
M  END
> <Chemgauss4 Score>
-5.55122423171997

> <Number of Confs>
200

$$$$
HEI-REL-0c9-6
  -OEChem-03242005443D

 53 56  0     1  0  0  0  0  0999 V2000
   11.6047   -1.1617   23.6452 C   0  0  0  0  0  0  0  0  0  0  0  0
   10.7907   -1.2935   22.5239 C   0  0  0  0  0  0  0  0  0  0  0  0
   11.4149   -1.9965   24.7459 C   0  0  0  0  0  0  0  0  0  0  0  0
    9.7875   -2.2615   22.5013 C   0  0  0  0  0  0  0  0  0  0  0  0
    5.4256   -2.9675   20.0110 C   0  0  0  0  0  0  0  0  0  0  0  0
    5.4882   -1.7375   19.3670 C   0  0  0  0  0  0  0  0  0  0  0  0
    6.5670   -0.8010   21.3135 C   0  0  0  0  0  0  0  0  0  0  0  0
   10.4076   -2.9732   24.7373 C   0  0  0  0  0  0  0  0  0  0  0  0
    9.5897   -3.1099   23.6015 C   0  0  0  0  0  0  0  0  0  0  0  0
    5.9256   -3.1199   21.3168 C   0  0  0  0  0  0  0  0  0  0  0  0
    6.5272   -2.0338   21.9958 C   0  0  0  0  0  0  0  0  0  0  0  0
    6.0565   -0.6531   20.0199 C   0  0  0  0  0  0  0  0  0  0  0  0
    8.5022   -5.3898   26.9648 C   0  0  0  0  0  0  0  0  0  0  0  0
    5.8396   -4.4840   21.9538 C   0  0  0  0  0  0  0  0  0  0  0  0
   10.2390   -3.8556   25.9498 C   0  0  0  0  0  0  0  0  0  0  0  0
    5.9570   -4.3943   23.4680 C   0  0  0  0  0  0  0  0  0  0  0  0
    8.8170   -5.3080   24.5155 C   0  0  0  0  0  0  0  0  0  0  0  0
    8.4920   -4.1507   23.5645 C   0  0  1  0  0  0  0  0  0  0  0  0
    7.1366   -3.5193   23.8948 C   0  0  1  0  0  0  0  0  0  0  0  0
    8.4463   -4.5420   28.2119 C   0  0  0  0  0  0  0  0  0  0  0  0
    7.3219   -1.0295   24.1246 C   0  0  0  0  0  0  0  0  0  0  0  0
    7.0398   -2.1868   23.2842 N   0  0  3  0  0  0  0  0  0  0  0  0
    9.1365   -4.8215   25.8572 N   0  0  0  0  0  0  0  0  0  0  0  0
    7.6548    0.7815   18.4412 N   0  0  0  0  0  0  0  0  0  0  0  0
    7.9939   -6.5135   26.9734 O   0  0  0  0  0  0  0  0  0  0  0  0
    5.0928    0.9509   18.2110 O   0  0  0  0  0  0  0  0  0  0  0  0
    6.2164    1.9375   20.2389 O   0  0  0  0  0  0  0  0  0  0  0  0
    6.1395    0.8983   19.2218 S   0  0  0  0  0  0  0  0  0  0  0  0
   12.3868   -0.4085   23.6643 H   0  0  0  0  0  0  0  0  0  0  0  0
   10.9366   -0.6430   21.6666 H   0  0  0  0  0  0  0  0  0  0  0  0
   12.0577   -1.8817   25.6153 H   0  0  0  0  0  0  0  0  0  0  0  0
    9.1588   -2.3526   21.6191 H   0  0  0  0  0  0  0  0  0  0  0  0
    4.9811   -3.8142   19.4933 H   0  0  0  0  0  0  0  0  0  0  0  0
    5.0923   -1.6377   18.3604 H   0  0  0  0  0  0  0  0  0  0  0  0
    7.0089    0.0751   21.7836 H   0  0  0  0  0  0  0  0  0  0  0  0
    4.8827   -4.9574   21.7030 H   0  0  0  0  0  0  0  0  0  0  0  0
    6.6368   -5.1152   21.5443 H   0  0  0  0  0  0  0  0  0  0  0  0
   11.1537   -4.4418   26.0982 H   0  0  0  0  0  0  0  0  0  0  0  0
   10.0923   -3.2183   26.8269 H   0  0  0  0  0  0  0  0  0  0  0  0
    5.0325   -3.9680   23.8809 H   0  0  0  0  0  0  0  0  0  0  0  0
    6.0506   -5.4011   23.8917 H   0  0  0  0  0  0  0  0  0  0  0  0
    7.9878   -6.0232   24.5436 H   0  0  0  0  0  0  0  0  0  0  0  0
    9.6993   -5.8576   24.1622 H   0  0  0  0  0  0  0  0  0  0  0  0
    8.4406   -4.5683   22.5502 H   0  0  0  0  0  0  0  0  0  0  0  0
    7.0780   -3.4180   24.9865 H   0  0  0  0  0  0  0  0  0  0  0  0
    7.5393   -3.9476   28.1953 H   0  0  0  0  0  0  0  0  0  0  0  0
    9.3155   -3.8931   28.2385 H   0  0  0  0  0  0  0  0  0  0  0  0
    8.4499   -5.1908   29.0814 H   0  0  0  0  0  0  0  0  0  0  0  0
    7.7169   -1.3673   25.0941 H   0  0  0  0  0  0  0  0  0  0  0  0
    8.0661   -0.3890   23.6287 H   0  0  0  0  0  0  0  0  0  0  0  0
    6.3955   -0.4585   24.2852 H   0  0  0  0  0  0  0  0  0  0  0  0
    7.6636    0.6755   17.4194 H   0  0  0  0  0  0  0  0  0  0  0  0
    8.4300    1.3481   18.8065 H   0  0  0  0  0  0  0  0  0  0  0  0
  1  2  1  0  0  0  0
  1  3  2  0  0  0  0
  2  4  2  0  0  0  0
  3  8  1  0  0  0  0
  4  9  1  0  0  0  0
  5  6  2  0  0  0  0
  5 10  1  0  0  0  0
  6 12  1  0  0  0  0
  7 11  1  0  0  0  0
  7 12  2  0  0  0  0
  8  9  2  0  0  0  0
  8 15  1  0  0  0  0
  9 18  1  0  0  0  0
 10 11  2  0  0  0  0
 10 14  1  0  0  0  0
 11 22  1  0  0  0  0
 12 28  1  0  0  0  0
 13 20  1  0  0  0  0
 13 23  1  0  0  0  0
 13 25  2  0  0  0  0
 14 16  1  0  0  0  0
 15 23  1  0  0  0  0
 16 19  1  1  0  0  0
 17 18  1  6  0  0  0
 17 23  1  0  0  0  0
 18 19  1  0  0  0  0
 19 22  1  0  0  0  0
 21 22  1  1  0  0  0
 24 28  1  0  0  0  0
 26 28  2  0  0  0  0
 27 28  2  0  0  0  0
  1 29  1  0  0  0  0
  2 30  1  0  0  0  0
  3 31  1  0  0  0  0
  4 32  1  0  0  0  0
  5 33  1  0  0  0  0
  6 34  1  0  0  0  0
  7 35  1  0  0  0  0
 14 36  1  0  0  0  0
 14 37  1  0  0  0  0
 15 38  1  0  0  0  0
 15 39  1  0  0  0  0
 16 40  1  0  0  0  0
 16 41  1  0  0  0  0
 17 42  1  0  0  0  0
 17 43  1  0  0  0  0
 18 44  1  0  0  0  0
 19 45  1  0  0  0  0
 20 46  1  0  0  0  0
 20 47  1  0  0  0  0
 20 48  1  0  0  0  0
 21 49  1  0  0  0  0
 21 50  1  0  0  0  0
 21 51  1  0  0  0  0
 24 52  1  0  0  0  0
 24 53  1  0  0  0  0
M  END
> <Chemgauss4 Score>
-5.54669189453125

> <Number of Confs>
9

$$$$
DAN-LON-a5f-2
  -OEChem-03242005443D

 41 43  0     1  0  0  0  0  0999 V2000
   12.0888    0.1955   24.6899 C   0  0  0  0  0  0  0  0  0  0  0  0
    7.8650   -4.8484   29.0639 C   0  0  0  0  0  0  0  0  0  0  0  0
   11.2019   -0.7355   25.2304 C   0  0  0  0  0  0  0  0  0  0  0  0
   12.7422   -0.0795   23.4886 C   0  0  0  0  0  0  0  0  0  0  0  0
    7.4916   -3.8490   28.1195 C   0  0  0  0  0  0  0  0  0  0  0  0
   11.6218   -2.2166   23.3684 C   0  0  0  0  0  0  0  0  0  0  0  0
    8.4811   -5.9239   28.4629 C   0  0  0  0  0  0  0  0  0  0  0  0
   10.9684   -1.9416   24.5697 C   0  0  0  0  0  0  0  0  0  0  0  0
   12.5087   -1.2856   22.8279 C   0  0  0  0  0  0  0  0  0  0  0  0
    7.8369   -4.1987   26.8325 C   0  0  0  0  0  0  0  0  0  0  0  0
    6.0634   -3.6984   22.1654 C   0  0  0  0  0  0  0  0  0  0  0  0
    7.9975   -2.3448   22.8806 C   0  0  0  0  0  0  0  0  0  0  0  0
    8.2986   -1.5543   24.1539 C   0  0  0  0  0  0  0  0  0  0  0  0
    7.3286   -4.2700   24.2923 C   0  0  0  0  0  0  0  0  0  0  0  0
    7.6175   -3.4124   25.5440 C   0  0  2  0  0  0  0  0  0  0  0  0
   10.0145   -2.9437   25.1528 C   0  0  0  0  0  0  0  0  0  0  0  0
    5.1104   -4.8253   22.4751 C   0  0  0  0  0  0  0  0  0  0  0  0
    7.0456   -3.4290   23.1206 N   0  0  0  0  0  0  0  0  0  0  0  0
    8.6665   -2.3931   25.3046 N   0  0  1  0  0  0  0  0  0  0  0  0
    5.9362   -3.0744   21.1087 O   0  0  0  0  0  0  0  0  0  0  0  0
    8.6076   -5.7265   26.7666 S   0  0  0  0  0  0  0  0  0  0  0  0
   13.3160   -1.6249   21.3463 Cl  0  0  0  0  0  0  0  0  0  0  0  0
    5.8138   -6.2839   21.7854 Cl  0  0  0  0  0  0  0  0  0  0  0  0
   12.2705    1.1345   25.2048 H   0  0  0  0  0  0  0  0  0  0  0  0
    7.6915   -4.7823   30.1300 H   0  0  0  0  0  0  0  0  0  0  0  0
   10.6973   -0.5129   26.1670 H   0  0  0  0  0  0  0  0  0  0  0  0
   13.4310    0.6553   23.0791 H   0  0  0  0  0  0  0  0  0  0  0  0
    6.9962   -2.9213   28.3765 H   0  0  0  0  0  0  0  0  0  0  0  0
   11.4359   -3.1582   22.8569 H   0  0  0  0  0  0  0  0  0  0  0  0
    8.8627   -6.8163   28.9387 H   0  0  0  0  0  0  0  0  0  0  0  0
    7.6153   -1.6649   22.1118 H   0  0  0  0  0  0  0  0  0  0  0  0
    8.9086   -2.8009   22.4766 H   0  0  0  0  0  0  0  0  0  0  0  0
    9.0842   -0.8149   23.9546 H   0  0  0  0  0  0  0  0  0  0  0  0
    7.4109   -0.9671   24.4241 H   0  0  0  0  0  0  0  0  0  0  0  0
    8.1823   -4.9081   24.0321 H   0  0  0  0  0  0  0  0  0  0  0  0
    6.4930   -4.9428   24.5027 H   0  0  0  0  0  0  0  0  0  0  0  0
    6.6785   -2.8234   25.7565 H   0  0  0  0  0  0  0  0  0  0  0  0
    9.9467   -3.8301   24.5127 H   0  0  0  0  0  0  0  0  0  0  0  0
   10.3518   -3.2798   26.1389 H   0  0  0  0  0  0  0  0  0  0  0  0
    4.1549   -4.6160   22.0078 H   0  0  0  0  0  0  0  0  0  0  0  0
    5.0236   -4.9265   23.5509 H   0  0  0  0  0  0  0  0  0  0  0  0
  1  3  2  0  0  0  0
  1  4  1  0  0  0  0
  2  5  1  0  0  0  0
  2  7  2  0  0  0  0
  3  8  1  0  0  0  0
  4  9  2  0  0  0  0
  5 10  2  0  0  0  0
  6  8  2  0  0  0  0
  6  9  1  0  0  0  0
  7 21  1  0  0  0  0
  8 16  1  0  0  0  0
  9 22  1  0  0  0  0
 10 15  1  6  0  0  0
 10 21  1  0  0  0  0
 11 17  1  0  0  0  0
 11 18  1  0  0  0  0
 11 20  2  0  0  0  0
 12 13  1  0  0  0  0
 12 18  1  0  0  0  0
 13 19  1  0  0  0  0
 14 15  1  0  0  0  0
 14 18  1  0  0  0  0
 15 19  1  0  0  0  0
 16 19  1  6  0  0  0
 17 23  1  0  0  0  0
  1 24  1  0  0  0  0
  2 25  1  0  0  0  0
  3 26  1  0  0  0  0
  4 27  1  0  0  0  0
  5 28  1  0  0  0  0
  6 29  1  0  0  0  0
  7 30  1  0  0  0  0
 12 31  1  0  0  0  0
 12 32  1  0  0  0  0
 13 33  1  0  0  0  0
 13 34  1  0  0  0  0
 14 35  1  0  0  0  0
 14 36  1  0  0  0  0
 15 37  1  0  0  0  0
 16 38  1  0  0  0  0
 16 39  1  0  0  0  0
 17 40  1  0  0  0  0
 17 41  1  0  0  0  0
M  END
> <Chemgauss4 Score>
-5.54319381713867

> <Number of Confs>
162

$$$$
CHR-SOS-363-5
  -OEChem-03242005443D

 43 45  0     0  0  0  0  0  0999 V2000
    7.5518   -5.2318   28.0312 C   0  0  0  0  0  0  0  0  0  0  0  0
   11.2070   -4.4212   24.1893 C   0  0  0  0  0  0  0  0  0  0  0  0
    5.9192   -0.9278   18.4702 C   0  0  0  0  0  0  0  0  0  0  0  0
    6.1048   -1.5170   19.7159 C   0  0  0  0  0  0  0  0  0  0  0  0
   10.0718   -4.4215   24.9998 C   0  0  0  0  0  0  0  0  0  0  0  0
   11.7884   -3.2133   23.8039 C   0  0  0  0  0  0  0  0  0  0  0  0
   10.0994   -2.0060   25.0394 C   0  0  0  0  0  0  0  0  0  0  0  0
    6.7419    0.1324   18.1252 C   0  0  0  0  0  0  0  0  0  0  0  0
    5.9048   -5.8720   26.3500 C   0  0  0  0  0  0  0  0  0  0  0  0
    7.8635    0.0302   20.1276 C   0  0  0  0  0  0  0  0  0  0  0  0
    5.7175   -4.7996   24.3270 C   0  0  0  0  0  0  0  0  0  0  0  0
    6.9472   -5.0513   26.7496 C   0  0  0  0  0  0  0  0  0  0  0  0
    7.0933   -1.0347   20.5666 C   0  0  0  0  0  0  0  0  0  0  0  0
    6.7509   -3.9284   24.6318 C   0  0  0  0  0  0  0  0  0  0  0  0
    9.5180   -3.2140   25.4249 C   0  0  0  0  0  0  0  0  0  0  0  0
    7.3723   -4.0635   25.8683 C   0  0  0  0  0  0  0  0  0  0  0  0
   11.2346   -2.0057   24.2289 C   0  0  0  0  0  0  0  0  0  0  0  0
    6.6171   -2.6869   22.4273 C   0  0  0  0  0  0  0  0  0  0  0  0
    8.0429   -5.3783   29.0725 N   0  0  0  0  0  0  0  0  0  0  0  0
    7.7127    0.6283   18.9247 N   0  0  0  0  0  0  0  0  0  0  0  0
    5.2767   -5.7713   25.1572 N   0  0  0  0  0  0  0  0  0  0  0  0
   13.2735   -1.0506   22.8022 N   0  0  0  0  0  0  0  0  0  0  0  0
    7.3057   -1.6133   21.8402 N   0  0  0  0  0  0  0  0  0  0  0  0
    7.1431   -2.9529   23.7155 N   0  0  0  0  0  0  0  0  0  0  0  0
    5.6954   -3.3078   21.9077 O   0  0  0  0  0  0  0  0  0  0  0  0
   11.0286    0.2139   22.8856 O   0  0  0  0  0  0  0  0  0  0  0  0
   12.4919    0.1631   24.9359 O   0  0  0  0  0  0  0  0  0  0  0  0
    8.4096   -3.2142   26.2150 O   0  0  0  0  0  0  0  0  0  0  0  0
   11.9643   -0.4937   23.7482 S   0  0  0  0  0  0  0  0  0  0  0  0
   11.6379   -5.3614   23.8582 H   0  0  0  0  0  0  0  0  0  0  0  0
    5.1548   -1.2873   17.7909 H   0  0  0  0  0  0  0  0  0  0  0  0
    5.4741   -2.3505   20.0136 H   0  0  0  0  0  0  0  0  0  0  0  0
    9.6235   -5.3657   25.2965 H   0  0  0  0  0  0  0  0  0  0  0  0
   12.6732   -3.2243   23.1732 H   0  0  0  0  0  0  0  0  0  0  0  0
    9.6636   -1.0673   25.3731 H   0  0  0  0  0  0  0  0  0  0  0  0
    6.6367    0.6267   17.1651 H   0  0  0  0  0  0  0  0  0  0  0  0
    5.5255   -6.6627   26.9913 H   0  0  0  0  0  0  0  0  0  0  0  0
    8.6507    0.4504   20.7466 H   0  0  0  0  0  0  0  0  0  0  0  0
    5.1936   -4.7443   23.3773 H   0  0  0  0  0  0  0  0  0  0  0  0
   13.2231   -0.9188   21.7846 H   0  0  0  0  0  0  0  0  0  0  0  0
   14.2212   -0.9546   23.1868 H   0  0  0  0  0  0  0  0  0  0  0  0
    8.0483   -1.2009   22.3991 H   0  0  0  0  0  0  0  0  0  0  0  0
    7.9140   -2.3392   24.0006 H   0  0  0  0  0  0  0  0  0  0  0  0
  1 12  1  0  0  0  0
  1 19  3  0  0  0  0
  2  5  2  0  0  0  0
  2  6  1  0  0  0  0
  3  4  2  0  0  0  0
  3  8  1  0  0  0  0
  4 13  1  0  0  0  0
  5 15  1  0  0  0  0
  6 17  2  0  0  0  0
  7 15  2  0  0  0  0
  7 17  1  0  0  0  0
  8 20  2  0  0  0  0
  9 12  1  0  0  0  0
  9 21  2  0  0  0  0
 10 13  2  0  0  0  0
 10 20  1  0  0  0  0
 11 14  2  0  0  0  0
 11 21  1  0  0  0  0
 12 16  2  0  0  0  0
 13 23  1  0  0  0  0
 14 16  1  0  0  0  0
 14 24  1  0  0  0  0
 15 28  1  0  0  0  0
 16 28  1  0  0  0  0
 17 29  1  0  0  0  0
 18 23  1  0  0  0  0
 18 24  1  0  0  0  0
 18 25  2  0  0  0  0
 22 29  1  0  0  0  0
 26 29  2  0  0  0  0
 27 29  2  0  0  0  0
  2 30  1  0  0  0  0
  3 31  1  0  0  0  0
  4 32  1  0  0  0  0
  5 33  1  0  0  0  0
  6 34  1  0  0  0  0
  7 35  1  0  0  0  0
  8 36  1  0  0  0  0
  9 37  1  0  0  0  0
 10 38  1  0  0  0  0
 11 39  1  0  0  0  0
 22 40  1  0  0  0  0
 22 41  1  0  0  0  0
 23 42  1  0  0  0  0
 24 43  1  0  0  0  0
M  END
> <Chemgauss4 Score>
-5.54145479202271

> <Number of Confs>
200

$$$$
JOH-MSK-a63-7
  -OEChem-03242005443D

 28 29  0     0  0  0  0  0  0999 V2000
   11.6921   -3.2671   24.1215 C   0  0  0  0  0  0  0  0  0  0  0  0
   11.4866   -1.9515   23.6963 C   0  0  0  0  0  0  0  0  0  0  0  0
    9.4549   -1.7812   25.0156 C   0  0  0  0  0  0  0  0  0  0  0  0
    9.5937   -5.1703   26.3778 C   0  0  0  0  0  0  0  0  0  0  0  0
    9.6412   -3.1061   25.4578 C   0  0  0  0  0  0  0  0  0  0  0  0
    8.9189   -3.9724   26.3254 C   0  0  0  0  0  0  0  0  0  0  0  0
   10.7532   -3.8170   25.0015 C   0  0  0  0  0  0  0  0  0  0  0  0
   10.3860   -1.2181   24.1352 C   0  0  0  0  0  0  0  0  0  0  0  0
   11.1936    0.5831   22.8089 C   0  0  0  0  0  0  0  0  0  0  0  0
    7.6700   -3.6537   27.0461 C   0  0  0  0  0  0  0  0  0  0  0  0
    7.8664   -3.3661   28.5458 C   0  0  0  0  0  0  0  0  0  0  0  0
   10.6988   -5.0668   25.5763 N   0  0  0  0  0  0  0  0  0  0  0  0
    8.4545   -4.4807   29.2391 N   0  0  0  0  0  0  0  0  0  0  0  0
   10.2128    0.0631   23.7038 O   0  0  0  0  0  0  0  0  0  0  0  0
   12.5491   -3.8373   23.7787 H   0  0  0  0  0  0  0  0  0  0  0  0
   12.2007   -1.5002   23.0112 H   0  0  0  0  0  0  0  0  0  0  0  0
    8.6001   -1.2013   25.3528 H   0  0  0  0  0  0  0  0  0  0  0  0
    9.3878   -6.0870   26.9126 H   0  0  0  0  0  0  0  0  0  0  0  0
   10.9368    1.6115   22.5433 H   0  0  0  0  0  0  0  0  0  0  0  0
   11.2336   -0.0375   21.9102 H   0  0  0  0  0  0  0  0  0  0  0  0
   12.1682    0.5692   23.3026 H   0  0  0  0  0  0  0  0  0  0  0  0
    6.9525   -4.4929   26.9529 H   0  0  0  0  0  0  0  0  0  0  0  0
    7.1478   -2.7905   26.5859 H   0  0  0  0  0  0  0  0  0  0  0  0
    8.5342   -2.5121   28.6975 H   0  0  0  0  0  0  0  0  0  0  0  0
    6.9106   -3.1424   29.0308 H   0  0  0  0  0  0  0  0  0  0  0  0
   11.3767   -5.8012   25.4269 H   0  0  0  0  0  0  0  0  0  0  0  0
    7.8198   -4.8105   29.9374 H   0  0  0  0  0  0  0  0  0  0  0  0
    8.6447   -5.2143   28.5872 H   0  0  0  0  0  0  0  0  0  0  0  0
  1  2  2  0  0  0  0
  1  7  1  0  0  0  0
  2  8  1  0  0  0  0
  3  5  1  0  0  0  0
  3  8  2  0  0  0  0
  4  6  2  0  0  0  0
  4 12  1  0  0  0  0
  5  6  1  0  0  0  0
  5  7  2  0  0  0  0
  6 10  1  0  0  0  0
  7 12  1  0  0  0  0
  8 14  1  0  0  0  0
  9 14  1  0  0  0  0
 10 11  1  0  0  0  0
 11 13  1  0  0  0  0
  1 15  1  0  0  0  0
  2 16  1  0  0  0  0
  3 17  1  0  0  0  0
  4 18  1  0  0  0  0
  9 19  1  0  0  0  0
  9 20  1  0  0  0  0
  9 21  1  0  0  0  0
 10 22  1  0  0  0  0
 10 23  1  0  0  0  0
 11 24  1  0  0  0  0
 11 25  1  0  0  0  0
 12 26  1  0  0  0  0
 13 27  1  0  0  0  0
 13 28  1  0  0  0  0
M  END
> <Chemgauss4 Score>
-5.53720855712891

> <Number of Confs>
11

$$$$
JOH-MEM-5e3-5
  -OEChem-03242005443D

 48 51  0     1  0  0  0  0  0999 V2000
   10.3558   -1.7758   22.7310 C   0  0  0  0  0  0  0  0  0  0  0  0
   10.4339   -1.9221   24.1193 C   0  0  0  0  0  0  0  0  0  0  0  0
    8.3764   -0.6677   24.4337 C   0  0  0  0  0  0  0  0  0  0  0  0
    8.2731   -0.5049   23.0398 C   0  0  0  0  0  0  0  0  0  0  0  0
    7.3596    0.1237   22.1766 C   0  0  0  0  0  0  0  0  0  0  0  0
    9.2683   -1.0641   22.2114 C   0  0  0  0  0  0  0  0  0  0  0  0
    9.4622   -1.3783   24.9578 C   0  0  0  0  0  0  0  0  0  0  0  0
    7.8002   -0.0597   20.9007 C   0  0  0  0  0  0  0  0  0  0  0  0
    9.2437   -5.7576   26.0374 C   0  0  0  0  0  0  0  0  0  0  0  0
    7.2462    0.4479   18.6047 C   0  0  0  0  0  0  0  0  0  0  0  0
    6.0990    0.9056   22.2037 C   0  0  0  0  0  0  0  0  0  0  0  0
    5.8453    1.1702   20.6726 C   0  0  0  0  0  0  0  0  0  0  0  0
    8.3017   -4.9114   26.8728 C   0  0  1  0  0  0  0  0  0  0  0  0
    8.5102   -5.0611   28.3792 C   0  0  1  0  0  0  0  0  0  0  0  0
    9.6984   -4.2478   28.9080 C   0  0  2  0  0  0  0  0  0  0  0  0
    9.7225   -2.8342   28.3219 C   0  0  1  0  0  0  0  0  0  0  0  0
    9.5789   -2.8781   26.8000 C   0  0  1  0  0  0  0  0  0  0  0  0
    6.2234    1.1444   17.7423 C   0  0  0  0  0  0  0  0  0  0  0  0
    8.9469   -0.7708   20.8914 N   0  0  0  0  0  0  0  0  0  0  0  0
    6.9868    0.5125   19.9572 N   0  0  0  0  0  0  0  0  0  0  0  0
   10.0198   -5.3240   25.1989 O   0  0  0  0  0  0  0  0  0  0  0  0
    8.2120   -0.1149   18.0879 O   0  0  0  0  0  0  0  0  0  0  0  0
    8.3792   -3.5550   26.4275 O   0  0  0  0  0  0  0  0  0  0  0  0
    9.1078   -7.0707   26.3448 O   0  0  0  0  0  0  0  0  0  0  0  0
    7.3121   -4.6217   29.0223 O   0  0  0  0  0  0  0  0  0  0  0  0
   10.9039   -4.9249   28.5619 O   0  0  0  0  0  0  0  0  0  0  0  0
    8.6464   -2.0693   28.8645 O   0  0  0  0  0  0  0  0  0  0  0  0
    9.5692   -1.5400   26.3072 O   0  0  0  0  0  0  0  0  0  0  0  0
   11.1147   -2.2008   22.0824 H   0  0  0  0  0  0  0  0  0  0  0  0
   11.2707   -2.4713   24.5450 H   0  0  0  0  0  0  0  0  0  0  0  0
    7.6238   -0.2473   25.0952 H   0  0  0  0  0  0  0  0  0  0  0  0
    5.2779    0.3291   22.6395 H   0  0  0  0  0  0  0  0  0  0  0  0
    6.2225    1.8479   22.7454 H   0  0  0  0  0  0  0  0  0  0  0  0
    4.9050    0.7243   20.3327 H   0  0  0  0  0  0  0  0  0  0  0  0
    5.8444    2.2398   20.4390 H   0  0  0  0  0  0  0  0  0  0  0  0
    7.2460   -5.2987   26.6077 H   0  0  0  0  0  0  0  0  0  0  0  0
    8.6377   -6.1240   28.6481 H   0  0  0  0  0  0  0  0  0  0  0  0
    9.6786   -4.2129   30.0141 H   0  0  0  0  0  0  0  0  0  0  0  0
   10.6541   -2.3428   28.5976 H   0  0  0  0  0  0  0  0  0  0  0  0
   10.4256   -3.3839   26.3594 H   0  0  0  0  0  0  0  0  0  0  0  0
    6.5228    2.1776   17.6016 H   0  0  0  0  0  0  0  0  0  0  0  0
    5.2566    1.1017   18.2334 H   0  0  0  0  0  0  0  0  0  0  0  0
    6.1661    0.6405   16.7829 H   0  0  0  0  0  0  0  0  0  0  0  0
    9.4846   -1.0470   20.0806 H   0  0  0  0  0  0  0  0  0  0  0  0
    9.7081   -7.6356   25.8130 H   0  0  0  0  0  0  0  0  0  0  0  0
    6.6003   -5.1938   28.6975 H   0  0  0  0  0  0  0  0  0  0  0  0
   10.8576   -5.7966   28.9821 H   0  0  0  0  0  0  0  0  0  0  0  0
    8.7791   -2.0453   29.8253 H   0  0  0  0  0  0  0  0  0  0  0  0
  1  2  2  0  0  0  0
  1  6  1  0  0  0  0
  2  7  1  0  0  0  0
  3  4  1  0  0  0  0
  3  7  2  0  0  0  0
  4  5  1  0  0  0  0
  4  6  2  0  0  0  0
  5  8  2  0  0  0  0
  5 11  1  0  0  0  0
  6 19  1  0  0  0  0
  7 28  1  0  0  0  0
  8 19  1  0  0  0  0
  8 20  1  0  0  0  0
  9 13  1  1  0  0  0
  9 21  2  0  0  0  0
  9 24  1  0  0  0  0
 10 18  1  0  0  0  0
 10 20  1  0  0  0  0
 10 22  2  0  0  0  0
 11 12  1  0  0  0  0
 12 20  1  0  0  0  0
 13 14  1  0  0  0  0
 13 23  1  0  0  0  0
 14 15  1  0  0  0  0
 14 25  1  6  0  0  0
 15 16  1  0  0  0  0
 15 26  1  1  0  0  0
 16 17  1  0  0  0  0
 16 27  1  6  0  0  0
 17 23  1  0  0  0  0
 17 28  1  1  0  0  0
  1 29  1  0  0  0  0
  2 30  1  0  0  0  0
  3 31  1  0  0  0  0
 11 32  1  0  0  0  0
 11 33  1  0  0  0  0
 12 34  1  0  0  0  0
 12 35  1  0  0  0  0
 13 36  1  0  0  0  0
 14 37  1  0  0  0  0
 15 38  1  0  0  0  0
 16 39  1  0  0  0  0
 17 40  1  0  0  0  0
 18 41  1  0  0  0  0
 18 42  1  0  0  0  0
 18 43  1  0  0  0  0
 19 44  1  0  0  0  0
 24 45  1  0  0  0  0
 25 46  1  0  0  0  0
 26 47  1  0  0  0  0
 27 48  1  0  0  0  0
M  END
> <Chemgauss4 Score>
-5.52286624908447

> <Number of Confs>
75

$$$$
TRY-UNI-1fd-8
  -OEChem-03242005443D

 36 38  0     0  0  0  0  0  0999 V2000
   11.7685   -0.1900   25.0149 C   0  0  0  0  0  0  0  0  0  0  0  0
    9.7653   -3.6567   27.1729 C   0  0  0  0  0  0  0  0  0  0  0  0
    9.3821   -0.6856   24.8150 C   0  0  0  0  0  0  0  0  0  0  0  0
   10.9773   -1.9525   23.5160 C   0  0  0  0  0  0  0  0  0  0  0  0
    9.0299   -4.4402   26.2854 C   0  0  0  0  0  0  0  0  0  0  0  0
    8.3399   -1.4258   24.2572 C   0  0  0  0  0  0  0  0  0  0  0  0
    9.9350   -2.6929   22.9582 C   0  0  0  0  0  0  0  0  0  0  0  0
    9.2404   -3.4034   28.4330 C   0  0  0  0  0  0  0  0  0  0  0  0
    5.7718   -5.8705   27.1100 C   0  0  0  0  0  0  0  0  0  0  0  0
   10.7009   -0.9489   24.4444 C   0  0  0  0  0  0  0  0  0  0  0  0
    7.7888   -4.9335   26.7196 C   0  0  0  0  0  0  0  0  0  0  0  0
    8.6163   -2.4295   23.3288 C   0  0  0  0  0  0  0  0  0  0  0  0
    6.7607   -5.7368   26.1593 C   0  0  0  0  0  0  0  0  0  0  0  0
    7.3836   -4.6019   28.0092 C   0  0  0  0  0  0  0  0  0  0  0  0
    7.4653   -5.4934   23.7465 C   0  0  0  0  0  0  0  0  0  0  0  0
    6.7436   -6.3262   24.8055 C   0  0  0  0  0  0  0  0  0  0  0  0
    7.4945   -3.2274   22.7295 C   0  0  0  0  0  0  0  0  0  0  0  0
   12.6357    0.4265   25.4783 N   0  0  0  0  0  0  0  0  0  0  0  0
    8.0533   -3.8511   28.9041 N   0  0  0  0  0  0  0  0  0  0  0  0
    6.1599   -5.1779   28.2276 N   0  0  0  0  0  0  0  0  0  0  0  0
    6.9681   -4.2010   23.6572 N   0  0  0  0  0  0  0  0  0  0  0  0
    8.3836   -5.9434   23.0660 O   0  0  0  0  0  0  0  0  0  0  0  0
   10.7295   -3.2528   26.8832 H   0  0  0  0  0  0  0  0  0  0  0  0
    9.1506    0.0949   25.5360 H   0  0  0  0  0  0  0  0  0  0  0  0
   12.0001   -2.1711   23.2180 H   0  0  0  0  0  0  0  0  0  0  0  0
    9.4118   -4.6577   25.2933 H   0  0  0  0  0  0  0  0  0  0  0  0
    7.3154   -1.2132   24.5511 H   0  0  0  0  0  0  0  0  0  0  0  0
   10.1599   -3.4742   22.2370 H   0  0  0  0  0  0  0  0  0  0  0  0
    9.8004   -2.7951   29.1385 H   0  0  0  0  0  0  0  0  0  0  0  0
    4.8271   -6.3961   27.0929 H   0  0  0  0  0  0  0  0  0  0  0  0
    7.2036   -7.3338   24.8056 H   0  0  0  0  0  0  0  0  0  0  0  0
    5.7062   -6.4820   24.4504 H   0  0  0  0  0  0  0  0  0  0  0  0
    6.6718   -2.5702   22.4273 H   0  0  0  0  0  0  0  0  0  0  0  0
    7.8279   -3.7636   21.8348 H   0  0  0  0  0  0  0  0  0  0  0  0
    5.6250   -5.1022   29.0816 H   0  0  0  0  0  0  0  0  0  0  0  0
    6.2037   -3.9290   24.2684 H   0  0  0  0  0  0  0  0  0  0  0  0
  1 10  1  0  0  0  0
  1 18  3  0  0  0  0
  2  5  2  0  0  0  0
  2  8  1  0  0  0  0
  3  6  2  0  0  0  0
  3 10  1  0  0  0  0
  4  7  1  0  0  0  0
  4 10  2  0  0  0  0
  5 11  1  0  0  0  0
  6 12  1  0  0  0  0
  7 12  2  0  0  0  0
  8 19  2  0  0  0  0
  9 13  2  0  0  0  0
  9 20  1  0  0  0  0
 11 13  1  0  0  0  0
 11 14  2  0  0  0  0
 12 17  1  0  0  0  0
 13 16  1  0  0  0  0
 14 19  1  0  0  0  0
 14 20  1  0  0  0  0
 15 16  1  0  0  0  0
 15 21  1  0  0  0  0
 15 22  2  0  0  0  0
 17 21  1  0  0  0  0
  2 23  1  0  0  0  0
  3 24  1  0  0  0  0
  4 25  1  0  0  0  0
  5 26  1  0  0  0  0
  6 27  1  0  0  0  0
  7 28  1  0  0  0  0
  8 29  1  0  0  0  0
  9 30  1  0  0  0  0
 16 31  1  0  0  0  0
 16 32  1  0  0  0  0
 17 33  1  0  0  0  0
 17 34  1  0  0  0  0
 20 35  1  0  0  0  0
 21 36  1  0  0  0  0
M  END
> <Chemgauss4 Score>
-5.51298046112061

> <Number of Confs>
200

$$$$
KIM-UNI-60f-7
  -OEChem-03242005443D

 41 43  0     1  0  0  0  0  0999 V2000
    5.9883   -5.5960   27.5907 C   0  0  0  0  0  0  0  0  0  0  0  0
    5.1063   -6.1678   26.6880 C   0  0  0  0  0  0  0  0  0  0  0  0
    6.3652   -5.4878   24.8905 C   0  0  0  0  0  0  0  0  0  0  0  0
    7.1066   -4.9436   27.0838 C   0  0  0  0  0  0  0  0  0  0  0  0
    7.3060   -4.8839   25.7090 C   0  0  0  0  0  0  0  0  0  0  0  0
   10.7641   -3.0162   24.1679 C   0  0  0  0  0  0  0  0  0  0  0  0
   10.8070   -4.3192   24.4451 C   0  0  0  0  0  0  0  0  0  0  0  0
    9.5561   -2.2254   24.3177 C   0  0  0  0  0  0  0  0  0  0  0  0
    8.4427   -2.8500   24.7836 C   0  0  0  0  0  0  0  0  0  0  0  0
    9.6074   -5.0112   24.9680 C   0  0  0  0  0  0  0  0  0  0  0  0
   11.3269   -0.8377   22.3275 C   0  0  0  0  0  0  0  0  0  0  0  0
    7.1321   -2.0815   24.8286 C   0  0  0  0  0  0  0  0  0  0  0  0
    7.1256   -0.8625   23.9087 C   0  0  0  0  0  0  0  0  0  0  0  0
    8.3786   -0.0270   24.1134 C   0  0  0  0  0  0  0  0  0  0  0  0
    8.0736   -4.3176   28.0344 C   0  0  0  0  0  0  0  0  0  0  0  0
   10.7811   -0.1446   23.5533 C   0  0  0  0  0  0  0  0  0  0  0  0
    5.2665   -6.1304   25.3461 N   0  0  0  0  0  0  0  0  0  0  0  0
   12.6063   -0.7837   22.1162 N   0  0  0  0  0  0  0  0  0  0  0  0
    8.4494   -4.2198   25.1341 N   0  0  0  0  0  0  0  0  0  0  0  0
    9.5735   -0.8635   23.9580 N   0  0  3  0  0  0  0  0  0  0  0  0
   10.4361   -1.4951   21.5199 N   0  0  0  0  0  0  0  0  0  0  0  0
    9.7226   -6.2030   25.2580 O   0  0  0  0  0  0  0  0  0  0  0  0
    5.8035   -5.6602   28.6577 H   0  0  0  0  0  0  0  0  0  0  0  0
    4.2186   -6.6880   27.0324 H   0  0  0  0  0  0  0  0  0  0  0  0
    6.4657   -5.4753   23.8092 H   0  0  0  0  0  0  0  0  0  0  0  0
   11.6811   -2.5394   23.8394 H   0  0  0  0  0  0  0  0  0  0  0  0
   11.7044   -4.9041   24.2798 H   0  0  0  0  0  0  0  0  0  0  0  0
    6.3170   -2.7622   24.5530 H   0  0  0  0  0  0  0  0  0  0  0  0
    6.9273   -1.7205   25.8432 H   0  0  0  0  0  0  0  0  0  0  0  0
    7.0593   -1.1874   22.8640 H   0  0  0  0  0  0  0  0  0  0  0  0
    6.2364   -0.2500   24.1076 H   0  0  0  0  0  0  0  0  0  0  0  0
    8.4165    0.7905   23.3834 H   0  0  0  0  0  0  0  0  0  0  0  0
    8.3409    0.4217   25.1130 H   0  0  0  0  0  0  0  0  0  0  0  0
    8.8505   -5.0381   28.3153 H   0  0  0  0  0  0  0  0  0  0  0  0
    8.5562   -3.4395   27.5880 H   0  0  0  0  0  0  0  0  0  0  0  0
    7.5680   -3.9753   28.9459 H   0  0  0  0  0  0  0  0  0  0  0  0
   10.5146    0.8916   23.3298 H   0  0  0  0  0  0  0  0  0  0  0  0
   11.4988   -0.1775   24.3768 H   0  0  0  0  0  0  0  0  0  0  0  0
   12.8205   -1.3017   21.2569 H   0  0  0  0  0  0  0  0  0  0  0  0
    9.4455   -1.5137   21.7373 H   0  0  0  0  0  0  0  0  0  0  0  0
   10.7327   -1.9805   20.6800 H   0  0  0  0  0  0  0  0  0  0  0  0
  1  2  2  0  0  0  0
  1  4  1  0  0  0  0
  2 17  1  0  0  0  0
  3  5  1  0  0  0  0
  3 17  2  0  0  0  0
  4  5  2  0  0  0  0
  4 15  1  0  0  0  0
  5 19  1  0  0  0  0
  6  7  2  0  0  0  0
  6  8  1  0  0  0  0
  7 10  1  0  0  0  0
  8  9  2  0  0  0  0
  8 20  1  0  0  0  0
  9 12  1  0  0  0  0
  9 19  1  0  0  0  0
 10 19  1  0  0  0  0
 10 22  2  0  0  0  0
 11 16  1  0  0  0  0
 11 18  2  0  0  0  0
 11 21  1  0  0  0  0
 12 13  1  0  0  0  0
 13 14  1  0  0  0  0
 14 20  1  0  0  0  0
 16 20  1  6  0  0  0
  1 23  1  0  0  0  0
  2 24  1  0  0  0  0
  3 25  1  0  0  0  0
  6 26  1  0  0  0  0
  7 27  1  0  0  0  0
 12 28  1  0  0  0  0
 12 29  1  0  0  0  0
 13 30  1  0  0  0  0
 13 31  1  0  0  0  0
 14 32  1  0  0  0  0
 14 33  1  0  0  0  0
 15 34  1  0  0  0  0
 15 35  1  0  0  0  0
 15 36  1  0  0  0  0
 16 37  1  0  0  0  0
 16 38  1  0  0  0  0
 18 39  1  0  0  0  0
 21 40  1  0  0  0  0
 21 41  1  0  0  0  0
M  END
> <Chemgauss4 Score>
-5.50890779495239

> <Number of Confs>
10

$$$$
CHR-SOS-6c4-13
  -OEChem-03242005443D

 48 50  0     0  0  0  0  0  0999 V2000
   10.0321   -3.3983   24.6170 C   0  0  0  0  0  0  0  0  0  0  0  0
   10.6443   -2.7743   23.7934 C   0  0  0  0  0  0  0  0  0  0  0  0
    5.7261    1.5448   19.6938 C   0  0  0  0  0  0  0  0  0  0  0  0
    5.3038    2.1104   20.8861 C   0  0  0  0  0  0  0  0  0  0  0  0
    6.9981    1.1041   22.0671 C   0  0  0  0  0  0  0  0  0  0  0  0
    9.1226   -3.8366   26.9248 C   0  0  0  0  0  0  0  0  0  0  0  0
    8.1091   -5.7182   26.3873 C   0  0  0  0  0  0  0  0  0  0  0  0
    9.3015   -4.1425   25.5963 C   0  0  0  0  0  0  0  0  0  0  0  0
    6.8458    0.7211   19.7248 C   0  0  0  0  0  0  0  0  0  0  0  0
    7.4997    0.4913   20.9302 C   0  0  0  0  0  0  0  0  0  0  0  0
    9.3923   -0.6540   22.1498 C   0  0  0  0  0  0  0  0  0  0  0  0
   14.0871   -1.0535   21.9009 C   0  0  0  0  0  0  0  0  0  0  0  0
   13.0801   -0.0967   22.5290 C   0  0  0  0  0  0  0  0  0  0  0  0
   13.3947   -2.2045   21.1803 C   0  0  0  0  0  0  0  0  0  0  0  0
   12.1165   -0.8288   23.4640 C   0  0  0  0  0  0  0  0  0  0  0  0
   12.4164   -2.9423   22.0964 C   0  0  0  0  0  0  0  0  0  0  0  0
   11.3972   -2.0070   22.7792 C   0  0  0  0  0  0  0  0  0  0  0  0
    7.3227    0.0978   18.4541 C   0  0  0  0  0  0  0  0  0  0  0  0
    7.8933   -4.9947   28.7771 C   0  0  0  0  0  0  0  0  0  0  0  0
    5.9131    1.9105   22.0762 N   0  0  0  0  0  0  0  0  0  0  0  0
    8.6679   -5.3148   25.2679 N   0  0  0  0  0  0  0  0  0  0  0  0
    8.3564   -4.8549   27.4182 N   0  0  0  0  0  0  0  0  0  0  0  0
    8.6425   -0.3381   21.0133 N   0  0  0  0  0  0  0  0  0  0  0  0
   10.4427   -1.5047   21.8073 N   0  0  0  0  0  0  0  0  0  0  0  0
    9.1870   -0.2604   23.2955 O   0  0  0  0  0  0  0  0  0  0  0  0
    5.1934    1.7441   18.7702 H   0  0  0  0  0  0  0  0  0  0  0  0
    4.4354    2.7603   20.9156 H   0  0  0  0  0  0  0  0  0  0  0  0
    7.4651    0.9637   23.0375 H   0  0  0  0  0  0  0  0  0  0  0  0
    9.4596   -3.0148   27.5421 H   0  0  0  0  0  0  0  0  0  0  0  0
    7.5195   -6.6164   26.5109 H   0  0  0  0  0  0  0  0  0  0  0  0
   14.7244   -0.5075   21.1962 H   0  0  0  0  0  0  0  0  0  0  0  0
   14.7453   -1.4545   22.6817 H   0  0  0  0  0  0  0  0  0  0  0  0
   13.6135    0.6793   23.0899 H   0  0  0  0  0  0  0  0  0  0  0  0
   12.5166    0.4154   21.7398 H   0  0  0  0  0  0  0  0  0  0  0  0
   12.8595   -1.8192   20.3041 H   0  0  0  0  0  0  0  0  0  0  0  0
   14.1469   -2.9083   20.8060 H   0  0  0  0  0  0  0  0  0  0  0  0
   12.6864   -1.1994   24.3279 H   0  0  0  0  0  0  0  0  0  0  0  0
   11.3893   -0.1146   23.8729 H   0  0  0  0  0  0  0  0  0  0  0  0
   11.9023   -3.7280   21.5266 H   0  0  0  0  0  0  0  0  0  0  0  0
   12.9991   -3.4689   22.8659 H   0  0  0  0  0  0  0  0  0  0  0  0
    8.0477    0.7534   17.9582 H   0  0  0  0  0  0  0  0  0  0  0  0
    7.7999   -0.8717   18.6429 H   0  0  0  0  0  0  0  0  0  0  0  0
    6.4887   -0.0857   17.7654 H   0  0  0  0  0  0  0  0  0  0  0  0
    6.9241   -4.4953   28.8562 H   0  0  0  0  0  0  0  0  0  0  0  0
    7.7975   -6.0563   29.0217 H   0  0  0  0  0  0  0  0  0  0  0  0
    8.6180   -4.5351   29.4550 H   0  0  0  0  0  0  0  0  0  0  0  0
    8.9516   -0.7529   20.1378 H   0  0  0  0  0  0  0  0  0  0  0  0
   10.5440   -1.7839   20.8403 H   0  0  0  0  0  0  0  0  0  0  0  0
  1  2  3  0  0  0  0
  1  8  1  0  0  0  0
  2 17  1  0  0  0  0
  3  4  2  0  0  0  0
  3  9  1  0  0  0  0
  4 20  1  0  0  0  0
  5 10  1  0  0  0  0
  5 20  2  0  0  0  0
  6  8  2  0  0  0  0
  6 22  1  0  0  0  0
  7 21  2  0  0  0  0
  7 22  1  0  0  0  0
  8 21  1  0  0  0  0
  9 10  2  0  0  0  0
  9 18  1  0  0  0  0
 10 23  1  0  0  0  0
 11 23  1  0  0  0  0
 11 24  1  0  0  0  0
 11 25  2  0  0  0  0
 12 13  1  0  0  0  0
 12 14  1  0  0  0  0
 13 15  1  0  0  0  0
 14 16  1  0  0  0  0
 15 17  1  0  0  0  0
 16 17  1  0  0  0  0
 17 24  1  0  0  0  0
 19 22  1  0  0  0  0
  3 26  1  0  0  0  0
  4 27  1  0  0  0  0
  5 28  1  0  0  0  0
  6 29  1  0  0  0  0
  7 30  1  0  0  0  0
 12 31  1  0  0  0  0
 12 32  1  0  0  0  0
 13 33  1  0  0  0  0
 13 34  1  0  0  0  0
 14 35  1  0  0  0  0
 14 36  1  0  0  0  0
 15 37  1  0  0  0  0
 15 38  1  0  0  0  0
 16 39  1  0  0  0  0
 16 40  1  0  0  0  0
 18 41  1  0  0  0  0
 18 42  1  0  0  0  0
 18 43  1  0  0  0  0
 19 44  1  0  0  0  0
 19 45  1  0  0  0  0
 19 46  1  0  0  0  0
 23 47  1  0  0  0  0
 24 48  1  0  0  0  0
M  END
> <Chemgauss4 Score>
-5.50718688964844

> <Number of Confs>
5

$$$$
GIA-UNK-995-6
  -OEChem-03242005443D

 28 28  0     0  0  0  0  0  0999 V2000
   11.0833   -1.1474   24.4157 C   0  0  0  0  0  0  0  0  0  0  0  0
    7.9930   -5.1448   25.1441 C   0  0  0  0  0  0  0  0  0  0  0  0
   11.1105   -3.4444   25.3720 C   0  0  0  0  0  0  0  0  0  0  0  0
   10.0725   -3.0140   23.0915 C   0  0  0  0  0  0  0  0  0  0  0  0
    9.6993   -3.5440   25.9484 C   0  0  0  0  0  0  0  0  0  0  0  0
    8.6920   -3.1460   23.7362 C   0  0  0  0  0  0  0  0  0  0  0  0
   11.1637   -2.6100   24.0882 C   0  0  0  0  0  0  0  0  0  0  0  0
    7.0441   -5.5432   24.0419 C   0  0  0  0  0  0  0  0  0  0  0  0
   12.8514   -0.5697   22.4004 C   0  0  0  0  0  0  0  0  0  0  0  0
    8.7536   -3.9962   24.9288 N   0  0  0  0  0  0  0  0  0  0  0  0
   10.9387   -0.7249   25.5566 O   0  0  0  0  0  0  0  0  0  0  0  0
    8.0564   -5.8361   26.1640 O   0  0  0  0  0  0  0  0  0  0  0  0
   12.7607   -1.7416   21.7167 F   0  0  0  0  0  0  0  0  0  0  0  0
   11.2189   -0.0968   23.0061 S   0  0  0  0  0  0  0  0  0  0  0  0
   11.7804   -3.0223   26.1308 H   0  0  0  0  0  0  0  0  0  0  0  0
   11.4750   -4.4565   25.1540 H   0  0  0  0  0  0  0  0  0  0  0  0
   10.3427   -3.9790   22.6436 H   0  0  0  0  0  0  0  0  0  0  0  0
   10.0183   -2.2878   22.2716 H   0  0  0  0  0  0  0  0  0  0  0  0
    9.7012   -4.2224   26.8075 H   0  0  0  0  0  0  0  0  0  0  0  0
    9.3550   -2.5674   26.3078 H   0  0  0  0  0  0  0  0  0  0  0  0
    8.3172   -2.1669   24.0556 H   0  0  0  0  0  0  0  0  0  0  0  0
    7.9859   -3.5282   22.9968 H   0  0  0  0  0  0  0  0  0  0  0  0
   12.1441   -2.7539   23.6172 H   0  0  0  0  0  0  0  0  0  0  0  0
    7.5581   -6.2056   23.3532 H   0  0  0  0  0  0  0  0  0  0  0  0
    6.7111   -4.6517   23.5201 H   0  0  0  0  0  0  0  0  0  0  0  0
    6.1887   -6.0506   24.4760 H   0  0  0  0  0  0  0  0  0  0  0  0
   13.5461   -0.7178   23.2312 H   0  0  0  0  0  0  0  0  0  0  0  0
   13.2471    0.1876   21.7186 H   0  0  0  0  0  0  0  0  0  0  0  0
  1  7  1  0  0  0  0
  1 11  2  0  0  0  0
  1 14  1  0  0  0  0
  2  8  1  0  0  0  0
  2 10  1  0  0  0  0
  2 12  2  0  0  0  0
  3  5  1  0  0  0  0
  3  7  1  0  0  0  0
  4  6  1  0  0  0  0
  4  7  1  0  0  0  0
  5 10  1  0  0  0  0
  6 10  1  0  0  0  0
  9 13  1  0  0  0  0
  9 14  1  0  0  0  0
  3 15  1  0  0  0  0
  3 16  1  0  0  0  0
  4 17  1  0  0  0  0
  4 18  1  0  0  0  0
  5 19  1  0  0  0  0
  5 20  1  0  0  0  0
  6 21  1  0  0  0  0
  6 22  1  0  0  0  0
  7 23  1  0  0  0  0
  8 24  1  0  0  0  0
  8 25  1  0  0  0  0
  8 26  1  0  0  0  0
  9 27  1  0  0  0  0
  9 28  1  0  0  0  0
M  END
> <Chemgauss4 Score>
-5.49905109405518

> <Number of Confs>
200

$$$$
KIM-UNI-60f-7
  -OEChem-03242005443D

 41 43  0     1  0  0  0  0  0999 V2000
   12.3977   -0.7894   22.2296 C   0  0  0  0  0  0  0  0  0  0  0  0
   13.2004   -0.1406   23.1539 C   0  0  0  0  0  0  0  0  0  0  0  0
   11.6965   -0.5082   24.8514 C   0  0  0  0  0  0  0  0  0  0  0  0
   11.1880   -1.3132   22.6721 C   0  0  0  0  0  0  0  0  0  0  0  0
   10.8232   -1.1741   24.0066 C   0  0  0  0  0  0  0  0  0  0  0  0
    7.0964   -2.6503   25.3315 C   0  0  0  0  0  0  0  0  0  0  0  0
    7.1688   -1.3970   24.8837 C   0  0  0  0  0  0  0  0  0  0  0  0
    8.2614   -3.5098   25.4379 C   0  0  0  0  0  0  0  0  0  0  0  0
    9.4591   -3.0073   25.0382 C   0  0  0  0  0  0  0  0  0  0  0  0
    8.4628   -0.8399   24.4293 C   0  0  0  0  0  0  0  0  0  0  0  0
    6.8343   -4.7711   27.9882 C   0  0  0  0  0  0  0  0  0  0  0  0
   10.7147   -3.8355   25.2581 C   0  0  0  0  0  0  0  0  0  0  0  0
   10.5353   -4.9168   26.3216 C   0  0  0  0  0  0  0  0  0  0  0  0
    9.2652   -5.7128   26.0705 C   0  0  0  0  0  0  0  0  0  0  0  0
   10.3027   -2.0171   21.6967 C   0  0  0  0  0  0  0  0  0  0  0  0
    6.8825   -5.3040   26.5759 C   0  0  0  0  0  0  0  0  0  0  0  0
   12.8798    0.0141   24.4581 N   0  0  0  0  0  0  0  0  0  0  0  0
    5.8459   -3.9953   28.3129 N   0  0  0  0  0  0  0  0  0  0  0  0
    9.5803   -1.6995   24.5145 N   0  0  0  0  0  0  0  0  0  0  0  0
    8.1155   -4.8079   25.9655 N   0  0  3  0  0  0  0  0  0  0  0  0
    7.8326   -5.1531   28.8456 N   0  0  0  0  0  0  0  0  0  0  0  0
    8.4577    0.3048   23.9739 O   0  0  0  0  0  0  0  0  0  0  0  0
   12.7114   -0.8807   21.1953 H   0  0  0  0  0  0  0  0  0  0  0  0
   14.1537    0.2857   22.8593 H   0  0  0  0  0  0  0  0  0  0  0  0
   11.4680   -0.3680   25.9039 H   0  0  0  0  0  0  0  0  0  0  0  0
    6.1260   -3.0195   25.6443 H   0  0  0  0  0  0  0  0  0  0  0  0
    6.2899   -0.7656   24.8235 H   0  0  0  0  0  0  0  0  0  0  0  0
   11.0039   -4.2936   24.3040 H   0  0  0  0  0  0  0  0  0  0  0  0
   11.5478   -3.2007   25.5814 H   0  0  0  0  0  0  0  0  0  0  0  0
   11.4030   -5.5863   26.3187 H   0  0  0  0  0  0  0  0  0  0  0  0
   10.4925   -4.4568   27.3175 H   0  0  0  0  0  0  0  0  0  0  0  0
    9.3527   -6.2896   25.1419 H   0  0  0  0  0  0  0  0  0  0  0  0
    9.1301   -6.4253   26.8927 H   0  0  0  0  0  0  0  0  0  0  0  0
   10.5433   -3.0861   21.6683 H   0  0  0  0  0  0  0  0  0  0  0  0
    9.2458   -1.9036   21.9673 H   0  0  0  0  0  0  0  0  0  0  0  0
   10.4197   -1.6054   20.6866 H   0  0  0  0  0  0  0  0  0  0  0  0
    6.0318   -4.9421   25.9927 H   0  0  0  0  0  0  0  0  0  0  0  0
    6.9047   -6.3966   26.5676 H   0  0  0  0  0  0  0  0  0  0  0  0
    5.2369   -3.8780   27.4956 H   0  0  0  0  0  0  0  0  0  0  0  0
    8.5779   -5.7704   28.5415 H   0  0  0  0  0  0  0  0  0  0  0  0
    7.8638   -4.8320   29.8074 H   0  0  0  0  0  0  0  0  0  0  0  0
  1  2  2  0  0  0  0
  1  4  1  0  0  0  0
  2 17  1  0  0  0  0
  3  5  1  0  0  0  0
  3 17  2  0  0  0  0
  4  5  2  0  0  0  0
  4 15  1  0  0  0  0
  5 19  1  0  0  0  0
  6  7  2  0  0  0  0
  6  8  1  0  0  0  0
  7 10  1  0  0  0  0
  8  9  2  0  0  0  0
  8 20  1  0  0  0  0
  9 12  1  0  0  0  0
  9 19  1  0  0  0  0
 10 19  1  0  0  0  0
 10 22  2  0  0  0  0
 11 16  1  0  0  0  0
 11 18  2  0  0  0  0
 11 21  1  0  0  0  0
 12 13  1  0  0  0  0
 13 14  1  0  0  0  0
 14 20  1  0  0  0  0
 16 20  1  6  0  0  0
  1 23  1  0  0  0  0
  2 24  1  0  0  0  0
  3 25  1  0  0  0  0
  6 26  1  0  0  0  0
  7 27  1  0  0  0  0
 12 28  1  0  0  0  0
 12 29  1  0  0  0  0
 13 30  1  0  0  0  0
 13 31  1  0  0  0  0
 14 32  1  0  0  0  0
 14 33  1  0  0  0  0
 15 34  1  0  0  0  0
 15 35  1  0  0  0  0
 15 36  1  0  0  0  0
 16 37  1  0  0  0  0
 16 38  1  0  0  0  0
 18 39  1  0  0  0  0
 21 40  1  0  0  0  0
 21 41  1  0  0  0  0
M  END
> <Chemgauss4 Score>
-5.49595975875854

> <Number of Confs>
13

$$$$
ROB-UNI-b2e-12
  -OEChem-03242005443D

 48 50  0     0  0  0  0  0  0999 V2000
    4.4772   -5.6617   23.4121 C   0  0  0  0  0  0  0  0  0  0  0  0
    6.4754   -4.5787   22.5220 C   0  0  0  0  0  0  0  0  0  0  0  0
    7.7839   -4.1068   22.6605 C   0  0  0  0  0  0  0  0  0  0  0  0
    6.4488   -5.3513   24.8240 C   0  0  0  0  0  0  0  0  0  0  0  0
    9.8471   -4.2749   25.6323 C   0  0  0  0  0  0  0  0  0  0  0  0
    5.8163   -5.1916   23.5858 C   0  0  0  0  0  0  0  0  0  0  0  0
    7.7679   -4.8836   24.9874 C   0  0  0  0  0  0  0  0  0  0  0  0
    8.6905   -4.8773   26.0708 C   0  0  0  0  0  0  0  0  0  0  0  0
    8.4037   -4.2734   23.9041 C   0  0  0  0  0  0  0  0  0  0  0  0
   10.7849   -1.8017   23.9116 C   0  0  0  0  0  0  0  0  0  0  0  0
    9.1481   -2.0508   28.3963 C   0  0  0  0  0  0  0  0  0  0  0  0
   11.8968    0.3763   23.5365 C   0  0  0  0  0  0  0  0  0  0  0  0
   12.4787   -1.4891   22.0417 C   0  0  0  0  0  0  0  0  0  0  0  0
   13.3784    0.7175   23.6072 C   0  0  0  0  0  0  0  0  0  0  0  0
   13.9367   -1.0665   22.1706 C   0  0  0  0  0  0  0  0  0  0  0  0
   10.4103   -1.2755   28.5807 C   0  0  0  0  0  0  0  0  0  0  0  0
    8.4595   -5.4183   27.4255 C   0  0  0  0  0  0  0  0  0  0  0  0
   10.6659   -3.2507   23.5120 C   0  0  0  0  0  0  0  0  0  0  0  0
    8.1886   -4.3427   28.4931 C   0  0  0  0  0  0  0  0  0  0  0  0
    3.3903   -6.0432   23.2711 N   0  0  0  0  0  0  0  0  0  0  0  0
    9.6644   -3.9139   24.3243 N   0  0  0  0  0  0  0  0  0  0  0  0
   11.7143   -1.0377   23.2092 N   0  0  0  0  0  0  0  0  0  0  0  0
    9.2793   -3.4128   28.6147 N   0  0  0  0  0  0  0  0  0  0  0  0
   10.0766   -1.3648   24.8222 O   0  0  0  0  0  0  0  0  0  0  0  0
    8.1197   -1.4645   28.0792 O   0  0  0  0  0  0  0  0  0  0  0  0
   14.0299    0.3435   22.3904 O   0  0  0  0  0  0  0  0  0  0  0  0
    5.9779   -4.4563   21.5617 H   0  0  0  0  0  0  0  0  0  0  0  0
    8.2928   -3.6308   21.8289 H   0  0  0  0  0  0  0  0  0  0  0  0
    5.9342   -5.8293   25.6541 H   0  0  0  0  0  0  0  0  0  0  0  0
   10.7817   -4.0755   26.1399 H   0  0  0  0  0  0  0  0  0  0  0  0
   11.4003    0.6322   24.4771 H   0  0  0  0  0  0  0  0  0  0  0  0
   11.4155    0.9455   22.7325 H   0  0  0  0  0  0  0  0  0  0  0  0
   12.0221   -1.0059   21.1699 H   0  0  0  0  0  0  0  0  0  0  0  0
   12.4162   -2.5691   21.8989 H   0  0  0  0  0  0  0  0  0  0  0  0
   13.5066    1.7971   23.7336 H   0  0  0  0  0  0  0  0  0  0  0  0
   13.8665    0.2225   24.4553 H   0  0  0  0  0  0  0  0  0  0  0  0
   14.4400   -1.6012   22.9849 H   0  0  0  0  0  0  0  0  0  0  0  0
   14.4727   -1.2928   21.2434 H   0  0  0  0  0  0  0  0  0  0  0  0
   10.9930   -1.1930   27.6492 H   0  0  0  0  0  0  0  0  0  0  0  0
   10.2233   -0.2377   28.9001 H   0  0  0  0  0  0  0  0  0  0  0  0
   11.1109   -1.6859   29.3254 H   0  0  0  0  0  0  0  0  0  0  0  0
    9.3377   -6.0086   27.7539 H   0  0  0  0  0  0  0  0  0  0  0  0
    7.6202   -6.1429   27.4325 H   0  0  0  0  0  0  0  0  0  0  0  0
   11.6291   -3.7346   23.6566 H   0  0  0  0  0  0  0  0  0  0  0  0
   10.3767   -3.3034   22.4648 H   0  0  0  0  0  0  0  0  0  0  0  0
    7.2997   -3.7554   28.2418 H   0  0  0  0  0  0  0  0  0  0  0  0
    8.0307   -4.7971   29.4767 H   0  0  0  0  0  0  0  0  0  0  0  0
   10.1955   -3.7743   28.8749 H   0  0  0  0  0  0  0  0  0  0  0  0
  1  6  1  0  0  0  0
  1 20  3  0  0  0  0
  2  3  2  0  0  0  0
  2  6  1  0  0  0  0
  3  9  1  0  0  0  0
  4  6  2  0  0  0  0
  4  7  1  0  0  0  0
  5  8  2  0  0  0  0
  5 21  1  0  0  0  0
  7  8  1  0  0  0  0
  7  9  2  0  0  0  0
  8 17  1  0  0  0  0
  9 21  1  0  0  0  0
 10 18  1  0  0  0  0
 10 22  1  0  0  0  0
 10 24  2  0  0  0  0
 11 16  1  0  0  0  0
 11 23  1  0  0  0  0
 11 25  2  0  0  0  0
 12 14  1  0  0  0  0
 12 22  1  0  0  0  0
 13 15  1  0  0  0  0
 13 22  1  0  0  0  0
 14 26  1  0  0  0  0
 15 26  1  0  0  0  0
 17 19  1  0  0  0  0
 18 21  1  0  0  0  0
 19 23  1  0  0  0  0
  2 27  1  0  0  0  0
  3 28  1  0  0  0  0
  4 29  1  0  0  0  0
  5 30  1  0  0  0  0
 12 31  1  0  0  0  0
 12 32  1  0  0  0  0
 13 33  1  0  0  0  0
 13 34  1  0  0  0  0
 14 35  1  0  0  0  0
 14 36  1  0  0  0  0
 15 37  1  0  0  0  0
 15 38  1  0  0  0  0
 16 39  1  0  0  0  0
 16 40  1  0  0  0  0
 16 41  1  0  0  0  0
 17 42  1  0  0  0  0
 17 43  1  0  0  0  0
 18 44  1  0  0  0  0
 18 45  1  0  0  0  0
 19 46  1  0  0  0  0
 19 47  1  0  0  0  0
 23 48  1  0  0  0  0
M  END
> <Chemgauss4 Score>
-5.4958667755127

> <Number of Confs>
200

$$$$
JOH-MEM-5e3-4
  -OEChem-03242005443D

 31 33  0     0  0  0  0  0  0999 V2000
    9.3816   -2.0710   22.2056 C   0  0  0  0  0  0  0  0  0  0  0  0
   10.6328   -1.5259   21.9024 C   0  0  0  0  0  0  0  0  0  0  0  0
   11.6694   -2.7033   23.7584 C   0  0  0  0  0  0  0  0  0  0  0  0
   10.4221   -3.2662   24.0864 C   0  0  0  0  0  0  0  0  0  0  0  0
    9.9580   -4.1470   25.0780 C   0  0  0  0  0  0  0  0  0  0  0  0
    9.2974   -2.9384   23.3010 C   0  0  0  0  0  0  0  0  0  0  0  0
   11.7584   -1.8354   22.6642 C   0  0  0  0  0  0  0  0  0  0  0  0
    8.6220   -4.3268   24.8816 C   0  0  0  0  0  0  0  0  0  0  0  0
    6.7067   -5.4940   25.7790 C   0  0  0  0  0  0  0  0  0  0  0  0
   10.4404   -4.9269   26.2443 C   0  0  0  0  0  0  0  0  0  0  0  0
    9.1213   -5.6335   26.7335 C   0  0  0  0  0  0  0  0  0  0  0  0
    5.8147   -4.4076   25.2323 C   0  0  0  0  0  0  0  0  0  0  0  0
   12.9938   -0.4094   21.2163 C   0  0  0  0  0  0  0  0  0  0  0  0
    8.1973   -3.6113   23.8193 N   0  0  0  0  0  0  0  0  0  0  0  0
    8.0475   -5.1736   25.7938 N   0  0  0  0  0  0  0  0  0  0  0  0
    6.2214   -6.5578   26.1654 O   0  0  0  0  0  0  0  0  0  0  0  0
   12.9633   -1.2860   22.3404 O   0  0  0  0  0  0  0  0  0  0  0  0
    8.5084   -1.8271   21.6097 H   0  0  0  0  0  0  0  0  0  0  0  0
   10.7215   -0.8492   21.0554 H   0  0  0  0  0  0  0  0  0  0  0  0
   12.5523   -2.9387   24.3465 H   0  0  0  0  0  0  0  0  0  0  0  0
   11.1911   -5.6663   25.9504 H   0  0  0  0  0  0  0  0  0  0  0  0
   10.8439   -4.2748   27.0243 H   0  0  0  0  0  0  0  0  0  0  0  0
    9.2001   -6.7242   26.6809 H   0  0  0  0  0  0  0  0  0  0  0  0
    8.8555   -5.3381   27.7536 H   0  0  0  0  0  0  0  0  0  0  0  0
    5.7085   -4.5417   24.1610 H   0  0  0  0  0  0  0  0  0  0  0  0
    6.2619   -3.4415   25.4428 H   0  0  0  0  0  0  0  0  0  0  0  0
    4.8436   -4.4708   25.7125 H   0  0  0  0  0  0  0  0  0  0  0  0
   14.0120   -0.0417   21.0676 H   0  0  0  0  0  0  0  0  0  0  0  0
   12.3137    0.4287   21.3881 H   0  0  0  0  0  0  0  0  0  0  0  0
   12.6740   -0.9593   20.3280 H   0  0  0  0  0  0  0  0  0  0  0  0
    7.2548   -3.5639   23.4557 H   0  0  0  0  0  0  0  0  0  0  0  0
  1  2  2  0  0  0  0
  1  6  1  0  0  0  0
  2  7  1  0  0  0  0
  3  4  1  0  0  0  0
  3  7  2  0  0  0  0
  4  5  1  0  0  0  0
  4  6  2  0  0  0  0
  5  8  2  0  0  0  0
  5 10  1  0  0  0  0
  6 14  1  0  0  0  0
  7 17  1  0  0  0  0
  8 14  1  0  0  0  0
  8 15  1  0  0  0  0
  9 12  1  0  0  0  0
  9 15  1  0  0  0  0
  9 16  2  0  0  0  0
 10 11  1  0  0  0  0
 11 15  1  0  0  0  0
 13 17  1  0  0  0  0
  1 18  1  0  0  0  0
  2 19  1  0  0  0  0
  3 20  1  0  0  0  0
 10 21  1  0  0  0  0
 10 22  1  0  0  0  0
 11 23  1  0  0  0  0
 11 24  1  0  0  0  0
 12 25  1  0  0  0  0
 12 26  1  0  0  0  0
 12 27  1  0  0  0  0
 13 28  1  0  0  0  0
 13 29  1  0  0  0  0
 13 30  1  0  0  0  0
 14 31  1  0  0  0  0
M  END
> <Chemgauss4 Score>
-5.49479913711548

> <Number of Confs>
4

$$$$
SAL-INS-1c7-8
  -OEChem-03242005443D

 43 45  0     1  0  0  0  0  0999 V2000
    7.1882   -4.8416   28.8021 C   0  0  0  0  0  0  0  0  0  0  0  0
    8.4171   -4.2475   28.5153 C   0  0  0  0  0  0  0  0  0  0  0  0
    6.5142   -5.5612   27.8154 C   0  0  0  0  0  0  0  0  0  0  0  0
    8.9721   -4.3730   27.2417 C   0  0  0  0  0  0  0  0  0  0  0  0
    7.0691   -5.6867   26.5418 C   0  0  0  0  0  0  0  0  0  0  0  0
    7.2034   -2.9961   22.3164 C   0  0  0  0  0  0  0  0  0  0  0  0
    6.3193   -3.8970   21.7229 C   0  0  0  0  0  0  0  0  0  0  0  0
    7.1235   -5.6471   23.1815 C   0  0  0  0  0  0  0  0  0  0  0  0
    8.2981   -5.0926   26.2550 C   0  0  0  0  0  0  0  0  0  0  0  0
    8.0076   -4.7462   23.7750 C   0  0  0  0  0  0  0  0  0  0  0  0
    8.0477   -3.4207   23.3424 C   0  0  0  0  0  0  0  0  0  0  0  0
    6.2793   -5.2225   22.1554 C   0  0  0  0  0  0  0  0  0  0  0  0
   11.1887   -1.8661   24.6213 C   0  0  0  0  0  0  0  0  0  0  0  0
   12.0317   -0.8620   24.3611 C   0  0  0  0  0  0  0  0  0  0  0  0
    8.4651   -1.7423   25.0749 C   0  0  0  0  0  0  0  0  0  0  0  0
   10.4183   -1.3108   22.3757 C   0  0  0  0  0  0  0  0  0  0  0  0
   10.3223   -2.3475   23.4938 C   0  0  2  0  0  0  0  0  0  0  0  0
    8.8999   -5.2290   24.8721 C   0  0  0  0  0  0  0  0  0  0  0  0
    6.9923   -1.9705   25.3661 C   0  0  0  0  0  0  0  0  0  0  0  0
    8.9574   -2.4702   23.9454 N   0  0  0  0  0  0  0  0  0  0  0  0
    9.1187   -0.9577   25.7671 O   0  0  0  0  0  0  0  0  0  0  0  0
   12.9930   -0.9258   21.9454 O   0  0  0  0  0  0  0  0  0  0  0  0
   11.5719    1.0487   22.6481 O   0  0  0  0  0  0  0  0  0  0  0  0
    5.4298   -6.0874   21.5858 F   0  0  0  0  0  0  0  0  0  0  0  0
   11.9011   -0.3607   22.7126 S   0  0  0  0  0  0  0  0  0  0  0  0
    6.0042   -0.8012   24.4652 Cl  0  0  0  0  0  0  0  0  0  0  0  0
    6.7568   -4.7449   29.7942 H   0  0  0  0  0  0  0  0  0  0  0  0
    8.9426   -3.6880   29.2837 H   0  0  0  0  0  0  0  0  0  0  0  0
    5.5579   -6.0248   28.0387 H   0  0  0  0  0  0  0  0  0  0  0  0
    9.9301   -3.9065   27.0272 H   0  0  0  0  0  0  0  0  0  0  0  0
    6.5368   -6.2491   25.7793 H   0  0  0  0  0  0  0  0  0  0  0  0
    7.2257   -1.9655   21.9705 H   0  0  0  0  0  0  0  0  0  0  0  0
    5.6621   -3.5668   20.9239 H   0  0  0  0  0  0  0  0  0  0  0  0
    7.0831   -6.6817   23.5118 H   0  0  0  0  0  0  0  0  0  0  0  0
   11.1270   -2.3179   25.6041 H   0  0  0  0  0  0  0  0  0  0  0  0
   12.7032   -0.4022   25.0737 H   0  0  0  0  0  0  0  0  0  0  0  0
   10.5635   -1.8057   21.4079 H   0  0  0  0  0  0  0  0  0  0  0  0
    9.5551   -0.6415   22.3075 H   0  0  0  0  0  0  0  0  0  0  0  0
   10.6318   -3.3297   23.1259 H   0  0  0  0  0  0  0  0  0  0  0  0
    9.8644   -4.6940   24.8460 H   0  0  0  0  0  0  0  0  0  0  0  0
    9.1788   -6.2831   24.7041 H   0  0  0  0  0  0  0  0  0  0  0  0
    6.7027   -2.9760   25.0510 H   0  0  0  0  0  0  0  0  0  0  0  0
    6.7712   -1.8176   26.4251 H   0  0  0  0  0  0  0  0  0  0  0  0
  1  2  1  0  0  0  0
  1  3  2  0  0  0  0
  2  4  2  0  0  0  0
  3  5  1  0  0  0  0
  4  9  1  0  0  0  0
  5  9  2  0  0  0  0
  6  7  2  0  0  0  0
  6 11  1  0  0  0  0
  7 12  1  0  0  0  0
  8 10  1  0  0  0  0
  8 12  2  0  0  0  0
  9 18  1  0  0  0  0
 10 11  2  0  0  0  0
 10 18  1  0  0  0  0
 11 20  1  0  0  0  0
 12 24  1  0  0  0  0
 13 14  2  0  0  0  0
 13 17  1  0  0  0  0
 14 25  1  0  0  0  0
 15 19  1  0  0  0  0
 15 20  1  0  0  0  0
 15 21  2  0  0  0  0
 16 17  1  0  0  0  0
 16 25  1  0  0  0  0
 17 20  1  1  0  0  0
 19 26  1  0  0  0  0
 22 25  2  0  0  0  0
 23 25  2  0  0  0  0
  1 27  1  0  0  0  0
  2 28  1  0  0  0  0
  3 29  1  0  0  0  0
  4 30  1  0  0  0  0
  5 31  1  0  0  0  0
  6 32  1  0  0  0  0
  7 33  1  0  0  0  0
  8 34  1  0  0  0  0
 13 35  1  0  0  0  0
 14 36  1  0  0  0  0
 16 37  1  0  0  0  0
 16 38  1  0  0  0  0
 17 39  1  0  0  0  0
 18 40  1  0  0  0  0
 18 41  1  0  0  0  0
 19 42  1  0  0  0  0
 19 43  1  0  0  0  0
M  END
> <Chemgauss4 Score>
-5.49371385574341

> <Number of Confs>
142

$$$$
MIH-UNI-6b9-7
  -OEChem-03242005443D

 37 39  0     1  0  0  0  0  0999 V2000
    6.3765   -4.3127   28.0742 C   0  0  0  0  0  0  0  0  0  0  0  0
    7.3542   -3.5083   27.4994 C   0  0  0  0  0  0  0  0  0  0  0  0
   12.1017    0.2092   23.0477 C   0  0  0  0  0  0  0  0  0  0  0  0
    6.4937   -5.6849   27.9222 C   0  0  0  0  0  0  0  0  0  0  0  0
    8.4309   -5.4746   26.7053 C   0  0  0  0  0  0  0  0  0  0  0  0
   13.1416    0.6484   22.2582 C   0  0  0  0  0  0  0  0  0  0  0  0
   12.5494   -1.6920   21.7877 C   0  0  0  0  0  0  0  0  0  0  0  0
   11.7587   -1.1467   22.7753 C   0  0  0  0  0  0  0  0  0  0  0  0
    8.4044   -4.0926   26.8000 C   0  0  0  0  0  0  0  0  0  0  0  0
   11.1834   -3.1133   24.2663 C   0  0  0  0  0  0  0  0  0  0  0  0
    9.5348   -2.3461   22.5326 C   0  0  0  0  0  0  0  0  0  0  0  0
   10.6511   -1.8994   23.4898 C   0  0  2  0  0  0  0  0  0  0  0  0
   10.0564   -3.9177   24.9219 C   0  0  1  0  0  0  0  0  0  0  0  0
    8.4568   -3.1275   23.2927 C   0  0  1  0  0  0  0  0  0  0  0  0
    9.4777   -3.2500   26.1675 C   0  0  0  0  0  0  0  0  0  0  0  0
    7.4993   -6.2887   27.2502 N   0  0  0  0  0  0  0  0  0  0  0  0
    7.4235   -3.5787   22.3602 N   0  0  0  0  0  0  0  0  0  0  0  0
    9.0338   -4.2431   23.9758 O   0  0  0  0  0  0  0  0  0  0  0  0
   13.6998   -0.5713   21.1937 S   0  0  0  0  0  0  0  0  0  0  0  0
    5.5489   -3.8792   28.6241 H   0  0  0  0  0  0  0  0  0  0  0  0
    7.2899   -2.4285   27.6015 H   0  0  0  0  0  0  0  0  0  0  0  0
   11.6129    0.8344   23.7842 H   0  0  0  0  0  0  0  0  0  0  0  0
    5.7566   -6.3555   28.3515 H   0  0  0  0  0  0  0  0  0  0  0  0
    9.2258   -5.9869   26.1721 H   0  0  0  0  0  0  0  0  0  0  0  0
   13.5997    1.6274   22.2550 H   0  0  0  0  0  0  0  0  0  0  0  0
   12.5091   -2.6938   21.3829 H   0  0  0  0  0  0  0  0  0  0  0  0
   11.7106   -3.7735   23.5633 H   0  0  0  0  0  0  0  0  0  0  0  0
   11.9216   -2.8027   25.0160 H   0  0  0  0  0  0  0  0  0  0  0  0
    9.0968   -1.4736   22.0305 H   0  0  0  0  0  0  0  0  0  0  0  0
    9.9696   -2.9829   21.7489 H   0  0  0  0  0  0  0  0  0  0  0  0
   10.2168   -1.1814   24.2156 H   0  0  0  0  0  0  0  0  0  0  0  0
   10.4795   -4.8782   25.2444 H   0  0  0  0  0  0  0  0  0  0  0  0
    7.9685   -2.4748   24.0309 H   0  0  0  0  0  0  0  0  0  0  0  0
    9.0732   -2.2686   25.9000 H   0  0  0  0  0  0  0  0  0  0  0  0
   10.2809   -3.0653   26.8882 H   0  0  0  0  0  0  0  0  0  0  0  0
    7.6750   -3.2748   21.4501 H   0  0  0  0  0  0  0  0  0  0  0  0
    7.3818   -4.5688   22.4019 H   0  0  0  0  0  0  0  0  0  0  0  0
  1  2  2  0  0  0  0
  1  4  1  0  0  0  0
  2  9  1  0  0  0  0
  3  6  2  0  0  0  0
  3  8  1  0  0  0  0
  4 16  2  0  0  0  0
  5  9  2  0  0  0  0
  5 16  1  0  0  0  0
  6 19  1  0  0  0  0
  7  8  2  0  0  0  0
  7 19  1  0  0  0  0
  8 12  1  0  0  0  0
  9 15  1  0  0  0  0
 10 12  1  0  0  0  0
 10 13  1  0  0  0  0
 11 12  1  0  0  0  0
 11 14  1  0  0  0  0
 13 15  1  0  0  0  0
 13 18  1  0  0  0  0
 14 17  1  0  0  0  0
 14 18  1  0  0  0  0
  1 20  1  0  0  0  0
  2 21  1  0  0  0  0
  3 22  1  0  0  0  0
  4 23  1  0  0  0  0
  5 24  1  0  0  0  0
  6 25  1  0  0  0  0
  7 26  1  0  0  0  0
 10 27  1  0  0  0  0
 10 28  1  0  0  0  0
 11 29  1  0  0  0  0
 11 30  1  0  0  0  0
 12 31  1  1  0  0  0
 13 32  1  6  0  0  0
 14 33  1  6  0  0  0
 15 34  1  0  0  0  0
 15 35  1  0  0  0  0
 17 36  1  0  0  0  0
 17 37  1  0  0  0  0
M  END
> <Chemgauss4 Score>
-5.49370193481445

> <Number of Confs>
96

$$$$
DAN-LON-a5f-6
  -OEChem-03242005443D

 44 46  0     1  0  0  0  0  0999 V2000
    4.6285   -5.7433   23.2425 C   0  0  0  0  0  0  0  0  0  0  0  0
    4.5825   -4.3516   23.3223 C   0  0  0  0  0  0  0  0  0  0  0  0
    5.7781   -6.4271   23.6384 C   0  0  0  0  0  0  0  0  0  0  0  0
   10.6980    1.6929   22.6847 C   0  0  0  0  0  0  0  0  0  0  0  0
    5.6862   -3.6434   23.7979 C   0  0  0  0  0  0  0  0  0  0  0  0
    6.8817   -5.7190   24.1140 C   0  0  0  0  0  0  0  0  0  0  0  0
   11.1838    0.4510   23.0936 C   0  0  0  0  0  0  0  0  0  0  0  0
    9.5907    1.7648   21.8395 C   0  0  0  0  0  0  0  0  0  0  0  0
    9.4551   -0.6472   21.8119 C   0  0  0  0  0  0  0  0  0  0  0  0
    6.8358   -4.3271   24.1938 C   0  0  0  0  0  0  0  0  0  0  0  0
   10.5624   -0.7190   22.6572 C   0  0  0  0  0  0  0  0  0  0  0  0
    8.9693    0.5948   21.4030 C   0  0  0  0  0  0  0  0  0  0  0  0
    8.1196   -4.3393   27.0655 C   0  0  0  0  0  0  0  0  0  0  0  0
   10.0724   -4.7668   25.5009 C   0  0  0  0  0  0  0  0  0  0  0  0
   10.9718   -3.6960   24.8682 C   0  0  0  0  0  0  0  0  0  0  0  0
    8.9934   -3.1823   23.5578 C   0  0  0  0  0  0  0  0  0  0  0  0
    8.0391   -3.5559   24.7121 C   0  0  2  0  0  0  0  0  0  0  0  0
   11.0866   -2.0555   23.0967 C   0  0  0  0  0  0  0  0  0  0  0  0
    8.8987   -5.0244   28.1591 C   0  0  0  0  0  0  0  0  0  0  0  0
    8.7373   -4.2498   25.8149 N   0  0  0  0  0  0  0  0  0  0  0  0
   10.2416   -2.6643   24.1187 N   0  0  2  0  0  0  0  0  0  0  0  0
    6.9939   -3.8976   27.3106 O   0  0  0  0  0  0  0  0  0  0  0  0
    7.6038    0.6841   20.3593 Cl  0  0  0  0  0  0  0  0  0  0  0  0
    7.9008   -4.9565   29.6074 Cl  0  0  0  0  0  0  0  0  0  0  0  0
    3.7686   -6.2947   22.8734 H   0  0  0  0  0  0  0  0  0  0  0  0
    3.6872   -3.8191   23.0151 H   0  0  0  0  0  0  0  0  0  0  0  0
    5.8138   -7.5107   23.5775 H   0  0  0  0  0  0  0  0  0  0  0  0
   11.1822    2.6038   23.0247 H   0  0  0  0  0  0  0  0  0  0  0  0
    5.6414   -2.5591   23.8564 H   0  0  0  0  0  0  0  0  0  0  0  0
    7.7731   -6.2601   24.4202 H   0  0  0  0  0  0  0  0  0  0  0  0
   12.0471    0.4045   23.7522 H   0  0  0  0  0  0  0  0  0  0  0  0
    9.2231    2.7397   21.5286 H   0  0  0  0  0  0  0  0  0  0  0  0
    8.9738   -1.5623   21.4748 H   0  0  0  0  0  0  0  0  0  0  0  0
    9.9203   -5.5891   24.7903 H   0  0  0  0  0  0  0  0  0  0  0  0
   10.5721   -5.1922   26.3733 H   0  0  0  0  0  0  0  0  0  0  0  0
   11.5414   -3.1946   25.6599 H   0  0  0  0  0  0  0  0  0  0  0  0
   11.6988   -4.2135   24.2286 H   0  0  0  0  0  0  0  0  0  0  0  0
    9.1876   -4.0388   22.8968 H   0  0  0  0  0  0  0  0  0  0  0  0
    8.5034   -2.4149   22.9438 H   0  0  0  0  0  0  0  0  0  0  0  0
    7.6328   -2.6084   25.1516 H   0  0  0  0  0  0  0  0  0  0  0  0
   11.1412   -2.7468   22.2486 H   0  0  0  0  0  0  0  0  0  0  0  0
   12.0974   -1.9652   23.5082 H   0  0  0  0  0  0  0  0  0  0  0  0
    9.8259   -4.4862   28.3206 H   0  0  0  0  0  0  0  0  0  0  0  0
    9.0717   -6.0560   27.8743 H   0  0  0  0  0  0  0  0  0  0  0  0
  1  2  1  0  0  0  0
  1  3  2  0  0  0  0
  2  5  2  0  0  0  0
  3  6  1  0  0  0  0
  4  7  2  0  0  0  0
  4  8  1  0  0  0  0
  5 10  1  0  0  0  0
  6 10  2  0  0  0  0
  7 11  1  0  0  0  0
  8 12  2  0  0  0  0
  9 11  2  0  0  0  0
  9 12  1  0  0  0  0
 10 17  1  1  0  0  0
 11 18  1  0  0  0  0
 12 23  1  0  0  0  0
 13 19  1  0  0  0  0
 13 20  1  0  0  0  0
 13 22  2  0  0  0  0
 14 15  1  0  0  0  0
 14 20  1  0  0  0  0
 15 21  1  0  0  0  0
 16 17  1  0  0  0  0
 16 21  1  0  0  0  0
 17 20  1  0  0  0  0
 18 21  1  1  0  0  0
 19 24  1  0  0  0  0
  1 25  1  0  0  0  0
  2 26  1  0  0  0  0
  3 27  1  0  0  0  0
  4 28  1  0  0  0  0
  5 29  1  0  0  0  0
  6 30  1  0  0  0  0
  7 31  1  0  0  0  0
  8 32  1  0  0  0  0
  9 33  1  0  0  0  0
 14 34  1  0  0  0  0
 14 35  1  0  0  0  0
 15 36  1  0  0  0  0
 15 37  1  0  0  0  0
 16 38  1  0  0  0  0
 16 39  1  0  0  0  0
 17 40  1  0  0  0  0
 18 41  1  0  0  0  0
 18 42  1  0  0  0  0
 19 43  1  0  0  0  0
 19 44  1  0  0  0  0
M  END
> <Chemgauss4 Score>
-5.49272108078003

> <Number of Confs>
70

$$$$
PAU-WEI-b9b-3
  -OEChem-03242005443D

 53 55  0     1  0  0  0  0  0999 V2000
   10.5949    0.3728   23.8452 C   0  0  0  0  0  0  0  0  0  0  0  0
    9.6080   -0.6107   23.7799 C   0  0  0  0  0  0  0  0  0  0  0  0
   10.0283   -4.5284   27.8895 C   0  0  0  0  0  0  0  0  0  0  0  0
    7.8769   -5.1521   26.9842 C   0  0  0  0  0  0  0  0  0  0  0  0
   10.5581   -4.4838   26.6000 C   0  0  0  0  0  0  0  0  0  0  0  0
    8.4067   -5.1074   25.6946 C   0  0  0  0  0  0  0  0  0  0  0  0
   11.8465    0.1440   23.2733 C   0  0  0  0  0  0  0  0  0  0  0  0
   11.1241   -2.0519   22.5709 C   0  0  0  0  0  0  0  0  0  0  0  0
    8.6877   -4.8626   28.0816 C   0  0  0  0  0  0  0  0  0  0  0  0
    9.7472   -4.7732   25.5025 C   0  0  0  0  0  0  0  0  0  0  0  0
    9.8726   -1.8231   23.1428 C   0  0  0  0  0  0  0  0  0  0  0  0
   12.1111   -1.0684   22.6362 C   0  0  0  0  0  0  0  0  0  0  0  0
    6.4451   -0.0245   18.9584 C   0  0  0  0  0  0  0  0  0  0  0  0
    5.9947   -1.3397   21.0852 C   0  0  0  0  0  0  0  0  0  0  0  0
    7.8002   -2.0063   19.5490 C   0  0  0  0  0  0  0  0  0  0  0  0
    6.9384   -1.5938   22.2621 C   0  0  0  0  0  0  0  0  0  0  0  0
    8.7105   -2.2415   20.7538 C   0  0  0  0  0  0  0  0  0  0  0  0
    8.1205   -4.9105   29.4600 C   0  0  0  0  0  0  0  0  0  0  0  0
   10.3201   -4.7231   24.1089 C   0  0  0  0  0  0  0  0  0  0  0  0
    5.2517    0.8370   19.2861 C   0  0  0  0  0  0  0  0  0  0  0  0
    9.3268   -4.3402   22.9993 C   0  0  0  0  0  0  0  0  0  0  0  0
    8.8015   -2.8903   23.0734 C   0  0  2  0  0  0  0  0  0  0  0  0
    6.7448   -1.0438   19.8611 N   0  0  0  0  0  0  0  0  0  0  0  0
    7.9238   -2.6339   21.9322 N   0  0  0  0  0  0  0  0  0  0  0  0
    7.0925    0.2049   17.9336 O   0  0  0  0  0  0  0  0  0  0  0  0
   13.6557   -1.3505   21.9319 Cl  0  0  0  0  0  0  0  0  0  0  0  0
    5.8442    2.1593   20.2852 Cl  0  0  0  0  0  0  0  0  0  0  0  0
   10.3885    1.3166   24.3415 H   0  0  0  0  0  0  0  0  0  0  0  0
    8.6357   -0.4239   24.2283 H   0  0  0  0  0  0  0  0  0  0  0  0
   10.6676   -4.3020   28.7388 H   0  0  0  0  0  0  0  0  0  0  0  0
    6.8310   -5.4122   27.1248 H   0  0  0  0  0  0  0  0  0  0  0  0
   11.6031   -4.2209   26.4596 H   0  0  0  0  0  0  0  0  0  0  0  0
    7.7680   -5.3345   24.8450 H   0  0  0  0  0  0  0  0  0  0  0  0
   12.6062    0.9195   23.3321 H   0  0  0  0  0  0  0  0  0  0  0  0
   11.3253   -2.9986   22.0749 H   0  0  0  0  0  0  0  0  0  0  0  0
    5.3883   -2.2309   20.8810 H   0  0  0  0  0  0  0  0  0  0  0  0
    5.3064   -0.5329   21.3444 H   0  0  0  0  0  0  0  0  0  0  0  0
    8.3963   -1.6648   18.6964 H   0  0  0  0  0  0  0  0  0  0  0  0
    7.3081   -2.9400   19.2497 H   0  0  0  0  0  0  0  0  0  0  0  0
    7.4354   -0.6559   22.5438 H   0  0  0  0  0  0  0  0  0  0  0  0
    6.3361   -1.9148   23.1206 H   0  0  0  0  0  0  0  0  0  0  0  0
    9.4171   -3.0403   20.4983 H   0  0  0  0  0  0  0  0  0  0  0  0
    9.2987   -1.3362   20.9552 H   0  0  0  0  0  0  0  0  0  0  0  0
    7.7175   -3.9300   29.7416 H   0  0  0  0  0  0  0  0  0  0  0  0
    7.3145   -5.6522   29.5338 H   0  0  0  0  0  0  0  0  0  0  0  0
    8.8838   -5.1971   30.1953 H   0  0  0  0  0  0  0  0  0  0  0  0
   10.7251   -5.7195   23.8875 H   0  0  0  0  0  0  0  0  0  0  0  0
   11.1795   -4.0416   24.0749 H   0  0  0  0  0  0  0  0  0  0  0  0
    4.5325    0.2449   19.8404 H   0  0  0  0  0  0  0  0  0  0  0  0
    4.8347    1.2249   18.3638 H   0  0  0  0  0  0  0  0  0  0  0  0
    8.4986   -5.0574   22.9516 H   0  0  0  0  0  0  0  0  0  0  0  0
    9.8637   -4.4514   22.0463 H   0  0  0  0  0  0  0  0  0  0  0  0
    8.1503   -2.8105   23.9530 H   0  0  0  0  0  0  0  0  0  0  0  0
  1  2  2  0  0  0  0
  1  7  1  0  0  0  0
  2 11  1  0  0  0  0
  3  5  2  0  0  0  0
  3  9  1  0  0  0  0
  4  6  1  0  0  0  0
  4  9  2  0  0  0  0
  5 10  1  0  0  0  0
  6 10  2  0  0  0  0
  7 12  2  0  0  0  0
  8 11  2  0  0  0  0
  8 12  1  0  0  0  0
  9 18  1  0  0  0  0
 10 19  1  0  0  0  0
 11 22  1  0  0  0  0
 12 26  1  0  0  0  0
 13 20  1  0  0  0  0
 13 23  1  0  0  0  0
 13 25  2  0  0  0  0
 14 16  1  0  0  0  0
 14 23  1  0  0  0  0
 15 17  1  0  0  0  0
 15 23  1  0  0  0  0
 16 24  1  0  0  0  0
 17 24  1  0  0  0  0
 19 21  1  0  0  0  0
 20 27  1  0  0  0  0
 21 22  1  1  0  0  0
 22 24  1  0  0  0  0
  1 28  1  0  0  0  0
  2 29  1  0  0  0  0
  3 30  1  0  0  0  0
  4 31  1  0  0  0  0
  5 32  1  0  0  0  0
  6 33  1  0  0  0  0
  7 34  1  0  0  0  0
  8 35  1  0  0  0  0
 14 36  1  0  0  0  0
 14 37  1  0  0  0  0
 15 38  1  0  0  0  0
 15 39  1  0  0  0  0
 16 40  1  0  0  0  0
 16 41  1  0  0  0  0
 17 42  1  0  0  0  0
 17 43  1  0  0  0  0
 18 44  1  0  0  0  0
 18 45  1  0  0  0  0
 18 46  1  0  0  0  0
 19 47  1  0  0  0  0
 19 48  1  0  0  0  0
 20 49  1  0  0  0  0
 20 50  1  0  0  0  0
 21 51  1  0  0  0  0
 21 52  1  0  0  0  0
 22 53  1  0  0  0  0
M  END
> <Chemgauss4 Score>
-5.48661756515503

> <Number of Confs>
200

$$$$
CAR-INS-33b-3
  -OEChem-03242005443D

 45 48  0     0  0  0  0  0  0999 V2000
   13.3209   -1.3941   21.1999 C   0  0  0  0  0  0  0  0  0  0  0  0
   11.9453   -1.1719   21.2620 C   0  0  0  0  0  0  0  0  0  0  0  0
   14.0854   -1.3656   22.3663 C   0  0  0  0  0  0  0  0  0  0  0  0
   11.3341   -0.9212   22.4905 C   0  0  0  0  0  0  0  0  0  0  0  0
   13.4742   -1.1148   23.5948 C   0  0  0  0  0  0  0  0  0  0  0  0
    6.1743   -6.0157   23.6326 C   0  0  0  0  0  0  0  0  0  0  0  0
    5.4568   -5.9911   22.4440 C   0  0  0  0  0  0  0  0  0  0  0  0
    4.5426   -3.8823   22.8237 C   0  0  0  0  0  0  0  0  0  0  0  0
    6.1006   -3.2577   26.0208 C   0  0  0  0  0  0  0  0  0  0  0  0
    6.0504   -4.8855   24.4530 C   0  0  0  0  0  0  0  0  0  0  0  0
   12.0985   -0.8926   23.6569 C   0  0  0  0  0  0  0  0  0  0  0  0
    6.5920   -4.5057   25.7127 C   0  0  0  0  0  0  0  0  0  0  0  0
    5.2323   -3.8373   24.0282 C   0  0  0  0  0  0  0  0  0  0  0  0
    7.5193   -5.2722   26.5781 C   0  0  0  0  0  0  0  0  0  0  0  0
   11.4552   -0.6286   24.9497 C   0  0  0  0  0  0  0  0  0  0  0  0
    8.4625   -4.5353   27.4428 C   0  0  0  0  0  0  0  0  0  0  0  0
    9.7898   -1.2774   26.6585 C   0  0  0  0  0  0  0  0  0  0  0  0
    9.9784   -2.6839   24.6443 C   0  0  0  0  0  0  0  0  0  0  0  0
    9.8773   -2.5184   27.5377 C   0  0  0  0  0  0  0  0  0  0  0  0
   10.0355   -3.9370   25.5197 C   0  0  0  0  0  0  0  0  0  0  0  0
    4.6642   -4.9743   22.0338 N   0  0  0  0  0  0  0  0  0  0  0  0
    5.2805   -2.8629   24.9976 N   0  0  0  0  0  0  0  0  0  0  0  0
   10.4589   -1.5072   25.3788 N   0  0  0  0  0  0  0  0  0  0  0  0
    9.3969   -3.7075   26.8258 N   0  0  0  0  0  0  0  0  0  0  0  0
    7.4947   -6.4978   26.5951 O   0  0  0  0  0  0  0  0  0  0  0  0
   11.8490    0.3637   25.5605 O   0  0  0  0  0  0  0  0  0  0  0  0
    8.3686   -4.7015   28.6601 O   0  0  0  0  0  0  0  0  0  0  0  0
   13.7967   -1.5893   20.2434 H   0  0  0  0  0  0  0  0  0  0  0  0
   11.3502   -1.1939   20.3537 H   0  0  0  0  0  0  0  0  0  0  0  0
   15.1564   -1.5388   22.3180 H   0  0  0  0  0  0  0  0  0  0  0  0
   10.2614   -0.7494   22.5274 H   0  0  0  0  0  0  0  0  0  0  0  0
   14.0798   -1.0948   24.4972 H   0  0  0  0  0  0  0  0  0  0  0  0
    6.7913   -6.8652   23.9021 H   0  0  0  0  0  0  0  0  0  0  0  0
    5.5048   -6.8334   21.7602 H   0  0  0  0  0  0  0  0  0  0  0  0
    3.9029   -3.0838   22.4714 H   0  0  0  0  0  0  0  0  0  0  0  0
    6.2585   -2.6133   26.8747 H   0  0  0  0  0  0  0  0  0  0  0  0
    8.7443   -1.0300   26.4435 H   0  0  0  0  0  0  0  0  0  0  0  0
   10.2332   -0.4213   27.1753 H   0  0  0  0  0  0  0  0  0  0  0  0
   10.5589   -2.8530   23.7299 H   0  0  0  0  0  0  0  0  0  0  0  0
    8.9435   -2.4797   24.3333 H   0  0  0  0  0  0  0  0  0  0  0  0
   10.9189   -2.7121   27.8227 H   0  0  0  0  0  0  0  0  0  0  0  0
    9.3124   -2.3524   28.4593 H   0  0  0  0  0  0  0  0  0  0  0  0
    9.5512   -4.7720   25.0049 H   0  0  0  0  0  0  0  0  0  0  0  0
   11.0752   -4.2247   25.7114 H   0  0  0  0  0  0  0  0  0  0  0  0
    4.7832   -1.9838   24.9603 H   0  0  0  0  0  0  0  0  0  0  0  0
  1  2  1  0  0  0  0
  1  3  2  0  0  0  0
  2  4  2  0  0  0  0
  3  5  1  0  0  0  0
  4 11  1  0  0  0  0
  5 11  2  0  0  0  0
  6  7  2  0  0  0  0
  6 10  1  0  0  0  0
  7 21  1  0  0  0  0
  8 13  1  0  0  0  0
  8 21  2  0  0  0  0
  9 12  2  0  0  0  0
  9 22  1  0  0  0  0
 10 12  1  0  0  0  0
 10 13  2  0  0  0  0
 11 15  1  0  0  0  0
 12 14  1  0  0  0  0
 13 22  1  0  0  0  0
 14 16  1  0  0  0  0
 14 25  2  0  0  0  0
 15 23  1  0  0  0  0
 15 26  2  0  0  0  0
 16 24  1  0  0  0  0
 16 27  2  0  0  0  0
 17 19  1  0  0  0  0
 17 23  1  0  0  0  0
 18 20  1  0  0  0  0
 18 23  1  0  0  0  0
 19 24  1  0  0  0  0
 20 24  1  0  0  0  0
  1 28  1  0  0  0  0
  2 29  1  0  0  0  0
  3 30  1  0  0  0  0
  4 31  1  0  0  0  0
  5 32  1  0  0  0  0
  6 33  1  0  0  0  0
  7 34  1  0  0  0  0
  8 35  1  0  0  0  0
  9 36  1  0  0  0  0
 17 37  1  0  0  0  0
 17 38  1  0  0  0  0
 18 39  1  0  0  0  0
 18 40  1  0  0  0  0
 19 41  1  0  0  0  0
 19 42  1  0  0  0  0
 20 43  1  0  0  0  0
 20 44  1  0  0  0  0
 22 45  1  0  0  0  0
M  END
> <Chemgauss4 Score>
-5.47041368484497

> <Number of Confs>
200

$$$$
GIA-UNK-595-3
  -OEChem-03242005443D

 36 37  0     0  0  0  0  0  0999 V2000
   12.6147   -1.7146   21.7412 C   0  0  0  0  0  0  0  0  0  0  0  0
   11.8852   -0.3264   23.5647 C   0  0  0  0  0  0  0  0  0  0  0  0
   13.8744   -1.1577   21.8921 C   0  0  0  0  0  0  0  0  0  0  0  0
   13.1777    0.1683   23.6340 C   0  0  0  0  0  0  0  0  0  0  0  0
   11.6067   -1.2856   22.5974 C   0  0  0  0  0  0  0  0  0  0  0  0
   10.2537   -1.8436   22.4809 C   0  0  0  0  0  0  0  0  0  0  0  0
    7.8580   -5.5796   27.2393 C   0  0  0  0  0  0  0  0  0  0  0  0
   10.4268   -3.7220   25.5200 C   0  0  0  0  0  0  0  0  0  0  0  0
    8.0901   -3.8586   24.5855 C   0  0  0  0  0  0  0  0  0  0  0  0
   10.9609   -3.5746   24.0986 C   0  0  0  0  0  0  0  0  0  0  0  0
    8.6712   -3.7153   23.1827 C   0  0  0  0  0  0  0  0  0  0  0  0
    9.1049   -4.4915   25.5406 C   0  0  0  0  0  0  0  0  0  0  0  0
    7.7149   -4.2863   29.3624 C   0  0  0  0  0  0  0  0  0  0  0  0
   14.1830   -0.2240   22.8197 N   0  0  0  0  0  0  0  0  0  0  0  0
    9.9450   -2.9840   23.2258 N   0  0  0  0  0  0  0  0  0  0  0  0
    7.4231   -5.4379   28.5403 N   0  0  0  0  0  0  0  0  0  0  0  0
    9.4889   -1.2580   21.7159 O   0  0  0  0  0  0  0  0  0  0  0  0
    7.6326   -6.5391   26.5091 O   0  0  0  0  0  0  0  0  0  0  0  0
    8.5897   -4.4822   26.8665 O   0  0  0  0  0  0  0  0  0  0  0  0
   12.4320   -2.4622   20.9766 H   0  0  0  0  0  0  0  0  0  0  0  0
   11.1220    0.0295   24.2486 H   0  0  0  0  0  0  0  0  0  0  0  0
   14.6953   -1.4590   21.2500 H   0  0  0  0  0  0  0  0  0  0  0  0
   13.4463    0.9181   24.3706 H   0  0  0  0  0  0  0  0  0  0  0  0
   11.1635   -4.2376   26.1476 H   0  0  0  0  0  0  0  0  0  0  0  0
   10.2899   -2.7321   25.9748 H   0  0  0  0  0  0  0  0  0  0  0  0
    7.7777   -2.8778   24.9668 H   0  0  0  0  0  0  0  0  0  0  0  0
    7.1810   -4.4707   24.5548 H   0  0  0  0  0  0  0  0  0  0  0  0
   11.8693   -2.9638   24.1036 H   0  0  0  0  0  0  0  0  0  0  0  0
   11.2240   -4.5539   23.6817 H   0  0  0  0  0  0  0  0  0  0  0  0
    8.8761   -4.7018   22.7500 H   0  0  0  0  0  0  0  0  0  0  0  0
    7.9437   -3.2207   22.5343 H   0  0  0  0  0  0  0  0  0  0  0  0
    9.2853   -5.5354   25.2568 H   0  0  0  0  0  0  0  0  0  0  0  0
    8.6536   -4.4547   29.9106 H   0  0  0  0  0  0  0  0  0  0  0  0
    7.8180   -3.3966   28.7237 H   0  0  0  0  0  0  0  0  0  0  0  0
    6.8950   -4.1302   30.0789 H   0  0  0  0  0  0  0  0  0  0  0  0
    6.8664   -6.1853   28.9432 H   0  0  0  0  0  0  0  0  0  0  0  0
  1  3  2  0  0  0  0
  1  5  1  0  0  0  0
  2  4  1  0  0  0  0
  2  5  2  0  0  0  0
  3 14  1  0  0  0  0
  4 14  2  0  0  0  0
  5  6  1  0  0  0  0
  6 15  1  0  0  0  0
  6 17  2  0  0  0  0
  7 16  1  0  0  0  0
  7 18  2  0  0  0  0
  7 19  1  0  0  0  0
  8 10  1  0  0  0  0
  8 12  1  0  0  0  0
  9 11  1  0  0  0  0
  9 12  1  0  0  0  0
 10 15  1  0  0  0  0
 11 15  1  0  0  0  0
 12 19  1  0  0  0  0
 13 16  1  0  0  0  0
  1 20  1  0  0  0  0
  2 21  1  0  0  0  0
  3 22  1  0  0  0  0
  4 23  1  0  0  0  0
  8 24  1  0  0  0  0
  8 25  1  0  0  0  0
  9 26  1  0  0  0  0
  9 27  1  0  0  0  0
 10 28  1  0  0  0  0
 10 29  1  0  0  0  0
 11 30  1  0  0  0  0
 11 31  1  0  0  0  0
 12 32  1  0  0  0  0
 13 33  1  0  0  0  0
 13 34  1  0  0  0  0
 13 35  1  0  0  0  0
 16 36  1  0  0  0  0
M  END
> <Chemgauss4 Score>
-5.47024059295654

> <Number of Confs>
46

$$$$
DUN-NEW-f8c-16
  -OEChem-03242005443D

 48 51  0     0  0  0  0  0  0999 V2000
   12.0116   -3.9804   22.8032 C   0  0  0  0  0  0  0  0  0  0  0  0
    5.9642    0.9787   20.3532 C   0  0  0  0  0  0  0  0  0  0  0  0
   12.9332   -2.9686   22.5101 C   0  0  0  0  0  0  0  0  0  0  0  0
   10.7633   -3.6740   23.3415 C   0  0  0  0  0  0  0  0  0  0  0  0
    6.6369    0.3063   21.3673 C   0  0  0  0  0  0  0  0  0  0  0  0
   13.2519   -0.3811   22.5974 C   0  0  0  0  0  0  0  0  0  0  0  0
    6.3809    0.7690   19.0485 C   0  0  0  0  0  0  0  0  0  0  0  0
    8.0303   -0.6850   19.7144 C   0  0  0  0  0  0  0  0  0  0  0  0
   12.4014    0.6102   23.0298 C   0  0  0  0  0  0  0  0  0  0  0  0
   12.5857   -1.6272   22.7659 C   0  0  0  0  0  0  0  0  0  0  0  0
   11.3280   -1.3499   23.3057 C   0  0  0  0  0  0  0  0  0  0  0  0
    7.6910   -0.5433   21.0503 C   0  0  0  0  0  0  0  0  0  0  0  0
   10.3966   -2.3509   23.6038 C   0  0  0  0  0  0  0  0  0  0  0  0
    8.1707   -1.2007   23.4429 C   0  0  0  0  0  0  0  0  0  0  0  0
    7.9557   -3.9764   25.1496 C   0  0  0  0  0  0  0  0  0  0  0  0
    9.9384   -2.9035   26.2947 C   0  0  0  0  0  0  0  0  0  0  0  0
    7.5865   -4.6857   26.4528 C   0  0  0  0  0  0  0  0  0  0  0  0
    9.5705   -3.6143   27.5979 C   0  0  0  0  0  0  0  0  0  0  0  0
    8.7090   -2.6707   25.4130 C   0  0  0  0  0  0  0  0  0  0  0  0
    8.8039   -4.9130   27.3499 C   0  0  0  0  0  0  0  0  0  0  0  0
    7.4003   -0.0484   18.7018 N   0  0  0  0  0  0  0  0  0  0  0  0
   11.2436    0.0160   23.4554 N   0  0  0  0  0  0  0  0  0  0  0  0
    8.3952   -1.2414   22.0611 N   0  0  0  0  0  0  0  0  0  0  0  0
    9.0839   -2.0436   24.1687 N   0  0  0  0  0  0  0  0  0  0  0  0
    7.2896   -0.5232   23.9743 O   0  0  0  0  0  0  0  0  0  0  0  0
    9.6843   -5.8545   26.7398 O   0  0  0  0  0  0  0  0  0  0  0  0
   12.2743   -5.0168   22.6081 H   0  0  0  0  0  0  0  0  0  0  0  0
    5.1396    1.6459   20.5771 H   0  0  0  0  0  0  0  0  0  0  0  0
   13.9024   -3.2223   22.0903 H   0  0  0  0  0  0  0  0  0  0  0  0
   10.0704   -4.4846   23.5577 H   0  0  0  0  0  0  0  0  0  0  0  0
    6.3319    0.4515   22.4003 H   0  0  0  0  0  0  0  0  0  0  0  0
   14.2463   -0.2254   22.2019 H   0  0  0  0  0  0  0  0  0  0  0  0
    5.8893    1.2707   18.2215 H   0  0  0  0  0  0  0  0  0  0  0  0
    8.8439   -1.3341   19.4045 H   0  0  0  0  0  0  0  0  0  0  0  0
   12.5169    1.6841   23.0722 H   0  0  0  0  0  0  0  0  0  0  0  0
    8.5456   -4.6435   24.5170 H   0  0  0  0  0  0  0  0  0  0  0  0
    7.0372   -3.7495   24.6005 H   0  0  0  0  0  0  0  0  0  0  0  0
   10.3842   -1.9363   26.5386 H   0  0  0  0  0  0  0  0  0  0  0  0
   10.6968   -3.4770   25.7593 H   0  0  0  0  0  0  0  0  0  0  0  0
    6.8350   -4.0975   26.9969 H   0  0  0  0  0  0  0  0  0  0  0  0
    7.0998   -5.6470   26.2357 H   0  0  0  0  0  0  0  0  0  0  0  0
   10.4784   -3.8257   28.1801 H   0  0  0  0  0  0  0  0  0  0  0  0
    8.9703   -2.9456   28.2290 H   0  0  0  0  0  0  0  0  0  0  0  0
    8.0375   -1.9641   25.9118 H   0  0  0  0  0  0  0  0  0  0  0  0
    8.4793   -5.3361   28.3102 H   0  0  0  0  0  0  0  0  0  0  0  0
   10.4424    0.5084   23.8256 H   0  0  0  0  0  0  0  0  0  0  0  0
    9.1521   -1.8423   21.7472 H   0  0  0  0  0  0  0  0  0  0  0  0
    9.1801   -6.6763   26.6307 H   0  0  0  0  0  0  0  0  0  0  0  0
  1  3  1  0  0  0  0
  1  4  2  0  0  0  0
  2  5  2  0  0  0  0
  2  7  1  0  0  0  0
  3 10  2  0  0  0  0
  4 13  1  0  0  0  0
  5 12  1  0  0  0  0
  6  9  2  0  0  0  0
  6 10  1  0  0  0  0
  7 21  2  0  0  0  0
  8 12  2  0  0  0  0
  8 21  1  0  0  0  0
  9 22  1  0  0  0  0
 10 11  1  0  0  0  0
 11 13  2  0  0  0  0
 11 22  1  0  0  0  0
 12 23  1  0  0  0  0
 13 24  1  0  0  0  0
 14 23  1  0  0  0  0
 14 24  1  0  0  0  0
 14 25  2  0  0  0  0
 15 17  1  0  0  0  0
 15 19  1  0  0  0  0
 16 18  1  0  0  0  0
 16 19  1  0  0  0  0
 17 20  1  0  0  0  0
 18 20  1  0  0  0  0
 19 24  1  0  0  0  0
 20 26  1  0  0  0  0
  1 27  1  0  0  0  0
  2 28  1  0  0  0  0
  3 29  1  0  0  0  0
  4 30  1  0  0  0  0
  5 31  1  0  0  0  0
  6 32  1  0  0  0  0
  7 33  1  0  0  0  0
  8 34  1  0  0  0  0
  9 35  1  0  0  0  0
 15 36  1  0  0  0  0
 15 37  1  0  0  0  0
 16 38  1  0  0  0  0
 16 39  1  0  0  0  0
 17 40  1  0  0  0  0
 17 41  1  0  0  0  0
 18 42  1  0  0  0  0
 18 43  1  0  0  0  0
 19 44  1  0  0  0  0
 20 45  1  0  0  0  0
 22 46  1  0  0  0  0
 23 47  1  0  0  0  0
 26 48  1  0  0  0  0
M  END
> <Chemgauss4 Score>
-5.46849775314331

> <Number of Confs>
31

$$$$
ELE-IMP-dfb-6
  -OEChem-03242005443D

 21 22  0     0  0  0  0  0  0999 V2000
   10.0355   -0.5457   24.2409 C   0  0  0  0  0  0  0  0  0  0  0  0
   11.0480   -0.2155   23.3354 C   0  0  0  0  0  0  0  0  0  0  0  0
   11.8947   -2.4914   23.3632 C   0  0  0  0  0  0  0  0  0  0  0  0
   10.5220   -4.0567   24.9348 C   0  0  0  0  0  0  0  0  0  0  0  0
   10.8826   -2.8477   24.2765 C   0  0  0  0  0  0  0  0  0  0  0  0
    9.9782   -1.8687   24.6934 C   0  0  0  0  0  0  0  0  0  0  0  0
   11.9643   -1.1717   22.9020 C   0  0  0  0  0  0  0  0  0  0  0  0
    9.4264   -3.7931   25.7241 C   0  0  0  0  0  0  0  0  0  0  0  0
    9.1056   -2.4709   25.5716 N   0  0  0  0  0  0  0  0  0  0  0  0
    9.3025   -6.3085   26.5970 N   0  0  0  0  0  0  0  0  0  0  0  0
    8.6710   -4.3512   28.1512 O   0  0  0  0  0  0  0  0  0  0  0  0
    7.1469   -4.9451   26.2350 O   0  0  0  0  0  0  0  0  0  0  0  0
   12.9237   -0.8250   22.0329 F   0  0  0  0  0  0  0  0  0  0  0  0
    8.4786   -4.8294   26.7962 S   0  0  0  0  0  0  0  0  0  0  0  0
    9.3226    0.1994   24.5779 H   0  0  0  0  0  0  0  0  0  0  0  0
   11.1205    0.8035   22.9640 H   0  0  0  0  0  0  0  0  0  0  0  0
   12.6156   -3.2265   23.0170 H   0  0  0  0  0  0  0  0  0  0  0  0
   11.0126   -5.0162   24.8406 H   0  0  0  0  0  0  0  0  0  0  0  0
    8.3405   -2.0013   26.0364 H   0  0  0  0  0  0  0  0  0  0  0  0
    9.8693   -6.6501   27.3828 H   0  0  0  0  0  0  0  0  0  0  0  0
    8.8282   -7.0537   26.0725 H   0  0  0  0  0  0  0  0  0  0  0  0
  1  2  2  0  0  0  0
  1  6  1  0  0  0  0
  2  7  1  0  0  0  0
  3  5  1  0  0  0  0
  3  7  2  0  0  0  0
  4  5  1  0  0  0  0
  4  8  2  0  0  0  0
  5  6  2  0  0  0  0
  6  9  1  0  0  0  0
  7 13  1  0  0  0  0
  8  9  1  0  0  0  0
  8 14  1  0  0  0  0
 10 14  1  0  0  0  0
 11 14  2  0  0  0  0
 12 14  2  0  0  0  0
  1 15  1  0  0  0  0
  2 16  1  0  0  0  0
  3 17  1  0  0  0  0
  4 18  1  0  0  0  0
  9 19  1  0  0  0  0
 10 20  1  0  0  0  0
 10 21  1  0  0  0  0
M  END
> <Chemgauss4 Score>
-5.45695781707764

> <Number of Confs>
4

$$$$
KIM-UNI-60f-8
  -OEChem-03242005443D

 40 42  0     1  0  0  0  0  0999 V2000
    5.9065   -5.3315   27.4666 C   0  0  0  0  0  0  0  0  0  0  0  0
    6.0688   -4.9268   28.7818 C   0  0  0  0  0  0  0  0  0  0  0  0
    8.0462   -3.8595   28.3031 C   0  0  0  0  0  0  0  0  0  0  0  0
    6.8830   -4.9644   26.5474 C   0  0  0  0  0  0  0  0  0  0  0  0
    7.9766   -4.2143   26.9656 C   0  0  0  0  0  0  0  0  0  0  0  0
   11.0091   -3.2024   24.2081 C   0  0  0  0  0  0  0  0  0  0  0  0
   11.1169   -4.3408   24.8929 C   0  0  0  0  0  0  0  0  0  0  0  0
    9.9194   -2.2663   24.4163 C   0  0  0  0  0  0  0  0  0  0  0  0
    8.9694   -2.5921   25.3319 C   0  0  0  0  0  0  0  0  0  0  0  0
   10.0823   -4.7182   25.8820 C   0  0  0  0  0  0  0  0  0  0  0  0
   12.0605    0.0514   23.6988 C   0  0  0  0  0  0  0  0  0  0  0  0
    7.8892   -1.5758   25.6649 C   0  0  0  0  0  0  0  0  0  0  0  0
    8.2768   -0.1489   25.2825 C   0  0  0  0  0  0  0  0  0  0  0  0
    8.8028   -0.0980   23.8575 C   0  0  0  0  0  0  0  0  0  0  0  0
    6.7335   -5.3877   25.1230 C   0  0  0  0  0  0  0  0  0  0  0  0
   10.9982   -0.5998   22.8435 C   0  0  0  0  0  0  0  0  0  0  0  0
    7.1173   -4.1976   29.2253 N   0  0  0  0  0  0  0  0  0  0  0  0
    9.0153   -3.8084   26.0516 N   0  0  0  0  0  0  0  0  0  0  0  0
    9.8973   -1.0599   23.6893 N   0  0  3  0  0  0  0  0  0  0  0  0
   13.3245   -0.1016   23.1707 N   0  0  0  0  0  0  0  0  0  0  0  0
   10.2065   -5.8077   26.4434 O   0  0  0  0  0  0  0  0  0  0  0  0
   11.8223    0.6847   24.7235 O   0  0  0  0  0  0  0  0  0  0  0  0
    5.0415   -5.9164   27.1728 H   0  0  0  0  0  0  0  0  0  0  0  0
    5.3353   -5.1875   29.5376 H   0  0  0  0  0  0  0  0  0  0  0  0
    8.8750   -3.2741   28.6901 H   0  0  0  0  0  0  0  0  0  0  0  0
   11.7852   -2.9717   23.4867 H   0  0  0  0  0  0  0  0  0  0  0  0
   11.9451   -5.0216   24.7328 H   0  0  0  0  0  0  0  0  0  0  0  0
    6.9656   -1.8638   25.1474 H   0  0  0  0  0  0  0  0  0  0  0  0
    7.6745   -1.5742   26.7398 H   0  0  0  0  0  0  0  0  0  0  0  0
    7.4075    0.5106   25.3842 H   0  0  0  0  0  0  0  0  0  0  0  0
    9.0430    0.2270   25.9730 H   0  0  0  0  0  0  0  0  0  0  0  0
    8.0033   -0.3374   23.1461 H   0  0  0  0  0  0  0  0  0  0  0  0
    9.1414    0.9229   23.6454 H   0  0  0  0  0  0  0  0  0  0  0  0
    6.1790   -4.6298   24.5577 H   0  0  0  0  0  0  0  0  0  0  0  0
    7.7116   -5.5322   24.6478 H   0  0  0  0  0  0  0  0  0  0  0  0
    6.1977   -6.3420   25.0473 H   0  0  0  0  0  0  0  0  0  0  0  0
   11.4016   -1.4658   22.3117 H   0  0  0  0  0  0  0  0  0  0  0  0
   10.6075    0.1289   22.1279 H   0  0  0  0  0  0  0  0  0  0  0  0
   13.4690   -0.6039   22.3011 H   0  0  0  0  0  0  0  0  0  0  0  0
   14.1515    0.2770   23.6213 H   0  0  0  0  0  0  0  0  0  0  0  0
  1  2  2  0  0  0  0
  1  4  1  0  0  0  0
  2 17  1  0  0  0  0
  3  5  1  0  0  0  0
  3 17  2  0  0  0  0
  4  5  2  0  0  0  0
  4 15  1  0  0  0  0
  5 18  1  0  0  0  0
  6  7  2  0  0  0  0
  6  8  1  0  0  0  0
  7 10  1  0  0  0  0
  8  9  2  0  0  0  0
  8 19  1  0  0  0  0
  9 12  1  0  0  0  0
  9 18  1  0  0  0  0
 10 18  1  0  0  0  0
 10 21  2  0  0  0  0
 11 16  1  0  0  0  0
 11 20  1  0  0  0  0
 11 22  2  0  0  0  0
 12 13  1  0  0  0  0
 13 14  1  0  0  0  0
 14 19  1  0  0  0  0
 16 19  1  6  0  0  0
  1 23  1  0  0  0  0
  2 24  1  0  0  0  0
  3 25  1  0  0  0  0
  6 26  1  0  0  0  0
  7 27  1  0  0  0  0
 12 28  1  0  0  0  0
 12 29  1  0  0  0  0
 13 30  1  0  0  0  0
 13 31  1  0  0  0  0
 14 32  1  0  0  0  0
 14 33  1  0  0  0  0
 15 34  1  0  0  0  0
 15 35  1  0  0  0  0
 15 36  1  0  0  0  0
 16 37  1  0  0  0  0
 16 38  1  0  0  0  0
 20 39  1  0  0  0  0
 20 40  1  0  0  0  0
M  END
> <Chemgauss4 Score>
-5.45388507843018

> <Number of Confs>
20

$$$$
DAR-DIA-fc9-11
  -OEChem-03242005443D

 37 39  0     1  0  0  0  0  0999 V2000
    4.9182   -2.7979   24.0847 C   0  0  0  0  0  0  0  0  0  0  0  0
    6.1971   -2.5601   23.5814 C   0  0  0  0  0  0  0  0  0  0  0  0
    4.7505   -3.6035   25.2110 C   0  0  0  0  0  0  0  0  0  0  0  0
   11.9613   -1.0169   22.4861 C   0  0  0  0  0  0  0  0  0  0  0  0
    7.3084   -3.1282   24.2043 C   0  0  0  0  0  0  0  0  0  0  0  0
    5.8618   -4.1716   25.8338 C   0  0  0  0  0  0  0  0  0  0  0  0
   11.5007   -2.0651   23.2750 C   0  0  0  0  0  0  0  0  0  0  0  0
   12.0178    0.2458   23.0536 C   0  0  0  0  0  0  0  0  0  0  0  0
   11.2106   -0.5233   25.0624 C   0  0  0  0  0  0  0  0  0  0  0  0
    7.1408   -3.9339   25.3305 C   0  0  0  0  0  0  0  0  0  0  0  0
   11.1161   -1.8220   24.5889 C   0  0  0  0  0  0  0  0  0  0  0  0
    9.6987   -2.6114   26.4508 C   0  0  0  0  0  0  0  0  0  0  0  0
    8.9625   -3.8058   27.0309 C   0  0  0  0  0  0  0  0  0  0  0  0
   10.1145   -5.1517   24.4741 C   0  0  0  0  0  0  0  0  0  0  0  0
   11.1319   -4.2616   25.1998 C   0  0  0  0  0  0  0  0  0  0  0  0
    8.9759   -5.6337   25.3717 C   0  0  0  0  0  0  0  0  0  0  0  0
   11.6530    0.5206   24.3260 N   0  0  0  0  0  0  0  0  0  0  0  0
   10.6334   -2.8896   25.4330 N   0  0  0  0  0  0  0  0  0  0  0  0
    8.2533   -4.5027   25.9546 N   0  0  3  0  0  0  0  0  0  0  0  0
    9.4548   -1.4890   26.9022 O   0  0  0  0  0  0  0  0  0  0  0  0
    4.0528   -2.3556   23.5994 H   0  0  0  0  0  0  0  0  0  0  0  0
    6.3275   -1.9330   22.7046 H   0  0  0  0  0  0  0  0  0  0  0  0
    3.7544   -3.7886   25.6027 H   0  0  0  0  0  0  0  0  0  0  0  0
   12.2665   -1.1833   21.4593 H   0  0  0  0  0  0  0  0  0  0  0  0
    8.3007   -2.9369   23.8042 H   0  0  0  0  0  0  0  0  0  0  0  0
    5.7189   -4.7976   26.7110 H   0  0  0  0  0  0  0  0  0  0  0  0
   11.4456   -3.0665   22.8564 H   0  0  0  0  0  0  0  0  0  0  0  0
   12.3689    1.0970   22.4797 H   0  0  0  0  0  0  0  0  0  0  0  0
   10.9254   -0.2711   26.0795 H   0  0  0  0  0  0  0  0  0  0  0  0
    9.6529   -4.4611   27.5765 H   0  0  0  0  0  0  0  0  0  0  0  0
    8.2361   -3.4421   27.7709 H   0  0  0  0  0  0  0  0  0  0  0  0
    9.7226   -4.6369   23.5851 H   0  0  0  0  0  0  0  0  0  0  0  0
   10.6443   -6.0389   24.0984 H   0  0  0  0  0  0  0  0  0  0  0  0
   11.4278   -4.6997   26.1555 H   0  0  0  0  0  0  0  0  0  0  0  0
   12.0347   -4.1932   24.5853 H   0  0  0  0  0  0  0  0  0  0  0  0
    8.2894   -6.2626   24.7921 H   0  0  0  0  0  0  0  0  0  0  0  0
    9.3735   -6.2702   26.1714 H   0  0  0  0  0  0  0  0  0  0  0  0
  1  2  1  0  0  0  0
  1  3  2  0  0  0  0
  2  5  2  0  0  0  0
  3  6  1  0  0  0  0
  4  7  2  0  0  0  0
  4  8  1  0  0  0  0
  5 10  1  0  0  0  0
  6 10  2  0  0  0  0
  7 11  1  0  0  0  0
  8 17  2  0  0  0  0
  9 11  2  0  0  0  0
  9 17  1  0  0  0  0
 10 19  1  1  0  0  0
 11 18  1  0  0  0  0
 12 13  1  0  0  0  0
 12 18  1  0  0  0  0
 12 20  2  0  0  0  0
 13 19  1  0  0  0  0
 14 15  1  0  0  0  0
 14 16  1  0  0  0  0
 15 18  1  0  0  0  0
 16 19  1  0  0  0  0
  1 21  1  0  0  0  0
  2 22  1  0  0  0  0
  3 23  1  0  0  0  0
  4 24  1  0  0  0  0
  5 25  1  0  0  0  0
  6 26  1  0  0  0  0
  7 27  1  0  0  0  0
  8 28  1  0  0  0  0
  9 29  1  0  0  0  0
 13 30  1  0  0  0  0
 13 31  1  0  0  0  0
 14 32  1  0  0  0  0
 14 33  1  0  0  0  0
 15 34  1  0  0  0  0
 15 35  1  0  0  0  0
 16 36  1  0  0  0  0
 16 37  1  0  0  0  0
M  END
> <Chemgauss4 Score>
-5.4485445022583

> <Number of Confs>
64

$$$$
DAR-DIA-fc9-13
  -OEChem-03242005443D

 37 39  0     1  0  0  0  0  0999 V2000
    4.9182   -2.7979   24.0847 C   0  0  0  0  0  0  0  0  0  0  0  0
    6.1971   -2.5601   23.5814 C   0  0  0  0  0  0  0  0  0  0  0  0
    4.7505   -3.6035   25.2110 C   0  0  0  0  0  0  0  0  0  0  0  0
   11.9613   -1.0169   22.4861 C   0  0  0  0  0  0  0  0  0  0  0  0
    7.3084   -3.1282   24.2043 C   0  0  0  0  0  0  0  0  0  0  0  0
    5.8618   -4.1716   25.8338 C   0  0  0  0  0  0  0  0  0  0  0  0
   11.5007   -2.0651   23.2750 C   0  0  0  0  0  0  0  0  0  0  0  0
   12.0178    0.2458   23.0536 C   0  0  0  0  0  0  0  0  0  0  0  0
   11.2106   -0.5233   25.0624 C   0  0  0  0  0  0  0  0  0  0  0  0
    7.1408   -3.9339   25.3305 C   0  0  0  0  0  0  0  0  0  0  0  0
   11.1161   -1.8220   24.5889 C   0  0  0  0  0  0  0  0  0  0  0  0
    9.6987   -2.6114   26.4508 C   0  0  0  0  0  0  0  0  0  0  0  0
    8.9625   -3.8058   27.0309 C   0  0  0  0  0  0  0  0  0  0  0  0
   10.1145   -5.1517   24.4741 C   0  0  0  0  0  0  0  0  0  0  0  0
   11.1319   -4.2616   25.1998 C   0  0  0  0  0  0  0  0  0  0  0  0
    8.9759   -5.6337   25.3717 C   0  0  0  0  0  0  0  0  0  0  0  0
   11.6530    0.5206   24.3260 N   0  0  0  0  0  0  0  0  0  0  0  0
   10.6334   -2.8896   25.4330 N   0  0  0  0  0  0  0  0  0  0  0  0
    8.2533   -4.5027   25.9546 N   0  0  3  0  0  0  0  0  0  0  0  0
    9.4548   -1.4890   26.9022 O   0  0  0  0  0  0  0  0  0  0  0  0
    4.0528   -2.3556   23.5994 H   0  0  0  0  0  0  0  0  0  0  0  0
    6.3275   -1.9330   22.7046 H   0  0  0  0  0  0  0  0  0  0  0  0
    3.7544   -3.7886   25.6027 H   0  0  0  0  0  0  0  0  0  0  0  0
   12.2665   -1.1833   21.4593 H   0  0  0  0  0  0  0  0  0  0  0  0
    8.3007   -2.9369   23.8042 H   0  0  0  0  0  0  0  0  0  0  0  0
    5.7189   -4.7976   26.7110 H   0  0  0  0  0  0  0  0  0  0  0  0
   11.4456   -3.0665   22.8564 H   0  0  0  0  0  0  0  0  0  0  0  0
   12.3689    1.0970   22.4797 H   0  0  0  0  0  0  0  0  0  0  0  0
   10.9254   -0.2711   26.0795 H   0  0  0  0  0  0  0  0  0  0  0  0
    9.6529   -4.4611   27.5765 H   0  0  0  0  0  0  0  0  0  0  0  0
    8.2361   -3.4421   27.7709 H   0  0  0  0  0  0  0  0  0  0  0  0
    9.7226   -4.6369   23.5851 H   0  0  0  0  0  0  0  0  0  0  0  0
   10.6443   -6.0389   24.0984 H   0  0  0  0  0  0  0  0  0  0  0  0
   11.4278   -4.6997   26.1555 H   0  0  0  0  0  0  0  0  0  0  0  0
   12.0347   -4.1932   24.5853 H   0  0  0  0  0  0  0  0  0  0  0  0
    8.2894   -6.2626   24.7921 H   0  0  0  0  0  0  0  0  0  0  0  0
    9.3735   -6.2702   26.1714 H   0  0  0  0  0  0  0  0  0  0  0  0
  1  2  1  0  0  0  0
  1  3  2  0  0  0  0
  2  5  2  0  0  0  0
  3  6  1  0  0  0  0
  4  7  2  0  0  0  0
  4  8  1  0  0  0  0
  5 10  1  0  0  0  0
  6 10  2  0  0  0  0
  7 11  1  0  0  0  0
  8 17  2  0  0  0  0
  9 11  2  0  0  0  0
  9 17  1  0  0  0  0
 10 19  1  1  0  0  0
 11 18  1  0  0  0  0
 12 13  1  0  0  0  0
 12 18  1  0  0  0  0
 12 20  2  0  0  0  0
 13 19  1  0  0  0  0
 14 15  1  0  0  0  0
 14 16  1  0  0  0  0
 15 18  1  0  0  0  0
 16 19  1  0  0  0  0
  1 21  1  0  0  0  0
  2 22  1  0  0  0  0
  3 23  1  0  0  0  0
  4 24  1  0  0  0  0
  5 25  1  0  0  0  0
  6 26  1  0  0  0  0
  7 27  1  0  0  0  0
  8 28  1  0  0  0  0
  9 29  1  0  0  0  0
 13 30  1  0  0  0  0
 13 31  1  0  0  0  0
 14 32  1  0  0  0  0
 14 33  1  0  0  0  0
 15 34  1  0  0  0  0
 15 35  1  0  0  0  0
 16 36  1  0  0  0  0
 16 37  1  0  0  0  0
M  END
> <Chemgauss4 Score>
-5.4485445022583

> <Number of Confs>
64

$$$$
KIM-UNI-2ee-1
  -OEChem-03242005443D

 35 36  0     0  0  0  0  0  0999 V2000
    9.0126   -4.7289   27.9334 C   0  0  0  0  0  0  0  0  0  0  0  0
    8.2070   -5.2047   25.7060 C   0  0  0  0  0  0  0  0  0  0  0  0
    6.7400   -5.4804   27.6057 C   0  0  0  0  0  0  0  0  0  0  0  0
    9.2331   -4.7956   26.5577 C   0  0  0  0  0  0  0  0  0  0  0  0
    7.7661   -5.0713   28.4574 C   0  0  0  0  0  0  0  0  0  0  0  0
    6.9604   -5.5472   26.2300 C   0  0  0  0  0  0  0  0  0  0  0  0
   12.0924    0.2066   23.3638 C   0  0  0  0  0  0  0  0  0  0  0  0
   10.2740   -0.8700   24.7747 C   0  0  0  0  0  0  0  0  0  0  0  0
   11.5308   -2.1884   23.1174 C   0  0  0  0  0  0  0  0  0  0  0  0
   10.4003   -2.0352   25.7580 C   0  0  0  0  0  0  0  0  0  0  0  0
   11.6382   -3.3249   24.1335 C   0  0  0  0  0  0  0  0  0  0  0  0
   13.5102   -0.0593   22.9246 C   0  0  0  0  0  0  0  0  0  0  0  0
   10.5754   -4.4275   25.9948 C   0  0  0  0  0  0  0  0  0  0  0  0
   11.3515   -0.8981   23.7812 N   0  0  0  0  0  0  0  0  0  0  0  0
   10.4854   -3.3186   25.0458 N   0  0  0  0  0  0  0  0  0  0  0  0
   11.6568    1.3604   23.3326 O   0  0  0  0  0  0  0  0  0  0  0  0
    7.5507   -5.0064   29.7998 O   0  0  0  0  0  0  0  0  0  0  0  0
    5.6940   -6.0508   25.1793 Cl  0  0  0  0  0  0  0  0  0  0  0  0
    9.8114   -4.4124   28.5995 H   0  0  0  0  0  0  0  0  0  0  0  0
    8.3843   -5.2550   24.6339 H   0  0  0  0  0  0  0  0  0  0  0  0
    5.7710   -5.7456   28.0223 H   0  0  0  0  0  0  0  0  0  0  0  0
    9.3283   -0.9354   24.2225 H   0  0  0  0  0  0  0  0  0  0  0  0
   10.2593    0.0693   25.3309 H   0  0  0  0  0  0  0  0  0  0  0  0
   12.4215   -2.1763   22.4808 H   0  0  0  0  0  0  0  0  0  0  0  0
   10.6637   -2.3381   22.4622 H   0  0  0  0  0  0  0  0  0  0  0  0
   11.2787   -1.8817   26.3989 H   0  0  0  0  0  0  0  0  0  0  0  0
    9.5171   -2.0315   26.4082 H   0  0  0  0  0  0  0  0  0  0  0  0
   11.6697   -4.2735   23.5840 H   0  0  0  0  0  0  0  0  0  0  0  0
   12.5817   -3.2367   24.6886 H   0  0  0  0  0  0  0  0  0  0  0  0
   13.5188   -0.2672   21.8598 H   0  0  0  0  0  0  0  0  0  0  0  0
   13.8978   -0.9124   23.4722 H   0  0  0  0  0  0  0  0  0  0  0  0
   14.1175    0.8147   23.1370 H   0  0  0  0  0  0  0  0  0  0  0  0
   11.2618   -4.1314   26.7955 H   0  0  0  0  0  0  0  0  0  0  0  0
   11.0298   -5.2773   25.4746 H   0  0  0  0  0  0  0  0  0  0  0  0
    8.3538   -4.7072   30.2552 H   0  0  0  0  0  0  0  0  0  0  0  0
  1  4  1  0  0  0  0
  1  5  2  0  0  0  0
  2  4  2  0  0  0  0
  2  6  1  0  0  0  0
  3  5  1  0  0  0  0
  3  6  2  0  0  0  0
  4 13  1  0  0  0  0
  5 17  1  0  0  0  0
  6 18  1  0  0  0  0
  7 12  1  0  0  0  0
  7 14  1  0  0  0  0
  7 16  2  0  0  0  0
  8 10  1  0  0  0  0
  8 14  1  0  0  0  0
  9 11  1  0  0  0  0
  9 14  1  0  0  0  0
 10 15  1  0  0  0  0
 11 15  1  0  0  0  0
 13 15  1  0  0  0  0
  1 19  1  0  0  0  0
  2 20  1  0  0  0  0
  3 21  1  0  0  0  0
  8 22  1  0  0  0  0
  8 23  1  0  0  0  0
  9 24  1  0  0  0  0
  9 25  1  0  0  0  0
 10 26  1  0  0  0  0
 10 27  1  0  0  0  0
 11 28  1  0  0  0  0
 11 29  1  0  0  0  0
 12 30  1  0  0  0  0
 12 31  1  0  0  0  0
 12 32  1  0  0  0  0
 13 33  1  0  0  0  0
 13 34  1  0  0  0  0
 17 35  1  0  0  0  0
M  END
> <Chemgauss4 Score>
-5.44544744491577

> <Number of Confs>
36

$$$$
CHR-SOS-1f3-10
  -OEChem-03242005443D

 38 40  0     0  0  0  0  0  0999 V2000
    8.2885   -4.0938   28.6722 C   0  0  0  0  0  0  0  0  0  0  0  0
    7.2664   -4.8413   28.0873 C   0  0  0  0  0  0  0  0  0  0  0  0
    9.5443   -4.0364   28.0676 C   0  0  0  0  0  0  0  0  0  0  0  0
    7.5000   -5.5315   26.8979 C   0  0  0  0  0  0  0  0  0  0  0  0
    9.7779   -4.7266   26.8782 C   0  0  0  0  0  0  0  0  0  0  0  0
   13.4735    0.0953   22.9128 C   0  0  0  0  0  0  0  0  0  0  0  0
   12.8425    0.9300   23.8210 C   0  0  0  0  0  0  0  0  0  0  0  0
   11.2452   -0.6505   24.2997 C   0  0  0  0  0  0  0  0  0  0  0  0
   12.9366   -1.1714   22.7110 C   0  0  0  0  0  0  0  0  0  0  0  0
   11.8013   -1.5592   23.4138 C   0  0  0  0  0  0  0  0  0  0  0  0
    8.7558   -5.4742   26.2934 C   0  0  0  0  0  0  0  0  0  0  0  0
   10.0860   -3.3541   23.8795 C   0  0  0  0  0  0  0  0  0  0  0  0
    7.3067   -4.9840   23.7332 C   0  0  0  0  0  0  0  0  0  0  0  0
    7.8102   -6.1606   22.9523 C   0  0  0  0  0  0  0  0  0  0  0  0
    8.7274   -5.4521   23.9154 C   0  0  0  0  0  0  0  0  0  0  0  0
   13.5964   -2.0917   21.7371 C   0  0  0  0  0  0  0  0  0  0  0  0
   11.7382    0.5885   24.5222 N   0  0  0  0  0  0  0  0  0  0  0  0
   11.2180   -2.8365   23.2438 N   0  0  0  0  0  0  0  0  0  0  0  0
    9.8155   -4.6700   23.4445 N   0  0  0  0  0  0  0  0  0  0  0  0
    9.3868   -2.7809   24.7115 O   0  0  0  0  0  0  0  0  0  0  0  0
    8.9848   -6.1488   25.1337 O   0  0  0  0  0  0  0  0  0  0  0  0
    8.1067   -3.5558   29.5979 H   0  0  0  0  0  0  0  0  0  0  0  0
    6.2885   -4.8862   28.5580 H   0  0  0  0  0  0  0  0  0  0  0  0
   10.3397   -3.4540   28.5236 H   0  0  0  0  0  0  0  0  0  0  0  0
    6.7000   -6.1132   26.4482 H   0  0  0  0  0  0  0  0  0  0  0  0
   10.7586   -4.6798   26.4127 H   0  0  0  0  0  0  0  0  0  0  0  0
   14.3579    0.4284   22.3804 H   0  0  0  0  0  0  0  0  0  0  0  0
   13.2216    1.9281   24.0144 H   0  0  0  0  0  0  0  0  0  0  0  0
   10.3589   -0.8948   24.8778 H   0  0  0  0  0  0  0  0  0  0  0  0
    7.1327   -4.0605   23.1940 H   0  0  0  0  0  0  0  0  0  0  0  0
    6.5973   -5.1735   24.5296 H   0  0  0  0  0  0  0  0  0  0  0  0
    7.4399   -7.1419   23.2238 H   0  0  0  0  0  0  0  0  0  0  0  0
    7.9741   -6.0260   21.8898 H   0  0  0  0  0  0  0  0  0  0  0  0
   14.3576   -2.6971   22.2425 H   0  0  0  0  0  0  0  0  0  0  0  0
   12.8665   -2.7651   21.2712 H   0  0  0  0  0  0  0  0  0  0  0  0
   14.0772   -1.5313   20.9256 H   0  0  0  0  0  0  0  0  0  0  0  0
   11.6817   -3.4484   22.5768 H   0  0  0  0  0  0  0  0  0  0  0  0
   10.4428   -5.0862   22.7462 H   0  0  0  0  0  0  0  0  0  0  0  0
  1  2  1  0  0  0  0
  1  3  2  0  0  0  0
  2  4  2  0  0  0  0
  3  5  1  0  0  0  0
  4 11  1  0  0  0  0
  5 11  2  0  0  0  0
  6  7  2  0  0  0  0
  6  9  1  0  0  0  0
  7 17  1  0  0  0  0
  8 10  1  0  0  0  0
  8 17  2  0  0  0  0
  9 10  2  0  0  0  0
  9 16  1  0  0  0  0
 10 18  1  0  0  0  0
 11 21  1  0  0  0  0
 12 18  1  0  0  0  0
 12 19  1  0  0  0  0
 12 20  2  0  0  0  0
 13 14  1  0  0  0  0
 13 15  1  0  0  0  0
 14 15  1  0  0  0  0
 15 19  1  0  0  0  0
 15 21  1  0  0  0  0
  1 22  1  0  0  0  0
  2 23  1  0  0  0  0
  3 24  1  0  0  0  0
  4 25  1  0  0  0  0
  5 26  1  0  0  0  0
  6 27  1  0  0  0  0
  7 28  1  0  0  0  0
  8 29  1  0  0  0  0
 13 30  1  0  0  0  0
 13 31  1  0  0  0  0
 14 32  1  0  0  0  0
 14 33  1  0  0  0  0
 16 34  1  0  0  0  0
 16 35  1  0  0  0  0
 16 36  1  0  0  0  0
 18 37  1  0  0  0  0
 19 38  1  0  0  0  0
M  END
> <Chemgauss4 Score>
-5.44177198410034

> <Number of Confs>
24

$$$$
SAL-INS-1ea-2
  -OEChem-03242005443D

 42 44  0     1  0  0  0  0  0999 V2000
    7.4916   -5.4871   22.7789 C   0  0  0  0  0  0  0  0  0  0  0  0
    6.0750   -4.2337   24.2819 C   0  0  0  0  0  0  0  0  0  0  0  0
    6.5125   -6.4757   22.6805 C   0  0  0  0  0  0  0  0  0  0  0  0
    5.0958   -5.2223   24.1835 C   0  0  0  0  0  0  0  0  0  0  0  0
    9.8902    1.7585   22.5593 C   0  0  0  0  0  0  0  0  0  0  0  0
    8.8130    2.0792   21.6835 C   0  0  0  0  0  0  0  0  0  0  0  0
    7.2728   -4.3661   23.5797 C   0  0  0  0  0  0  0  0  0  0  0  0
    5.3146   -6.3433   23.3827 C   0  0  0  0  0  0  0  0  0  0  0  0
   10.3288    0.4640   22.3878 C   0  0  0  0  0  0  0  0  0  0  0  0
    8.4696    1.0174   20.8756 C   0  0  0  0  0  0  0  0  0  0  0  0
    9.1170   -4.6919   26.5282 C   0  0  0  0  0  0  0  0  0  0  0  0
    9.6771   -2.3178   26.1849 C   0  0  0  0  0  0  0  0  0  0  0  0
   10.8290   -1.5836   25.5166 C   0  0  0  0  0  0  0  0  0  0  0  0
   10.6137   -2.9972   23.5136 C   0  0  0  0  0  0  0  0  0  0  0  0
    9.5024   -3.8032   24.1860 C   0  0  1  0  0  0  0  0  0  0  0  0
    8.9270   -4.3062   27.9742 C   0  0  0  0  0  0  0  0  0  0  0  0
    9.4908   -3.6691   25.6498 N   0  0  0  0  0  0  0  0  0  0  0  0
   10.6333   -1.6031   24.0423 N   0  0  2  0  0  0  0  0  0  0  0  0
    8.9330   -5.8636   26.1882 O   0  0  0  0  0  0  0  0  0  0  0  0
   12.3022   -1.2111   22.1176 O   0  0  0  0  0  0  0  0  0  0  0  0
   12.3001    0.3602   24.0870 O   0  0  0  0  0  0  0  0  0  0  0  0
    8.2331   -3.3966   23.6762 O   0  0  0  0  0  0  0  0  0  0  0  0
    4.3744   -7.2927   23.2882 F   0  0  0  0  0  0  0  0  0  0  0  0
    9.4436   -0.3589   21.1747 S   0  0  0  0  0  0  0  0  0  0  0  0
   11.5950   -0.4954   23.1573 S   0  0  0  0  0  0  0  0  0  0  0  0
    7.2411    0.9594   19.6822 Cl  0  0  0  0  0  0  0  0  0  0  0  0
    8.4311   -5.7658   28.8231 Cl  0  0  0  0  0  0  0  0  0  0  0  0
    8.4226   -5.5960   22.2293 H   0  0  0  0  0  0  0  0  0  0  0  0
    5.8986   -3.3628   24.9073 H   0  0  0  0  0  0  0  0  0  0  0  0
    6.6825   -7.3486   22.0571 H   0  0  0  0  0  0  0  0  0  0  0  0
    4.1631   -5.1196   24.7301 H   0  0  0  0  0  0  0  0  0  0  0  0
   10.3192    2.4441   23.2786 H   0  0  0  0  0  0  0  0  0  0  0  0
    8.3188    3.0420   21.6539 H   0  0  0  0  0  0  0  0  0  0  0  0
    9.8371   -2.3495   27.2675 H   0  0  0  0  0  0  0  0  0  0  0  0
    8.7358   -1.7814   26.0120 H   0  0  0  0  0  0  0  0  0  0  0  0
   10.8422   -0.5468   25.8702 H   0  0  0  0  0  0  0  0  0  0  0  0
   11.7877   -2.0484   25.7738 H   0  0  0  0  0  0  0  0  0  0  0  0
   11.5877   -3.4661   23.6957 H   0  0  0  0  0  0  0  0  0  0  0  0
   10.4342   -2.9589   22.4331 H   0  0  0  0  0  0  0  0  0  0  0  0
    9.6296   -4.8573   23.8983 H   0  0  0  0  0  0  0  0  0  0  0  0
    8.1479   -3.5555   28.0375 H   0  0  0  0  0  0  0  0  0  0  0  0
    9.8707   -3.9481   28.3685 H   0  0  0  0  0  0  0  0  0  0  0  0
  1  3  2  0  0  0  0
  1  7  1  0  0  0  0
  2  4  1  0  0  0  0
  2  7  2  0  0  0  0
  3  8  1  0  0  0  0
  4  8  2  0  0  0  0
  5  6  1  0  0  0  0
  5  9  2  0  0  0  0
  6 10  2  0  0  0  0
  7 22  1  0  0  0  0
  8 23  1  0  0  0  0
  9 24  1  0  0  0  0
  9 25  1  0  0  0  0
 10 24  1  0  0  0  0
 10 26  1  0  0  0  0
 11 16  1  0  0  0  0
 11 17  1  0  0  0  0
 11 19  2  0  0  0  0
 12 13  1  0  0  0  0
 12 17  1  0  0  0  0
 13 18  1  0  0  0  0
 14 15  1  0  0  0  0
 14 18  1  0  0  0  0
 15 17  1  0  0  0  0
 15 22  1  0  0  0  0
 16 27  1  0  0  0  0
 18 25  1  1  0  0  0
 20 25  2  0  0  0  0
 21 25  2  0  0  0  0
  1 28  1  0  0  0  0
  2 29  1  0  0  0  0
  3 30  1  0  0  0  0
  4 31  1  0  0  0  0
  5 32  1  0  0  0  0
  6 33  1  0  0  0  0
 12 34  1  0  0  0  0
 12 35  1  0  0  0  0
 13 36  1  0  0  0  0
 13 37  1  0  0  0  0
 14 38  1  0  0  0  0
 14 39  1  0  0  0  0
 15 40  1  1  0  0  0
 16 41  1  0  0  0  0
 16 42  1  0  0  0  0
M  END
> <Chemgauss4 Score>
-5.44116020202637

> <Number of Confs>
200

$$$$
GIA-UNK-995-14
  -OEChem-03242005443D

 35 36  0     0  0  0  0  0  0999 V2000
   13.0062   -0.8492   22.3159 C   0  0  0  0  0  0  0  0  0  0  0  0
   13.0867    0.1150   23.3206 C   0  0  0  0  0  0  0  0  0  0  0  0
   11.8794   -1.6660   22.2217 C   0  0  0  0  0  0  0  0  0  0  0  0
   12.0404    0.2624   24.2312 C   0  0  0  0  0  0  0  0  0  0  0  0
   10.8331   -1.5186   23.1323 C   0  0  0  0  0  0  0  0  0  0  0  0
   10.9136   -0.5544   24.1371 C   0  0  0  0  0  0  0  0  0  0  0  0
    9.6570   -2.3746   23.0302 C   0  0  0  0  0  0  0  0  0  0  0  0
    8.3858   -5.1664   27.1136 C   0  0  0  0  0  0  0  0  0  0  0  0
    7.5924   -3.1663   25.8552 C   0  0  0  0  0  0  0  0  0  0  0  0
   10.0441   -3.4265   26.4883 C   0  0  0  0  0  0  0  0  0  0  0  0
    7.9637   -3.5448   24.4211 C   0  0  0  0  0  0  0  0  0  0  0  0
   10.3314   -3.8099   25.0375 C   0  0  0  0  0  0  0  0  0  0  0  0
    8.5915   -3.6767   26.8927 C   0  0  0  0  0  0  0  0  0  0  0  0
    6.1326   -5.4862   28.6442 C   0  0  0  0  0  0  0  0  0  0  0  0
    9.3534   -3.1899   24.1357 N   0  0  0  0  0  0  0  0  0  0  0  0
    8.9716   -2.3648   22.0062 O   0  0  0  0  0  0  0  0  0  0  0  0
    8.5255   -5.9992   26.2260 O   0  0  0  0  0  0  0  0  0  0  0  0
    9.9143   -0.4037   25.0183 F   0  0  0  0  0  0  0  0  0  0  0  0
    5.6557   -6.6172   28.0589 F   0  0  0  0  0  0  0  0  0  0  0  0
    7.9303   -5.5819   28.7656 S   0  0  0  0  0  0  0  0  0  0  0  0
   13.8209   -0.9640   21.6071 H   0  0  0  0  0  0  0  0  0  0  0  0
   13.9639    0.7511   23.3938 H   0  0  0  0  0  0  0  0  0  0  0  0
   11.8279   -2.4137   21.4344 H   0  0  0  0  0  0  0  0  0  0  0  0
   12.1028    1.0130   25.0135 H   0  0  0  0  0  0  0  0  0  0  0  0
    7.5449   -2.0716   25.9230 H   0  0  0  0  0  0  0  0  0  0  0  0
    6.5844   -3.5385   26.0753 H   0  0  0  0  0  0  0  0  0  0  0  0
   10.7255   -3.9773   27.1479 H   0  0  0  0  0  0  0  0  0  0  0  0
   10.2694   -2.3602   26.6194 H   0  0  0  0  0  0  0  0  0  0  0  0
    7.8600   -4.6249   24.2656 H   0  0  0  0  0  0  0  0  0  0  0  0
    7.2860   -3.0475   23.7195 H   0  0  0  0  0  0  0  0  0  0  0  0
   11.3537   -3.5200   24.7814 H   0  0  0  0  0  0  0  0  0  0  0  0
   10.2629   -4.8949   24.8981 H   0  0  0  0  0  0  0  0  0  0  0  0
    8.3969   -3.2102   27.8513 H   0  0  0  0  0  0  0  0  0  0  0  0
    5.8295   -4.6354   28.0285 H   0  0  0  0  0  0  0  0  0  0  0  0
    5.6801   -5.4044   29.6358 H   0  0  0  0  0  0  0  0  0  0  0  0
  1  2  1  0  0  0  0
  1  3  2  0  0  0  0
  2  4  2  0  0  0  0
  3  5  1  0  0  0  0
  4  6  1  0  0  0  0
  5  6  2  0  0  0  0
  5  7  1  0  0  0  0
  6 18  1  0  0  0  0
  7 15  1  0  0  0  0
  7 16  2  0  0  0  0
  8 13  1  0  0  0  0
  8 17  2  0  0  0  0
  8 20  1  0  0  0  0
  9 11  1  0  0  0  0
  9 13  1  0  0  0  0
 10 12  1  0  0  0  0
 10 13  1  0  0  0  0
 11 15  1  0  0  0  0
 12 15  1  0  0  0  0
 14 19  1  0  0  0  0
 14 20  1  0  0  0  0
  1 21  1  0  0  0  0
  2 22  1  0  0  0  0
  3 23  1  0  0  0  0
  4 24  1  0  0  0  0
  9 25  1  0  0  0  0
  9 26  1  0  0  0  0
 10 27  1  0  0  0  0
 10 28  1  0  0  0  0
 11 29  1  0  0  0  0
 11 30  1  0  0  0  0
 12 31  1  0  0  0  0
 12 32  1  0  0  0  0
 13 33  1  0  0  0  0
 14 34  1  0  0  0  0
 14 35  1  0  0  0  0
M  END
> <Chemgauss4 Score>
-5.44075965881348

> <Number of Confs>
200

$$$$
JOH-MSK-ec6-3
  -OEChem-03242005443D

 35 36  0     0  0  0  0  0  0999 V2000
    8.0114   -2.1979   27.0374 C   0  0  0  0  0  0  0  0  0  0  0  0
    8.4575   -1.1830   26.1905 C   0  0  0  0  0  0  0  0  0  0  0  0
    9.9575   -0.4088   24.4147 C   0  0  0  0  0  0  0  0  0  0  0  0
    8.5956   -3.4598   26.9808 C   0  0  0  0  0  0  0  0  0  0  0  0
   10.9902   -0.6605   23.5111 C   0  0  0  0  0  0  0  0  0  0  0  0
   11.1284   -2.9374   24.3014 C   0  0  0  0  0  0  0  0  0  0  0  0
    9.4958   -1.4186   25.2747 C   0  0  0  0  0  0  0  0  0  0  0  0
   10.0900   -2.7018   25.2172 C   0  0  0  0  0  0  0  0  0  0  0  0
    9.6283   -3.7115   26.0771 C   0  0  0  0  0  0  0  0  0  0  0  0
   11.5745   -1.9224   23.4545 C   0  0  0  0  0  0  0  0  0  0  0  0
    8.0416   -5.0207   23.5421 C   0  0  0  0  0  0  0  0  0  0  0  0
    8.0051   -4.8147   22.0641 C   0  0  0  0  0  0  0  0  0  0  0  0
   12.9882   -1.0836   21.7359 C   0  0  0  0  0  0  0  0  0  0  0  0
   10.2117   -5.0906   26.0686 C   0  0  0  0  0  0  0  0  0  0  0  0
    9.3231   -6.1214   25.3666 C   0  0  0  0  0  0  0  0  0  0  0  0
    9.0990   -5.8004   23.9825 N   0  0  0  0  0  0  0  0  0  0  0  0
    7.1765   -4.5111   24.2447 O   0  0  0  0  0  0  0  0  0  0  0  0
   12.5818   -2.1659   22.5719 O   0  0  0  0  0  0  0  0  0  0  0  0
    7.2066   -2.0025   27.7401 H   0  0  0  0  0  0  0  0  0  0  0  0
    7.9861   -0.2044   26.2521 H   0  0  0  0  0  0  0  0  0  0  0  0
    9.5147    0.5846   24.4419 H   0  0  0  0  0  0  0  0  0  0  0  0
    8.2397   -4.2423   27.6459 H   0  0  0  0  0  0  0  0  0  0  0  0
   11.3332    0.1339   22.8534 H   0  0  0  0  0  0  0  0  0  0  0  0
   11.6064   -3.9122   24.2322 H   0  0  0  0  0  0  0  0  0  0  0  0
    7.4214   -5.5922   21.5455 H   0  0  0  0  0  0  0  0  0  0  0  0
    7.5317   -3.8600   21.7841 H   0  0  0  0  0  0  0  0  0  0  0  0
    8.9872   -4.8083   21.5648 H   0  0  0  0  0  0  0  0  0  0  0  0
   13.7982   -1.4128   21.0804 H   0  0  0  0  0  0  0  0  0  0  0  0
   13.3238   -0.2489   22.3564 H   0  0  0  0  0  0  0  0  0  0  0  0
   12.1378   -0.7648   21.1286 H   0  0  0  0  0  0  0  0  0  0  0  0
   10.3798   -5.4164   27.1068 H   0  0  0  0  0  0  0  0  0  0  0  0
   11.2081   -5.0816   25.5992 H   0  0  0  0  0  0  0  0  0  0  0  0
    9.7954   -7.1085   25.3892 H   0  0  0  0  0  0  0  0  0  0  0  0
    8.3438   -6.2003   25.8501 H   0  0  0  0  0  0  0  0  0  0  0  0
    9.7515   -6.1651   23.2903 H   0  0  0  0  0  0  0  0  0  0  0  0
  1  2  2  0  0  0  0
  1  4  1  0  0  0  0
  2  7  1  0  0  0  0
  3  5  2  0  0  0  0
  3  7  1  0  0  0  0
  4  9  2  0  0  0  0
  5 10  1  0  0  0  0
  6  8  1  0  0  0  0
  6 10  2  0  0  0  0
  7  8  2  0  0  0  0
  8  9  1  0  0  0  0
  9 14  1  0  0  0  0
 10 18  1  0  0  0  0
 11 12  1  0  0  0  0
 11 16  1  0  0  0  0
 11 17  2  0  0  0  0
 13 18  1  0  0  0  0
 14 15  1  0  0  0  0
 15 16  1  0  0  0  0
  1 19  1  0  0  0  0
  2 20  1  0  0  0  0
  3 21  1  0  0  0  0
  4 22  1  0  0  0  0
  5 23  1  0  0  0  0
  6 24  1  0  0  0  0
 12 25  1  0  0  0  0
 12 26  1  0  0  0  0
 12 27  1  0  0  0  0
 13 28  1  0  0  0  0
 13 29  1  0  0  0  0
 13 30  1  0  0  0  0
 14 31  1  0  0  0  0
 14 32  1  0  0  0  0
 15 33  1  0  0  0  0
 15 34  1  0  0  0  0
 16 35  1  0  0  0  0
M  END
> <Chemgauss4 Score>
-5.43759155273438

> <Number of Confs>
54

$$$$
DAN-LON-a5f-5
  -OEChem-03242005443D

 44 46  0     1  0  0  0  0  0999 V2000
   10.9142   -0.2013   24.8952 C   0  0  0  0  0  0  0  0  0  0  0  0
    7.9770   -3.8829   23.2974 C   0  0  0  0  0  0  0  0  0  0  0  0
    6.4908   -5.0490   24.8036 C   0  0  0  0  0  0  0  0  0  0  0  0
   10.4921   -1.4259   25.4128 C   0  0  0  0  0  0  0  0  0  0  0  0
   11.6903   -0.1641   23.7367 C   0  0  0  0  0  0  0  0  0  0  0  0
    7.4646   -4.6140   22.2257 C   0  0  0  0  0  0  0  0  0  0  0  0
    5.9784   -5.7802   23.7319 C   0  0  0  0  0  0  0  0  0  0  0  0
   11.6224   -2.5760   23.6137 C   0  0  0  0  0  0  0  0  0  0  0  0
    7.4901   -4.1004   24.5864 C   0  0  0  0  0  0  0  0  0  0  0  0
   10.8462   -2.6132   24.7721 C   0  0  0  0  0  0  0  0  0  0  0  0
    6.4653   -5.5626   22.4429 C   0  0  0  0  0  0  0  0  0  0  0  0
   12.0445   -1.3514   23.0961 C   0  0  0  0  0  0  0  0  0  0  0  0
    5.6857   -4.5918   28.3109 C   0  0  0  0  0  0  0  0  0  0  0  0
    8.2195   -4.6914   28.3229 C   0  0  0  0  0  0  0  0  0  0  0  0
    9.2132   -4.9382   27.1887 C   0  0  0  0  0  0  0  0  0  0  0  0
    7.0174   -3.0772   26.8869 C   0  0  0  0  0  0  0  0  0  0  0  0
    8.0500   -3.2985   25.7605 C   0  0  1  0  0  0  0  0  0  0  0  0
   10.3926   -3.9310   25.3306 C   0  0  0  0  0  0  0  0  0  0  0  0
    5.6848   -5.6169   29.4168 C   0  0  0  0  0  0  0  0  0  0  0  0
    6.9342   -4.1942   27.8283 N   0  0  0  0  0  0  0  0  0  0  0  0
    9.3335   -3.7688   26.3203 N   0  0  2  0  0  0  0  0  0  0  0  0
    4.6102   -4.1637   27.8840 O   0  0  0  0  0  0  0  0  0  0  0  0
    5.8333   -6.4643   21.1207 Cl  0  0  0  0  0  0  0  0  0  0  0  0
   13.0031   -1.3049   21.6675 Cl  0  0  0  0  0  0  0  0  0  0  0  0
    5.5986   -7.1943   28.6409 Cl  0  0  0  0  0  0  0  0  0  0  0  0
   10.6383    0.7230   25.3945 H   0  0  0  0  0  0  0  0  0  0  0  0
    8.7556   -3.1457   23.1201 H   0  0  0  0  0  0  0  0  0  0  0  0
    6.1059   -5.2244   25.8047 H   0  0  0  0  0  0  0  0  0  0  0  0
    9.8877   -1.4454   26.3159 H   0  0  0  0  0  0  0  0  0  0  0  0
   12.0124    0.7975   23.3448 H   0  0  0  0  0  0  0  0  0  0  0  0
    7.8534   -4.4334   21.2269 H   0  0  0  0  0  0  0  0  0  0  0  0
    5.2000   -6.5161   23.9163 H   0  0  0  0  0  0  0  0  0  0  0  0
   11.8955   -3.5045   23.1176 H   0  0  0  0  0  0  0  0  0  0  0  0
    8.1031   -5.6106   28.9006 H   0  0  0  0  0  0  0  0  0  0  0  0
    8.6094   -3.9282   29.0079 H   0  0  0  0  0  0  0  0  0  0  0  0
   10.1869   -5.1693   27.6380 H   0  0  0  0  0  0  0  0  0  0  0  0
    8.9064   -5.8237   26.6173 H   0  0  0  0  0  0  0  0  0  0  0  0
    7.3156   -2.2047   27.4832 H   0  0  0  0  0  0  0  0  0  0  0  0
    6.0294   -2.8501   26.4696 H   0  0  0  0  0  0  0  0  0  0  0  0
    8.2571   -2.2623   25.3281 H   0  0  0  0  0  0  0  0  0  0  0  0
   10.0124   -4.5781   24.5326 H   0  0  0  0  0  0  0  0  0  0  0  0
   11.2219   -4.4604   25.8114 H   0  0  0  0  0  0  0  0  0  0  0  0
    4.8119   -5.4604   30.0401 H   0  0  0  0  0  0  0  0  0  0  0  0
    6.6073   -5.5280   29.9787 H   0  0  0  0  0  0  0  0  0  0  0  0
  1  4  2  0  0  0  0
  1  5  1  0  0  0  0
  2  6  2  0  0  0  0
  2  9  1  0  0  0  0
  3  7  1  0  0  0  0
  3  9  2  0  0  0  0
  4 10  1  0  0  0  0
  5 12  2  0  0  0  0
  6 11  1  0  0  0  0
  7 11  2  0  0  0  0
  8 10  2  0  0  0  0
  8 12  1  0  0  0  0
  9 17  1  1  0  0  0
 10 18  1  0  0  0  0
 11 23  1  0  0  0  0
 12 24  1  0  0  0  0
 13 19  1  0  0  0  0
 13 20  1  0  0  0  0
 13 22  2  0  0  0  0
 14 15  1  0  0  0  0
 14 20  1  0  0  0  0
 15 21  1  0  0  0  0
 16 17  1  0  0  0  0
 16 20  1  0  0  0  0
 17 21  1  0  0  0  0
 18 21  1  1  0  0  0
 19 25  1  0  0  0  0
  1 26  1  0  0  0  0
  2 27  1  0  0  0  0
  3 28  1  0  0  0  0
  4 29  1  0  0  0  0
  5 30  1  0  0  0  0
  6 31  1  0  0  0  0
  7 32  1  0  0  0  0
  8 33  1  0  0  0  0
 14 34  1  0  0  0  0
 14 35  1  0  0  0  0
 15 36  1  0  0  0  0
 15 37  1  0  0  0  0
 16 38  1  0  0  0  0
 16 39  1  0  0  0  0
 17 40  1  0  0  0  0
 18 41  1  0  0  0  0
 18 42  1  0  0  0  0
 19 43  1  0  0  0  0
 19 44  1  0  0  0  0
M  END
> <Chemgauss4 Score>
-5.43439245223999

> <Number of Confs>
106

$$$$
MIH-UNI-6b9-5
  -OEChem-03242005443D

 29 30  0     0  0  0  0  0  0999 V2000
    6.2462   -5.9795   25.4638 C   0  0  0  0  0  0  0  0  0  0  0  0
    9.8553   -5.0710   25.3957 C   0  0  0  0  0  0  0  0  0  0  0  0
    8.6540   -5.6771   25.7631 C   0  0  0  0  0  0  0  0  0  0  0  0
    9.8793   -4.1460   24.3518 C   0  0  0  0  0  0  0  0  0  0  0  0
   10.4392   -0.8183   23.7086 C   0  0  0  0  0  0  0  0  0  0  0  0
   12.1752   -1.4063   22.1346 C   0  0  0  0  0  0  0  0  0  0  0  0
   11.2700    0.1566   24.2607 C   0  0  0  0  0  0  0  0  0  0  0  0
   13.0061   -0.4313   22.6867 C   0  0  0  0  0  0  0  0  0  0  0  0
    7.5005   -4.4336   24.0426 C   0  0  0  0  0  0  0  0  0  0  0  0
    7.4766   -5.3585   25.0865 C   0  0  0  0  0  0  0  0  0  0  0  0
    8.7018   -3.8274   23.6753 C   0  0  0  0  0  0  0  0  0  0  0  0
   10.8919   -1.5998   22.6455 C   0  0  0  0  0  0  0  0  0  0  0  0
   12.5534    0.3501   23.7498 C   0  0  0  0  0  0  0  0  0  0  0  0
    8.7277   -2.8386   22.5591 C   0  0  0  0  0  0  0  0  0  0  0  0
    5.2470   -6.4838   25.7703 N   0  0  0  0  0  0  0  0  0  0  0  0
   10.0655   -2.5695   22.0964 N   0  0  0  0  0  0  0  0  0  0  0  0
   13.3641    1.3015   24.2885 O   0  0  0  0  0  0  0  0  0  0  0  0
   10.7726   -5.3197   25.9216 H   0  0  0  0  0  0  0  0  0  0  0  0
    8.6512   -6.3958   26.5791 H   0  0  0  0  0  0  0  0  0  0  0  0
   10.8201   -3.6786   24.0733 H   0  0  0  0  0  0  0  0  0  0  0  0
    9.4409   -0.9607   24.1145 H   0  0  0  0  0  0  0  0  0  0  0  0
   12.5380   -2.0097   21.3064 H   0  0  0  0  0  0  0  0  0  0  0  0
   10.9118    0.7623   25.0887 H   0  0  0  0  0  0  0  0  0  0  0  0
   14.0048   -0.2852   22.2843 H   0  0  0  0  0  0  0  0  0  0  0  0
    6.5854   -4.1818   23.5103 H   0  0  0  0  0  0  0  0  0  0  0  0
    8.1468   -3.1979   21.6980 H   0  0  0  0  0  0  0  0  0  0  0  0
    8.2864   -1.8787   22.8608 H   0  0  0  0  0  0  0  0  0  0  0  0
   10.4269   -3.1214   21.3247 H   0  0  0  0  0  0  0  0  0  0  0  0
   14.2186    1.3151   23.8285 H   0  0  0  0  0  0  0  0  0  0  0  0
  1 10  1  0  0  0  0
  1 15  3  0  0  0  0
  2  3  2  0  0  0  0
  2  4  1  0  0  0  0
  3 10  1  0  0  0  0
  4 11  2  0  0  0  0
  5  7  2  0  0  0  0
  5 12  1  0  0  0  0
  6  8  1  0  0  0  0
  6 12  2  0  0  0  0
  7 13  1  0  0  0  0
  8 13  2  0  0  0  0
  9 10  2  0  0  0  0
  9 11  1  0  0  0  0
 11 14  1  0  0  0  0
 12 16  1  0  0  0  0
 13 17  1  0  0  0  0
 14 16  1  0  0  0  0
  2 18  1  0  0  0  0
  3 19  1  0  0  0  0
  4 20  1  0  0  0  0
  5 21  1  0  0  0  0
  6 22  1  0  0  0  0
  7 23  1  0  0  0  0
  8 24  1  0  0  0  0
  9 25  1  0  0  0  0
 14 26  1  0  0  0  0
 14 27  1  0  0  0  0
 16 28  1  0  0  0  0
 17 29  1  0  0  0  0
M  END
> <Chemgauss4 Score>
-5.4286036491394

> <Number of Confs>
31

$$$$
SAL-INS-1c7-4
  -OEChem-03242005443D

 47 50  0     1  0  0  0  0  0999 V2000
   11.5846   -2.0127   24.2937 C   0  0  0  0  0  0  0  0  0  0  0  0
   11.1144   -2.8571   25.2984 C   0  0  0  0  0  0  0  0  0  0  0  0
    9.8972   -2.8636   22.7937 C   0  0  0  0  0  0  0  0  0  0  0  0
    9.0679   -3.8069   28.6013 C   0  0  0  0  0  0  0  0  0  0  0  0
    8.5826    1.3062   21.9059 C   0  0  0  0  0  0  0  0  0  0  0  0
    7.2217   -2.7046   28.1183 C   0  0  0  0  0  0  0  0  0  0  0  0
    8.3282    0.7341   24.0188 C   0  0  0  0  0  0  0  0  0  0  0  0
   10.9774   -2.0171   23.0415 C   0  0  0  0  0  0  0  0  0  0  0  0
   10.0293   -3.7164   25.0603 C   0  0  0  0  0  0  0  0  0  0  0  0
    9.4093   -3.7141   23.7975 C   0  0  0  0  0  0  0  0  0  0  0  0
    8.7657   -3.8940   27.2628 C   0  0  0  0  0  0  0  0  0  0  0  0
    9.5206    0.3780   22.2920 C   0  0  0  0  0  0  0  0  0  0  0  0
   11.4690   -1.1391   21.9915 C   0  0  0  0  0  0  0  0  0  0  0  0
    6.3972   -5.7794   24.7744 C   0  0  0  0  0  0  0  0  0  0  0  0
    8.2375   -4.6115   23.4828 C   0  0  0  0  0  0  0  0  0  0  0  0
    8.7235   -5.8051   25.6050 C   0  0  0  0  0  0  0  0  0  0  0  0
    9.5321   -4.6257   26.1691 C   0  0  1  0  0  0  0  0  0  0  0  0
   10.6770    0.2470   20.0494 C   0  0  0  0  0  0  0  0  0  0  0  0
    5.4565   -5.4114   23.6539 C   0  0  0  0  0  0  0  0  0  0  0  0
    7.6155   -3.2055   26.9685 N   0  0  0  0  0  0  0  0  0  0  0  0
    9.3566    0.0257   23.6083 N   0  0  0  0  0  0  0  0  0  0  0  0
    8.0702   -3.0415   29.1361 N   0  0  0  0  0  0  0  0  0  0  0  0
    7.8257    1.5241   23.0225 N   0  0  0  0  0  0  0  0  0  0  0  0
    7.7229   -5.3619   24.6352 N   0  0  0  0  0  0  0  0  0  0  0  0
   10.5624   -0.1800   21.4522 N   0  0  0  0  0  0  0  0  0  0  0  0
   12.6326   -1.2471   21.5807 O   0  0  0  0  0  0  0  0  0  0  0  0
    5.9662   -6.4098   25.7431 O   0  0  0  0  0  0  0  0  0  0  0  0
    4.2547   -6.6938   23.5649 Cl  0  0  0  0  0  0  0  0  0  0  0  0
   12.4270   -1.3573   24.4988 H   0  0  0  0  0  0  0  0  0  0  0  0
   11.6027   -2.8448   26.2699 H   0  0  0  0  0  0  0  0  0  0  0  0
    9.4247   -2.8637   21.8133 H   0  0  0  0  0  0  0  0  0  0  0  0
    9.8723   -4.2036   29.2038 H   0  0  0  0  0  0  0  0  0  0  0  0
    8.3876    1.8164   20.9732 H   0  0  0  0  0  0  0  0  0  0  0  0
    6.3426   -2.0971   28.2807 H   0  0  0  0  0  0  0  0  0  0  0  0
    7.9012    0.7203   25.0114 H   0  0  0  0  0  0  0  0  0  0  0  0
    7.4380   -4.0022   23.0522 H   0  0  0  0  0  0  0  0  0  0  0  0
    8.5441   -5.3551   22.7375 H   0  0  0  0  0  0  0  0  0  0  0  0
    9.3885   -6.4987   25.0741 H   0  0  0  0  0  0  0  0  0  0  0  0
    8.2544   -6.3685   26.4192 H   0  0  0  0  0  0  0  0  0  0  0  0
   10.4428   -5.1115   26.6760 H   0  0  0  0  0  0  0  0  0  0  0  0
   11.3452    1.1184   19.9843 H   0  0  0  0  0  0  0  0  0  0  0  0
   11.0893   -0.5766   19.4480 H   0  0  0  0  0  0  0  0  0  0  0  0
    9.6822    0.5185   19.6665 H   0  0  0  0  0  0  0  0  0  0  0  0
    6.0172   -5.3610   22.7279 H   0  0  0  0  0  0  0  0  0  0  0  0
    4.9788   -4.4686   23.8930 H   0  0  0  0  0  0  0  0  0  0  0  0
    7.9759   -2.7741   30.1068 H   0  0  0  0  0  0  0  0  0  0  0  0
    7.0391    2.1552   23.0984 H   0  0  0  0  0  0  0  0  0  0  0  0
  1  2  2  0  0  0  0
  1  8  1  0  0  0  0
  2  9  1  0  0  0  0
  3  8  2  0  0  0  0
  3 10  1  0  0  0  0
  4 11  2  0  0  0  0
  4 22  1  0  0  0  0
  5 12  2  0  0  0  0
  5 23  1  0  0  0  0
  6 20  2  0  0  0  0
  6 22  1  0  0  0  0
  7 21  2  0  0  0  0
  7 23  1  0  0  0  0
  8 13  1  0  0  0  0
  9 10  2  0  0  0  0
  9 17  1  0  0  0  0
 10 15  1  0  0  0  0
 11 17  1  6  0  0  0
 11 20  1  0  0  0  0
 12 21  1  0  0  0  0
 12 25  1  0  0  0  0
 13 25  1  0  0  0  0
 13 26  2  0  0  0  0
 14 19  1  0  0  0  0
 14 24  1  0  0  0  0
 14 27  2  0  0  0  0
 15 24  1  0  0  0  0
 16 17  1  0  0  0  0
 16 24  1  0  0  0  0
 18 25  1  0  0  0  0
 19 28  1  0  0  0  0
  1 29  1  0  0  0  0
  2 30  1  0  0  0  0
  3 31  1  0  0  0  0
  4 32  1  0  0  0  0
  5 33  1  0  0  0  0
  6 34  1  0  0  0  0
  7 35  1  0  0  0  0
 15 36  1  0  0  0  0
 15 37  1  0  0  0  0
 16 38  1  0  0  0  0
 16 39  1  0  0  0  0
 17 40  1  0  0  0  0
 18 41  1  0  0  0  0
 18 42  1  0  0  0  0
 18 43  1  0  0  0  0
 19 44  1  0  0  0  0
 19 45  1  0  0  0  0
 22 46  1  0  0  0  0
 23 47  1  0  0  0  0
M  END
> <Chemgauss4 Score>
-5.42118263244629

> <Number of Confs>
200

$$$$
PAT-UNK-b2d-5
  -OEChem-03242005443D

 52 54  0     0  0  0  0  0  0999 V2000
   10.3450   -0.7164   27.8554 C   0  0  0  0  0  0  0  0  0  0  0  0
   11.1502   -0.5421   25.5543 C   0  0  0  0  0  0  0  0  0  0  0  0
   10.0992   -2.5948   26.3150 C   0  0  0  0  0  0  0  0  0  0  0  0
   11.7955   -1.6803   22.1413 C   0  0  0  0  0  0  0  0  0  0  0  0
   10.5325   -1.2934   26.5607 C   0  0  0  0  0  0  0  0  0  0  0  0
   11.3317   -1.1170   24.2807 C   0  0  0  0  0  0  0  0  0  0  0  0
   10.2684   -3.1860   25.0597 C   0  0  0  0  0  0  0  0  0  0  0  0
   11.9021   -0.6611   23.0593 C   0  0  0  0  0  0  0  0  0  0  0  0
   10.8876   -2.4231   24.0633 C   0  0  0  0  0  0  0  0  0  0  0  0
    4.6140   -6.4125   24.0516 C   0  0  0  0  0  0  0  0  0  0  0  0
    9.0850    1.6948   22.7130 C   0  0  0  0  0  0  0  0  0  0  0  0
    6.0869   -4.3438   24.1395 C   0  0  0  0  0  0  0  0  0  0  0  0
    6.5043   -6.2536   25.6372 C   0  0  0  0  0  0  0  0  0  0  0  0
    7.5935   -4.2401   23.8955 C   0  0  0  0  0  0  0  0  0  0  0  0
    8.0010   -6.1174   25.3599 C   0  0  0  0  0  0  0  0  0  0  0  0
    3.7623   -5.7132   23.0223 C   0  0  0  0  0  0  0  0  0  0  0  0
    8.0253    1.6308   21.6636 C   0  0  0  0  0  0  0  0  0  0  0  0
   12.5035    0.6647   22.8106 C   0  0  0  0  0  0  0  0  0  0  0  0
    9.7881   -4.5896   24.8290 C   0  0  0  0  0  0  0  0  0  0  0  0
   11.5439    1.8442   23.0512 C   0  0  0  0  0  0  0  0  0  0  0  0
   10.1928   -0.2480   28.9062 N   0  0  0  0  0  0  0  0  0  0  0  0
   11.1820   -2.7387   22.7560 N   0  0  0  0  0  0  0  0  0  0  0  0
    5.7091   -5.7021   24.5412 N   0  0  0  0  0  0  0  0  0  0  0  0
    8.3503   -4.7210   25.0607 N   0  0  0  0  0  0  0  0  0  0  0  0
   10.3758    1.7720   22.2149 N   0  0  0  0  0  0  0  0  0  0  0  0
    4.3164   -7.5561   24.4057 O   0  0  0  0  0  0  0  0  0  0  0  0
    8.7657    1.6776   23.8960 O   0  0  0  0  0  0  0  0  0  0  0  0
   11.4882    0.4734   25.7457 H   0  0  0  0  0  0  0  0  0  0  0  0
    9.6200   -3.1664   27.1088 H   0  0  0  0  0  0  0  0  0  0  0  0
   12.1012   -1.7494   21.1065 H   0  0  0  0  0  0  0  0  0  0  0  0
    5.7835   -3.6738   24.9535 H   0  0  0  0  0  0  0  0  0  0  0  0
    5.5547   -4.0234   23.2418 H   0  0  0  0  0  0  0  0  0  0  0  0
    6.2539   -7.3060   25.8062 H   0  0  0  0  0  0  0  0  0  0  0  0
    6.2290   -5.7030   26.5453 H   0  0  0  0  0  0  0  0  0  0  0  0
    7.8594   -4.8060   22.9926 H   0  0  0  0  0  0  0  0  0  0  0  0
    7.8377   -3.1880   23.7051 H   0  0  0  0  0  0  0  0  0  0  0  0
    8.5460   -6.4520   26.2508 H   0  0  0  0  0  0  0  0  0  0  0  0
    8.2859   -6.7817   24.5331 H   0  0  0  0  0  0  0  0  0  0  0  0
    4.1472   -5.9359   22.0326 H   0  0  0  0  0  0  0  0  0  0  0  0
    3.7954   -4.6433   23.2010 H   0  0  0  0  0  0  0  0  0  0  0  0
    2.7392   -6.0644   23.1101 H   0  0  0  0  0  0  0  0  0  0  0  0
    7.7878    0.5962   21.3684 H   0  0  0  0  0  0  0  0  0  0  0  0
    7.0705    2.0631   22.0034 H   0  0  0  0  0  0  0  0  0  0  0  0
    8.2614    2.1536   20.7229 H   0  0  0  0  0  0  0  0  0  0  0  0
   12.8639    0.7284   21.7648 H   0  0  0  0  0  0  0  0  0  0  0  0
   13.4126    0.8170   23.4268 H   0  0  0  0  0  0  0  0  0  0  0  0
    9.9941   -4.9040   23.8000 H   0  0  0  0  0  0  0  0  0  0  0  0
   10.2999   -5.2942   25.4930 H   0  0  0  0  0  0  0  0  0  0  0  0
   11.1902    1.8575   24.0870 H   0  0  0  0  0  0  0  0  0  0  0  0
   12.0378    2.7998   22.8468 H   0  0  0  0  0  0  0  0  0  0  0  0
   10.9747   -3.6235   22.3137 H   0  0  0  0  0  0  0  0  0  0  0  0
   10.5040    1.7780   21.2043 H   0  0  0  0  0  0  0  0  0  0  0  0
  1  5  1  0  0  0  0
  1 21  3  0  0  0  0
  2  5  2  0  0  0  0
  2  6  1  0  0  0  0
  3  5  1  0  0  0  0
  3  7  2  0  0  0  0
  4  8  2  0  0  0  0
  4 22  1  0  0  0  0
  6  8  1  0  0  0  0
  6  9  2  0  0  0  0
  7  9  1  0  0  0  0
  7 19  1  0  0  0  0
  8 18  1  0  0  0  0
  9 22  1  0  0  0  0
 10 16  1  0  0  0  0
 10 23  1  0  0  0  0
 10 26  2  0  0  0  0
 11 17  1  0  0  0  0
 11 25  1  0  0  0  0
 11 27  2  0  0  0  0
 12 14  1  0  0  0  0
 12 23  1  0  0  0  0
 13 15  1  0  0  0  0
 13 23  1  0  0  0  0
 14 24  1  0  0  0  0
 15 24  1  0  0  0  0
 18 20  1  0  0  0  0
 19 24  1  0  0  0  0
 20 25  1  0  0  0  0
  2 28  1  0  0  0  0
  3 29  1  0  0  0  0
  4 30  1  0  0  0  0
 12 31  1  0  0  0  0
 12 32  1  0  0  0  0
 13 33  1  0  0  0  0
 13 34  1  0  0  0  0
 14 35  1  0  0  0  0
 14 36  1  0  0  0  0
 15 37  1  0  0  0  0
 15 38  1  0  0  0  0
 16 39  1  0  0  0  0
 16 40  1  0  0  0  0
 16 41  1  0  0  0  0
 17 42  1  0  0  0  0
 17 43  1  0  0  0  0
 17 44  1  0  0  0  0
 18 45  1  0  0  0  0
 18 46  1  0  0  0  0
 19 47  1  0  0  0  0
 19 48  1  0  0  0  0
 20 49  1  0  0  0  0
 20 50  1  0  0  0  0
 22 51  1  0  0  0  0
 25 52  1  0  0  0  0
M  END
> <Chemgauss4 Score>
-5.41993522644043

> <Number of Confs>
200

$$$$
DAR-DIA-fc9-5
  -OEChem-03242005443D

 34 36  0     1  0  0  0  0  0999 V2000
   13.3333    0.7434   21.9408 C   0  0  0  0  0  0  0  0  0  0  0  0
   12.2359    1.4229   22.4696 C   0  0  0  0  0  0  0  0  0  0  0  0
   13.3933   -0.6483   22.0139 C   0  0  0  0  0  0  0  0  0  0  0  0
    9.1057   -4.2685   28.4197 C   0  0  0  0  0  0  0  0  0  0  0  0
   11.1986    0.7108   23.0716 C   0  0  0  0  0  0  0  0  0  0  0  0
   12.3560   -1.3604   22.6160 C   0  0  0  0  0  0  0  0  0  0  0  0
    8.9976   -3.4061   27.3343 C   0  0  0  0  0  0  0  0  0  0  0  0
    8.6222   -5.5587   28.2736 C   0  0  0  0  0  0  0  0  0  0  0  0
    7.9648   -5.1628   26.1081 C   0  0  0  0  0  0  0  0  0  0  0  0
   11.2586   -0.6809   23.1448 C   0  0  0  0  0  0  0  0  0  0  0  0
    8.4173   -3.8540   26.1528 C   0  0  0  0  0  0  0  0  0  0  0  0
    9.4220   -0.8553   24.8122 C   0  0  0  0  0  0  0  0  0  0  0  0
    8.1397   -1.5779   25.1970 C   0  0  0  0  0  0  0  0  0  0  0  0
   10.0370   -2.8416   23.4003 C   0  0  0  0  0  0  0  0  0  0  0  0
    8.6670   -3.4211   23.7085 C   0  0  0  0  0  0  0  0  0  0  0  0
    8.0525   -6.0298   27.1418 N   0  0  0  0  0  0  0  0  0  0  0  0
   10.1819   -1.4197   23.7695 N   0  0  0  0  0  0  0  0  0  0  0  0
    8.2959   -3.0157   25.0526 N   0  0  1  0  0  0  0  0  0  0  0  0
    9.6856    0.1994   25.3971 O   0  0  0  0  0  0  0  0  0  0  0  0
   14.1408    1.2976   21.4712 H   0  0  0  0  0  0  0  0  0  0  0  0
   12.1884    2.5064   22.4121 H   0  0  0  0  0  0  0  0  0  0  0  0
   14.2475   -1.1772   21.6011 H   0  0  0  0  0  0  0  0  0  0  0  0
    9.5544   -3.9411   29.3506 H   0  0  0  0  0  0  0  0  0  0  0  0
   10.3483    1.2511   23.4802 H   0  0  0  0  0  0  0  0  0  0  0  0
   12.4136   -2.4449   22.6672 H   0  0  0  0  0  0  0  0  0  0  0  0
    9.3682   -2.3881   27.4196 H   0  0  0  0  0  0  0  0  0  0  0  0
    8.6829   -6.2702   29.0905 H   0  0  0  0  0  0  0  0  0  0  0  0
    7.5029   -5.5698   25.2136 H   0  0  0  0  0  0  0  0  0  0  0  0
    7.8920   -1.3156   26.2269 H   0  0  0  0  0  0  0  0  0  0  0  0
    7.3468   -1.2172   24.5386 H   0  0  0  0  0  0  0  0  0  0  0  0
   10.8290   -3.4003   23.9407 H   0  0  0  0  0  0  0  0  0  0  0  0
   10.2596   -2.9543   22.3197 H   0  0  0  0  0  0  0  0  0  0  0  0
    7.9316   -3.0467   23.0035 H   0  0  0  0  0  0  0  0  0  0  0  0
    8.7172   -4.5025   23.6231 H   0  0  0  0  0  0  0  0  0  0  0  0
  1  2  1  0  0  0  0
  1  3  2  0  0  0  0
  2  5  2  0  0  0  0
  3  6  1  0  0  0  0
  4  7  2  0  0  0  0
  4  8  1  0  0  0  0
  5 10  1  0  0  0  0
  6 10  2  0  0  0  0
  7 11  1  0  0  0  0
  8 16  2  0  0  0  0
  9 11  2  0  0  0  0
  9 16  1  0  0  0  0
 10 17  1  0  0  0  0
 11 18  1  1  0  0  0
 12 13  1  0  0  0  0
 12 17  1  0  0  0  0
 12 19  2  0  0  0  0
 13 18  1  0  0  0  0
 14 15  1  0  0  0  0
 14 17  1  0  0  0  0
 15 18  1  0  0  0  0
  1 20  1  0  0  0  0
  2 21  1  0  0  0  0
  3 22  1  0  0  0  0
  4 23  1  0  0  0  0
  5 24  1  0  0  0  0
  6 25  1  0  0  0  0
  7 26  1  0  0  0  0
  8 27  1  0  0  0  0
  9 28  1  0  0  0  0
 13 29  1  0  0  0  0
 13 30  1  0  0  0  0
 14 31  1  0  0  0  0
 14 32  1  0  0  0  0
 15 33  1  0  0  0  0
 15 34  1  0  0  0  0
M  END
> <Chemgauss4 Score>
-5.41031360626221

> <Number of Confs>
39

$$$$
SAL-INS-316-2
  -OEChem-03242005443D

 40 43  0     0  0  0  0  0  0999 V2000
    7.0915    0.5109   18.9967 C   0  0  0  0  0  0  0  0  0  0  0  0
    9.1157   -2.8696   23.2570 C   0  0  0  0  0  0  0  0  0  0  0  0
    6.8163    1.1329   17.7959 C   0  0  0  0  0  0  0  0  0  0  0  0
    4.9696   -4.9446   26.8997 C   0  0  0  0  0  0  0  0  0  0  0  0
    5.4408   -5.9999   26.1547 C   0  0  0  0  0  0  0  0  0  0  0  0
   10.4385   -5.0341   25.8579 C   0  0  0  0  0  0  0  0  0  0  0  0
    5.3264    2.5248   18.8008 C   0  0  0  0  0  0  0  0  0  0  0  0
    9.5504   -4.2215   26.5283 C   0  0  0  0  0  0  0  0  0  0  0  0
    9.5752   -3.6682   24.3366 C   0  0  0  0  0  0  0  0  0  0  0  0
    9.0075   -3.3540   25.5373 C   0  0  0  0  0  0  0  0  0  0  0  0
    6.4005    0.9915   20.0901 C   0  0  0  0  0  0  0  0  0  0  0  0
    8.1878   -1.9577   23.7130 C   0  0  0  0  0  0  0  0  0  0  0  0
    6.9254   -5.3369   27.6423 C   0  0  0  0  0  0  0  0  0  0  0  0
    7.5291   -0.6733   21.6308 C   0  0  0  0  0  0  0  0  0  0  0  0
    9.1813   -4.1860   27.9465 C   0  0  0  0  0  0  0  0  0  0  0  0
    8.2289   -5.3235   28.4029 C   0  0  0  0  0  0  0  0  0  0  0  0
    5.9363    2.1467   17.6613 N   0  0  0  0  0  0  0  0  0  0  0  0
    5.8987   -4.5364   27.8237 N   0  0  0  0  0  0  0  0  0  0  0  0
    5.5074    2.0010   20.0282 N   0  0  0  0  0  0  0  0  0  0  0  0
   10.4572   -4.7027   24.5296 N   0  0  0  0  0  0  0  0  0  0  0  0
    6.6948   -6.2396   26.6416 N   0  0  0  0  0  0  0  0  0  0  0  0
    6.6496    0.3826   21.3428 N   0  0  0  0  0  0  0  0  0  0  0  0
    7.4914   -1.0000   23.0251 N   0  0  0  0  0  0  0  0  0  0  0  0
    8.2395   -1.2482   20.8123 O   0  0  0  0  0  0  0  0  0  0  0  0
    7.8714   -2.0529   25.4027 S   0  0  0  0  0  0  0  0  0  0  0  0
    7.8062   -0.3001   19.0614 H   0  0  0  0  0  0  0  0  0  0  0  0
    9.4386   -2.9564   22.2274 H   0  0  0  0  0  0  0  0  0  0  0  0
    7.3102    0.8235   16.8810 H   0  0  0  0  0  0  0  0  0  0  0  0
    4.0094   -4.4572   26.8166 H   0  0  0  0  0  0  0  0  0  0  0  0
    5.0144   -6.5827   25.3513 H   0  0  0  0  0  0  0  0  0  0  0  0
   11.0700   -5.8339   26.2189 H   0  0  0  0  0  0  0  0  0  0  0  0
    4.6147    3.3374   18.7218 H   0  0  0  0  0  0  0  0  0  0  0  0
   10.0904   -4.2472   28.5843 H   0  0  0  0  0  0  0  0  0  0  0  0
    8.7252   -3.2120   28.2334 H   0  0  0  0  0  0  0  0  0  0  0  0
    8.0012   -5.2270   29.4726 H   0  0  0  0  0  0  0  0  0  0  0  0
    8.7333   -6.2922   28.2946 H   0  0  0  0  0  0  0  0  0  0  0  0
   11.0096   -5.1236   23.7930 H   0  0  0  0  0  0  0  0  0  0  0  0
    7.3332   -6.9559   26.3214 H   0  0  0  0  0  0  0  0  0  0  0  0
    6.1275    0.7557   22.1316 H   0  0  0  0  0  0  0  0  0  0  0  0
    6.8300   -0.4053   23.5589 H   0  0  0  0  0  0  0  0  0  0  0  0
  1  3  2  0  0  0  0
  1 11  1  0  0  0  0
  2  9  1  0  0  0  0
  2 12  2  0  0  0  0
  3 17  1  0  0  0  0
  4  5  2  0  0  0  0
  4 18  1  0  0  0  0
  5 21  1  0  0  0  0
  6  8  2  0  0  0  0
  6 20  1  0  0  0  0
  7 17  2  0  0  0  0
  7 19  1  0  0  0  0
  8 10  1  0  0  0  0
  8 15  1  0  0  0  0
  9 10  2  0  0  0  0
  9 20  1  0  0  0  0
 10 25  1  0  0  0  0
 11 19  2  0  0  0  0
 11 22  1  0  0  0  0
 12 23  1  0  0  0  0
 12 25  1  0  0  0  0
 13 16  1  0  0  0  0
 13 18  2  0  0  0  0
 13 21  1  0  0  0  0
 14 22  1  0  0  0  0
 14 23  1  0  0  0  0
 14 24  2  0  0  0  0
 15 16  1  0  0  0  0
  1 26  1  0  0  0  0
  2 27  1  0  0  0  0
  3 28  1  0  0  0  0
  4 29  1  0  0  0  0
  5 30  1  0  0  0  0
  6 31  1  0  0  0  0
  7 32  1  0  0  0  0
 15 33  1  0  0  0  0
 15 34  1  0  0  0  0
 16 35  1  0  0  0  0
 16 36  1  0  0  0  0
 20 37  1  0  0  0  0
 21 38  1  0  0  0  0
 22 39  1  0  0  0  0
 23 40  1  0  0  0  0
M  END
> <Chemgauss4 Score>
-5.40658473968506

> <Number of Confs>
64

$$$$
SAL-INS-1c7-2
  -OEChem-03242005443D

 50 53  0     1  0  0  0  0  0999 V2000
   13.8126   -1.1698   22.1907 C   0  0  0  0  0  0  0  0  0  0  0  0
   12.6694   -1.9644   22.2760 C   0  0  0  0  0  0  0  0  0  0  0  0
   13.8484    0.0712   22.8266 C   0  0  0  0  0  0  0  0  0  0  0  0
    9.5946   -2.4569   27.0295 C   0  0  0  0  0  0  0  0  0  0  0  0
   11.5620   -1.5180   22.9971 C   0  0  0  0  0  0  0  0  0  0  0  0
   12.7410    0.5176   23.5477 C   0  0  0  0  0  0  0  0  0  0  0  0
   10.2427   -1.4422   26.3268 C   0  0  0  0  0  0  0  0  0  0  0  0
    7.7813   -2.3953   25.4391 C   0  0  0  0  0  0  0  0  0  0  0  0
    9.2387   -5.3506   25.1048 C   0  0  0  0  0  0  0  0  0  0  0  0
   10.9768   -6.6286   25.5546 C   0  0  0  0  0  0  0  0  0  0  0  0
    8.3637   -2.9321   26.5868 C   0  0  0  0  0  0  0  0  0  0  0  0
   11.5978   -0.2770   23.6330 C   0  0  0  0  0  0  0  0  0  0  0  0
    9.6650   -0.8913   25.1712 C   0  0  0  0  0  0  0  0  0  0  0  0
    8.4253   -1.3781   24.7183 C   0  0  0  0  0  0  0  0  0  0  0  0
    9.2986   -5.6657   26.4418 C   0  0  0  0  0  0  0  0  0  0  0  0
    7.6854   -3.9886   27.3209 C   0  0  0  0  0  0  0  0  0  0  0  0
    8.4719    0.3430   21.3525 C   0  0  0  0  0  0  0  0  0  0  0  0
    7.7566   -0.8292   23.4817 C   0  0  0  0  0  0  0  0  0  0  0  0
    9.4224    1.0112   23.5324 C   0  0  0  0  0  0  0  0  0  0  0  0
   10.3891    0.2110   24.4203 C   0  0  2  0  0  0  0  0  0  0  0  0
    8.1127   -6.0907   28.6319 C   0  0  0  0  0  0  0  0  0  0  0  0
    7.4587   -0.4988   20.6172 C   0  0  0  0  0  0  0  0  0  0  0  0
   10.3830   -6.4612   26.7154 N   0  0  0  0  0  0  0  0  0  0  0  0
   10.3205   -5.9741   24.5496 N   0  0  0  0  0  0  0  0  0  0  0  0
    8.5709    0.1341   22.7301 N   0  0  0  0  0  0  0  0  0  0  0  0
    8.3609   -5.2363   27.4608 N   0  0  0  0  0  0  0  0  0  0  0  0
    6.5533   -3.7983   27.7863 O   0  0  0  0  0  0  0  0  0  0  0  0
    9.1566    1.1526   20.7223 O   0  0  0  0  0  0  0  0  0  0  0  0
    6.8793    0.4741   19.2701 Cl  0  0  0  0  0  0  0  0  0  0  0  0
   14.6753   -1.5181   21.6302 H   0  0  0  0  0  0  0  0  0  0  0  0
   12.6417   -2.9312   21.7818 H   0  0  0  0  0  0  0  0  0  0  0  0
   14.7387    0.6897   22.7613 H   0  0  0  0  0  0  0  0  0  0  0  0
   10.0590   -2.8677   27.9223 H   0  0  0  0  0  0  0  0  0  0  0  0
   10.6755   -2.1438   23.0580 H   0  0  0  0  0  0  0  0  0  0  0  0
   12.7779    1.4859   24.0398 H   0  0  0  0  0  0  0  0  0  0  0  0
   11.2026   -1.0793   26.6863 H   0  0  0  0  0  0  0  0  0  0  0  0
    6.8183   -2.7694   25.0966 H   0  0  0  0  0  0  0  0  0  0  0  0
    8.5518   -4.7611   24.5141 H   0  0  0  0  0  0  0  0  0  0  0  0
   11.8748   -7.2026   25.3758 H   0  0  0  0  0  0  0  0  0  0  0  0
    7.4819   -1.6660   22.8336 H   0  0  0  0  0  0  0  0  0  0  0  0
    6.8392   -0.3034   23.7729 H   0  0  0  0  0  0  0  0  0  0  0  0
    8.7462    1.6083   24.1586 H   0  0  0  0  0  0  0  0  0  0  0  0
    9.9702    1.7156   22.8961 H   0  0  0  0  0  0  0  0  0  0  0  0
   10.7887    0.9345   25.1831 H   0  0  0  0  0  0  0  0  0  0  0  0
    8.8203   -5.8305   29.4329 H   0  0  0  0  0  0  0  0  0  0  0  0
    7.0834   -5.9355   28.9873 H   0  0  0  0  0  0  0  0  0  0  0  0
    8.2485   -7.1456   28.3513 H   0  0  0  0  0  0  0  0  0  0  0  0
    6.6404   -0.7293   21.2894 H   0  0  0  0  0  0  0  0  0  0  0  0
    7.9473   -1.3929   20.2484 H   0  0  0  0  0  0  0  0  0  0  0  0
   10.5859   -5.9562   23.5739 H   0  0  0  0  0  0  0  0  0  0  0  0
  1  2  1  0  0  0  0
  1  3  2  0  0  0  0
  2  5  2  0  0  0  0
  3  6  1  0  0  0  0
  4  7  2  0  0  0  0
  4 11  1  0  0  0  0
  5 12  1  0  0  0  0
  6 12  2  0  0  0  0
  7 13  1  0  0  0  0
  8 11  2  0  0  0  0
  8 14  1  0  0  0  0
  9 15  2  0  0  0  0
  9 24  1  0  0  0  0
 10 23  2  0  0  0  0
 10 24  1  0  0  0  0
 11 16  1  0  0  0  0
 12 20  1  6  0  0  0
 13 14  2  0  0  0  0
 13 20  1  0  0  0  0
 14 18  1  0  0  0  0
 15 23  1  0  0  0  0
 15 26  1  0  0  0  0
 16 26  1  0  0  0  0
 16 27  2  0  0  0  0
 17 22  1  0  0  0  0
 17 25  1  0  0  0  0
 17 28  2  0  0  0  0
 18 25  1  0  0  0  0
 19 20  1  0  0  0  0
 19 25  1  0  0  0  0
 21 26  1  0  0  0  0
 22 29  1  0  0  0  0
  1 30  1  0  0  0  0
  2 31  1  0  0  0  0
  3 32  1  0  0  0  0
  4 33  1  0  0  0  0
  5 34  1  0  0  0  0
  6 35  1  0  0  0  0
  7 36  1  0  0  0  0
  8 37  1  0  0  0  0
  9 38  1  0  0  0  0
 10 39  1  0  0  0  0
 18 40  1  0  0  0  0
 18 41  1  0  0  0  0
 19 42  1  0  0  0  0
 19 43  1  0  0  0  0
 20 44  1  0  0  0  0
 21 45  1  0  0  0  0
 21 46  1  0  0  0  0
 21 47  1  0  0  0  0
 22 48  1  0  0  0  0
 22 49  1  0  0  0  0
 24 50  1  0  0  0  0
M  END
> <Chemgauss4 Score>
-5.39098739624023

> <Number of Confs>
137

$$$$
HAR-NEW-972-1
  -OEChem-03242005443D

 45 47  0     1  0  0  0  0  0999 V2000
   10.4390   -4.2463   25.0176 C   0  0  0  0  0  0  0  0  0  0  0  0
    9.2279   -4.3918   25.7374 C   0  0  0  0  0  0  0  0  0  0  0  0
   10.4351   -2.9842   24.4604 C   0  0  0  0  0  0  0  0  0  0  0  0
    8.5248   -3.2130   25.5901 C   0  0  0  0  0  0  0  0  0  0  0  0
    9.1680   -0.3884   21.4594 C   0  0  0  0  0  0  0  0  0  0  0  0
    8.7038   -5.5507   26.5141 C   0  0  0  0  0  0  0  0  0  0  0  0
    7.2059   -2.8919   26.1931 C   0  0  0  0  0  0  0  0  0  0  0  0
    6.5441   -4.1843   26.7095 C   0  0  0  0  0  0  0  0  0  0  0  0
   12.4882    0.0175   23.3171 C   0  0  0  0  0  0  0  0  0  0  0  0
   12.0578   -1.0525   24.3126 C   0  0  0  0  0  0  0  0  0  0  0  0
   11.2914    0.4917   22.4966 C   0  0  0  0  0  0  0  0  0  0  0  0
   10.9371   -1.9596   22.1812 C   0  0  0  0  0  0  0  0  0  0  0  0
   11.4669   -2.2823   23.5940 C   0  0  2  0  0  0  0  0  0  0  0  0
    7.5248   -5.1420   27.4352 C   0  0  2  0  0  0  0  0  0  0  0  0
    8.7543    1.0520   21.2776 C   0  0  0  0  0  0  0  0  0  0  0  0
    8.0287   -4.5375   28.7502 C   0  0  0  0  0  0  0  0  0  0  0  0
    9.2639   -2.3628   24.8162 N   0  0  0  0  0  0  0  0  0  0  0  0
   10.4100   -0.5995   22.0644 N   0  0  0  0  0  0  0  0  0  0  0  0
    7.0001   -4.5966   29.7333 N   0  0  0  0  0  0  0  0  0  0  0  0
    8.4123   -1.2896   21.0889 O   0  0  0  0  0  0  0  0  0  0  0  0
    7.1902    1.0288   20.4709 Cl  0  0  0  0  0  0  0  0  0  0  0  0
   11.2287   -4.9785   24.9171 H   0  0  0  0  0  0  0  0  0  0  0  0
    8.3782   -6.3468   25.8301 H   0  0  0  0  0  0  0  0  0  0  0  0
    9.5259   -5.9629   27.1177 H   0  0  0  0  0  0  0  0  0  0  0  0
    7.3121   -2.1755   27.0144 H   0  0  0  0  0  0  0  0  0  0  0  0
    6.5654   -2.4337   25.4306 H   0  0  0  0  0  0  0  0  0  0  0  0
    5.7265   -3.9175   27.4031 H   0  0  0  0  0  0  0  0  0  0  0  0
    6.0638   -4.7018   25.8620 H   0  0  0  0  0  0  0  0  0  0  0  0
   12.9283    0.8628   23.8489 H   0  0  0  0  0  0  0  0  0  0  0  0
   13.2517   -0.3862   22.6478 H   0  0  0  0  0  0  0  0  0  0  0  0
   12.9165   -1.3524   24.9267 H   0  0  0  0  0  0  0  0  0  0  0  0
   11.3138   -0.6297   25.0017 H   0  0  0  0  0  0  0  0  0  0  0  0
   10.6720    1.1885   23.0912 H   0  0  0  0  0  0  0  0  0  0  0  0
   11.6485    1.0694   21.6257 H   0  0  0  0  0  0  0  0  0  0  0  0
   11.7306   -2.1543   21.4410 H   0  0  0  0  0  0  0  0  0  0  0  0
   10.1118   -2.6463   21.9122 H   0  0  0  0  0  0  0  0  0  0  0  0
   12.3098   -3.0294   23.4715 H   0  0  0  0  0  0  0  0  0  0  0  0
    6.9577   -6.0616   27.6877 H   0  0  0  0  0  0  0  0  0  0  0  0
    9.4871    1.5521   20.6546 H   0  0  0  0  0  0  0  0  0  0  0  0
    8.6638    1.5172   22.2524 H   0  0  0  0  0  0  0  0  0  0  0  0
    8.8928   -5.1210   29.0634 H   0  0  0  0  0  0  0  0  0  0  0  0
    8.3050   -3.5045   28.5456 H   0  0  0  0  0  0  0  0  0  0  0  0
    8.9908   -1.4276   24.5456 H   0  0  0  0  0  0  0  0  0  0  0  0
    6.7900   -3.6744   30.0715 H   0  0  0  0  0  0  0  0  0  0  0  0
    6.1661   -4.9935   29.3386 H   0  0  0  0  0  0  0  0  0  0  0  0
  1  2  1  0  0  0  0
  1  3  2  0  0  0  0
  2  4  2  0  0  0  0
  2  6  1  0  0  0  0
  3 13  1  1  0  0  0
  3 17  1  0  0  0  0
  4  7  1  0  0  0  0
  4 17  1  0  0  0  0
  5 15  1  0  0  0  0
  5 18  1  0  0  0  0
  5 20  2  0  0  0  0
  6 14  1  0  0  0  0
  7  8  1  0  0  0  0
  8 14  1  0  0  0  0
  9 10  1  0  0  0  0
  9 11  1  0  0  0  0
 10 13  1  0  0  0  0
 11 18  1  0  0  0  0
 12 13  1  0  0  0  0
 12 18  1  0  0  0  0
 14 16  1  6  0  0  0
 15 21  1  0  0  0  0
 16 19  1  0  0  0  0
  1 22  1  0  0  0  0
  6 23  1  0  0  0  0
  6 24  1  0  0  0  0
  7 25  1  0  0  0  0
  7 26  1  0  0  0  0
  8 27  1  0  0  0  0
  8 28  1  0  0  0  0
  9 29  1  0  0  0  0
  9 30  1  0  0  0  0
 10 31  1  0  0  0  0
 10 32  1  0  0  0  0
 11 33  1  0  0  0  0
 11 34  1  0  0  0  0
 12 35  1  0  0  0  0
 12 36  1  0  0  0  0
 13 37  1  0  0  0  0
 14 38  1  0  0  0  0
 15 39  1  0  0  0  0
 15 40  1  0  0  0  0
 16 41  1  0  0  0  0
 16 42  1  0  0  0  0
 17 43  1  0  0  0  0
 19 44  1  0  0  0  0
 19 45  1  0  0  0  0
M  END
> <Chemgauss4 Score>
-5.38805389404297

> <Number of Confs>
200

$$$$
CHR-SOS-e96-1
  -OEChem-03242005443D

 49 51  0     0  0  0  0  0  0999 V2000
    7.4590    0.3038   24.5899 C   0  0  0  0  0  0  0  0  0  0  0  0
    5.3076   -4.3675   27.8076 C   0  0  0  0  0  0  0  0  0  0  0  0
    8.7896   -0.0483   24.8159 C   0  0  0  0  0  0  0  0  0  0  0  0
    6.3632   -3.5047   27.5346 C   0  0  0  0  0  0  0  0  0  0  0  0
    6.5694   -0.6330   24.0638 C   0  0  0  0  0  0  0  0  0  0  0  0
    8.3411   -2.2738   23.9896 C   0  0  0  0  0  0  0  0  0  0  0  0
    5.5203   -5.7262   27.6388 C   0  0  0  0  0  0  0  0  0  0  0  0
    7.6930   -5.3939   26.9699 C   0  0  0  0  0  0  0  0  0  0  0  0
    9.2307   -1.3370   24.5157 C   0  0  0  0  0  0  0  0  0  0  0  0
    7.5820   -4.0196   27.1072 C   0  0  0  0  0  0  0  0  0  0  0  0
    7.0104   -1.9218   23.7637 C   0  0  0  0  0  0  0  0  0  0  0  0
    9.9457   -3.5322   26.3879 C   0  0  0  0  0  0  0  0  0  0  0  0
   12.2970   -1.0706   22.2773 C   0  0  0  0  0  0  0  0  0  0  0  0
   11.4247   -2.3181   22.3515 C   0  0  0  0  0  0  0  0  0  0  0  0
   11.8090    0.0179   23.2257 C   0  0  0  0  0  0  0  0  0  0  0  0
   11.2616   -2.8131   23.7919 C   0  0  0  0  0  0  0  0  0  0  0  0
   11.6776   -0.5088   24.6557 C   0  0  0  0  0  0  0  0  0  0  0  0
   10.7165   -1.7293   24.7683 C   0  0  0  0  0  0  0  0  0  0  0  0
   10.8066   -2.2980   26.2044 C   0  0  0  0  0  0  0  0  0  0  0  0
    6.6900   -6.2636   27.2256 N   0  0  0  0  0  0  0  0  0  0  0  0
    6.0854   -2.8147   21.4287 N   0  0  0  0  0  0  0  0  0  0  0  0
    8.6745   -3.1666   26.8214 N   0  0  0  0  0  0  0  0  0  0  0  0
   10.3621   -4.6652   26.1702 O   0  0  0  0  0  0  0  0  0  0  0  0
    6.3929   -4.4262   23.4173 O   0  0  0  0  0  0  0  0  0  0  0  0
    4.5446   -2.7155   23.4910 O   0  0  0  0  0  0  0  0  0  0  0  0
    5.8968   -3.0933   23.1040 S   0  0  0  0  0  0  0  0  0  0  0  0
    7.1153    1.3071   24.8243 H   0  0  0  0  0  0  0  0  0  0  0  0
    4.3487   -3.9884   28.1420 H   0  0  0  0  0  0  0  0  0  0  0  0
    9.4754    0.6879   25.2270 H   0  0  0  0  0  0  0  0  0  0  0  0
    6.2253   -2.4337   27.6582 H   0  0  0  0  0  0  0  0  0  0  0  0
    5.5351   -0.3475   23.8914 H   0  0  0  0  0  0  0  0  0  0  0  0
    8.6862   -3.2783   23.7563 H   0  0  0  0  0  0  0  0  0  0  0  0
    4.7285   -6.4408   27.8378 H   0  0  0  0  0  0  0  0  0  0  0  0
    8.6191   -5.8553   26.6402 H   0  0  0  0  0  0  0  0  0  0  0  0
   13.3307   -1.3360   22.5314 H   0  0  0  0  0  0  0  0  0  0  0  0
   12.3106   -0.6888   21.2502 H   0  0  0  0  0  0  0  0  0  0  0  0
   10.4407   -2.1041   21.9174 H   0  0  0  0  0  0  0  0  0  0  0  0
   11.8704   -3.1123   21.7415 H   0  0  0  0  0  0  0  0  0  0  0  0
   12.5148    0.8564   23.2102 H   0  0  0  0  0  0  0  0  0  0  0  0
   10.8476    0.4115   22.8756 H   0  0  0  0  0  0  0  0  0  0  0  0
   10.5930   -3.6840   23.7894 H   0  0  0  0  0  0  0  0  0  0  0  0
   12.2362   -3.1710   24.1505 H   0  0  0  0  0  0  0  0  0  0  0  0
   12.6733   -0.7862   25.0267 H   0  0  0  0  0  0  0  0  0  0  0  0
   11.3206    0.3067   25.2982 H   0  0  0  0  0  0  0  0  0  0  0  0
   10.4833   -1.5285   26.9076 H   0  0  0  0  0  0  0  0  0  0  0  0
   11.8465   -2.5523   26.4168 H   0  0  0  0  0  0  0  0  0  0  0  0
    5.7000   -1.9462   21.0382 H   0  0  0  0  0  0  0  0  0  0  0  0
    6.9619   -3.1161   20.9856 H   0  0  0  0  0  0  0  0  0  0  0  0
    8.4961   -2.1729   26.9519 H   0  0  0  0  0  0  0  0  0  0  0  0
  1  3  1  0  0  0  0
  1  5  2  0  0  0  0
  2  4  2  0  0  0  0
  2  7  1  0  0  0  0
  3  9  2  0  0  0  0
  4 10  1  0  0  0  0
  5 11  1  0  0  0  0
  6  9  1  0  0  0  0
  6 11  2  0  0  0  0
  7 20  2  0  0  0  0
  8 10  2  0  0  0  0
  8 20  1  0  0  0  0
  9 18  1  0  0  0  0
 10 22  1  0  0  0  0
 11 26  1  0  0  0  0
 12 19  1  0  0  0  0
 12 22  1  0  0  0  0
 12 23  2  0  0  0  0
 13 14  1  0  0  0  0
 13 15  1  0  0  0  0
 14 16  1  0  0  0  0
 15 17  1  0  0  0  0
 16 18  1  0  0  0  0
 17 18  1  0  0  0  0
 18 19  1  0  0  0  0
 21 26  1  0  0  0  0
 24 26  2  0  0  0  0
 25 26  2  0  0  0  0
  1 27  1  0  0  0  0
  2 28  1  0  0  0  0
  3 29  1  0  0  0  0
  4 30  1  0  0  0  0
  5 31  1  0  0  0  0
  6 32  1  0  0  0  0
  7 33  1  0  0  0  0
  8 34  1  0  0  0  0
 13 35  1  0  0  0  0
 13 36  1  0  0  0  0
 14 37  1  0  0  0  0
 14 38  1  0  0  0  0
 15 39  1  0  0  0  0
 15 40  1  0  0  0  0
 16 41  1  0  0  0  0
 16 42  1  0  0  0  0
 17 43  1  0  0  0  0
 17 44  1  0  0  0  0
 19 45  1  0  0  0  0
 19 46  1  0  0  0  0
 21 47  1  0  0  0  0
 21 48  1  0  0  0  0
 22 49  1  0  0  0  0
M  END
> <Chemgauss4 Score>
-5.38767290115356

> <Number of Confs>
200

$$$$
SAL-INS-cba-4
  -OEChem-03242005443D

 60 64  0     0  0  0  0  0  0999 V2000
    9.0011   -4.2456   28.8476 C   0  0  0  0  0  0  0  0  0  0  0  0
    4.6867   -7.2624   26.7117 C   0  0  0  0  0  0  0  0  0  0  0  0
    9.4936    1.6715   22.7682 C   0  0  0  0  0  0  0  0  0  0  0  0
    4.1381   -6.0253   26.9544 C   0  0  0  0  0  0  0  0  0  0  0  0
    8.6623    1.1337   20.8840 C   0  0  0  0  0  0  0  0  0  0  0  0
    9.3791   -4.1666   25.3023 C   0  0  0  0  0  0  0  0  0  0  0  0
    9.0647   -4.6019   26.6162 C   0  0  0  0  0  0  0  0  0  0  0  0
    9.3618   -3.6895   27.5867 C   0  0  0  0  0  0  0  0  0  0  0  0
    8.4923   -5.4947   28.5656 C   0  0  0  0  0  0  0  0  0  0  0  0
   10.1720    0.5416   22.3763 C   0  0  0  0  0  0  0  0  0  0  0  0
    9.9178   -2.8984   25.3472 C   0  0  0  0  0  0  0  0  0  0  0  0
    5.6063   -6.5739   28.5036 C   0  0  0  0  0  0  0  0  0  0  0  0
   10.9137   -0.7888   24.3969 C   0  0  0  0  0  0  0  0  0  0  0  0
    7.4650   -6.6457   23.1067 C   0  0  0  0  0  0  0  0  0  0  0  0
    6.8612   -4.2035   23.3675 C   0  0  0  0  0  0  0  0  0  0  0  0
    5.9908   -6.9856   22.9090 C   0  0  0  0  0  0  0  0  0  0  0  0
    5.3887   -4.5504   23.1694 C   0  0  0  0  0  0  0  0  0  0  0  0
    7.6449   -5.3828   23.9606 C   0  0  0  0  0  0  0  0  0  0  0  0
    5.2144   -5.8083   22.3226 C   0  0  0  0  0  0  0  0  0  0  0  0
    9.1251   -5.0316   24.0986 C   0  0  0  0  0  0  0  0  0  0  0  0
   11.2764   -0.2549   23.0201 C   0  0  0  0  0  0  0  0  0  0  0  0
    7.9608   -6.5260   29.4793 C   0  0  0  0  0  0  0  0  0  0  0  0
    6.4410   -6.4217   29.7518 C   0  0  0  0  0  0  0  0  0  0  0  0
    8.5550    2.0347   21.8351 N   0  0  0  0  0  0  0  0  0  0  0  0
    5.5997   -7.5983   27.6798 N   0  0  0  0  0  0  0  0  0  0  0  0
    4.7365   -5.5969   28.1058 N   0  0  0  0  0  0  0  0  0  0  0  0
    9.6282    0.2086   21.1678 N   0  0  0  0  0  0  0  0  0  0  0  0
    8.5288   -5.7153   27.2149 N   0  0  0  0  0  0  0  0  0  0  0  0
   10.3606   -2.0958   24.3293 N   0  0  0  0  0  0  0  0  0  0  0  0
   11.0914   -0.1366   25.4207 O   0  0  0  0  0  0  0  0  0  0  0  0
    3.8289   -6.1295   22.2654 O   0  0  0  0  0  0  0  0  0  0  0  0
   10.0469   -2.2389   26.9324 S   0  0  0  0  0  0  0  0  0  0  0  0
    9.1011   -3.7921   29.8238 H   0  0  0  0  0  0  0  0  0  0  0  0
    4.4697   -7.9289   25.8900 H   0  0  0  0  0  0  0  0  0  0  0  0
    9.6314    2.2438   23.6746 H   0  0  0  0  0  0  0  0  0  0  0  0
    3.4030   -5.4303   26.4324 H   0  0  0  0  0  0  0  0  0  0  0  0
    8.0785    1.0940   19.9754 H   0  0  0  0  0  0  0  0  0  0  0  0
    7.9712   -7.4941   23.5823 H   0  0  0  0  0  0  0  0  0  0  0  0
    7.9371   -6.5042   22.1260 H   0  0  0  0  0  0  0  0  0  0  0  0
    7.2966   -3.9132   22.4027 H   0  0  0  0  0  0  0  0  0  0  0  0
    6.9421   -3.3316   24.0274 H   0  0  0  0  0  0  0  0  0  0  0  0
    5.8911   -7.8584   22.2525 H   0  0  0  0  0  0  0  0  0  0  0  0
    5.5450   -7.2838   23.8672 H   0  0  0  0  0  0  0  0  0  0  0  0
    4.9033   -4.6900   24.1441 H   0  0  0  0  0  0  0  0  0  0  0  0
    4.8668   -3.7094   22.6971 H   0  0  0  0  0  0  0  0  0  0  0  0
    7.2517   -5.5873   24.9657 H   0  0  0  0  0  0  0  0  0  0  0  0
    5.5550   -5.6136   21.2986 H   0  0  0  0  0  0  0  0  0  0  0  0
    9.4636   -4.5198   23.1922 H   0  0  0  0  0  0  0  0  0  0  0  0
    9.7125   -5.9526   24.1694 H   0  0  0  0  0  0  0  0  0  0  0  0
   11.5448   -1.1009   22.3745 H   0  0  0  0  0  0  0  0  0  0  0  0
   12.1750    0.3688   23.1089 H   0  0  0  0  0  0  0  0  0  0  0  0
    8.1566   -7.5343   29.0625 H   0  0  0  0  0  0  0  0  0  0  0  0
    8.4993   -6.5246   30.4487 H   0  0  0  0  0  0  0  0  0  0  0  0
    6.2052   -5.4505   30.2061 H   0  0  0  0  0  0  0  0  0  0  0  0
    6.1432   -7.1744   30.4929 H   0  0  0  0  0  0  0  0  0  0  0  0
    4.5681   -4.7167   28.5748 H   0  0  0  0  0  0  0  0  0  0  0  0
    9.8907   -0.5768   20.5867 H   0  0  0  0  0  0  0  0  0  0  0  0
    8.2240   -6.5387   26.7107 H   0  0  0  0  0  0  0  0  0  0  0  0
   10.2811   -2.4985   23.3758 H   0  0  0  0  0  0  0  0  0  0  0  0
    3.7481   -6.9122   21.6977 H   0  0  0  0  0  0  0  0  0  0  0  0
  1  8  1  0  0  0  0
  1  9  2  0  0  0  0
  2  4  2  0  0  0  0
  2 25  1  0  0  0  0
  3 10  2  0  0  0  0
  3 24  1  0  0  0  0
  4 26  1  0  0  0  0
  5 24  2  0  0  0  0
  5 27  1  0  0  0  0
  6  7  1  0  0  0  0
  6 11  2  0  0  0  0
  6 20  1  0  0  0  0
  7  8  2  0  0  0  0
  7 28  1  0  0  0  0
  8 32  1  0  0  0  0
  9 22  1  0  0  0  0
  9 28  1  0  0  0  0
 10 21  1  0  0  0  0
 10 27  1  0  0  0  0
 11 29  1  0  0  0  0
 11 32  1  0  0  0  0
 12 23  1  0  0  0  0
 12 25  2  0  0  0  0
 12 26  1  0  0  0  0
 13 21  1  0  0  0  0
 13 29  1  0  0  0  0
 13 30  2  0  0  0  0
 14 16  1  0  0  0  0
 14 18  1  0  0  0  0
 15 17  1  0  0  0  0
 15 18  1  0  0  0  0
 16 19  1  0  0  0  0
 17 19  1  0  0  0  0
 18 20  1  0  0  0  0
 19 31  1  0  0  0  0
 22 23  1  0  0  0  0
  1 33  1  0  0  0  0
  2 34  1  0  0  0  0
  3 35  1  0  0  0  0
  4 36  1  0  0  0  0
  5 37  1  0  0  0  0
 14 38  1  0  0  0  0
 14 39  1  0  0  0  0
 15 40  1  0  0  0  0
 15 41  1  0  0  0  0
 16 42  1  0  0  0  0
 16 43  1  0  0  0  0
 17 44  1  0  0  0  0
 17 45  1  0  0  0  0
 18 46  1  0  0  0  0
 19 47  1  0  0  0  0
 20 48  1  0  0  0  0
 20 49  1  0  0  0  0
 21 50  1  0  0  0  0
 21 51  1  0  0  0  0
 22 52  1  0  0  0  0
 22 53  1  0  0  0  0
 23 54  1  0  0  0  0
 23 55  1  0  0  0  0
 26 56  1  0  0  0  0
 27 57  1  0  0  0  0
 28 58  1  0  0  0  0
 29 59  1  0  0  0  0
 31 60  1  0  0  0  0
M  END
> <Chemgauss4 Score>
-5.38513565063477

> <Number of Confs>
200

$$$$
SAL-INS-1c7-1
  -OEChem-03242005443D

 52 54  0     1  0  0  0  0  0999 V2000
   13.7825   -0.7968   21.8623 C   0  0  0  0  0  0  0  0  0  0  0  0
   12.7855   -1.7656   21.7486 C   0  0  0  0  0  0  0  0  0  0  0  0
   13.6019    0.2932   22.7139 C   0  0  0  0  0  0  0  0  0  0  0  0
    9.7582   -3.6219   26.1851 C   0  0  0  0  0  0  0  0  0  0  0  0
   11.6079   -1.6446   22.4863 C   0  0  0  0  0  0  0  0  0  0  0  0
   12.4243    0.4142   23.4516 C   0  0  0  0  0  0  0  0  0  0  0  0
   10.2405   -2.4036   25.7093 C   0  0  0  0  0  0  0  0  0  0  0  0
    7.9857   -3.5551   24.5495 C   0  0  0  0  0  0  0  0  0  0  0  0
    8.6304   -4.1966   25.6066 C   0  0  0  0  0  0  0  0  0  0  0  0
   11.4273   -0.5546   23.3379 C   0  0  0  0  0  0  0  0  0  0  0  0
    9.5983   -1.7462   24.6472 C   0  0  0  0  0  0  0  0  0  0  0  0
    8.4639   -2.3316   24.0561 C   0  0  0  0  0  0  0  0  0  0  0  0
    8.1247   -5.4661   26.1043 C   0  0  0  0  0  0  0  0  0  0  0  0
    8.2793   -0.0274   21.0646 C   0  0  0  0  0  0  0  0  0  0  0  0
    7.7337   -1.6754   22.9098 C   0  0  0  0  0  0  0  0  0  0  0  0
    9.0704    0.3653   23.3714 C   0  0  0  0  0  0  0  0  0  0  0  0
   10.1419   -0.4217   24.1434 C   0  0  2  0  0  0  0  0  0  0  0  0
    7.0283   -4.2189   29.2233 C   0  0  0  0  0  0  0  0  0  0  0  0
    5.1828   -4.1198   27.5115 C   0  0  0  0  0  0  0  0  0  0  0  0
    6.6063   -6.6894   27.6788 C   0  0  0  0  0  0  0  0  0  0  0  0
    7.4315   -0.8680   20.1422 C   0  0  0  0  0  0  0  0  0  0  0  0
    6.6836   -4.2219   27.7410 C   0  0  0  0  0  0  0  0  0  0  0  0
    8.3892   -0.4712   22.3844 N   0  0  0  0  0  0  0  0  0  0  0  0
    7.1712   -5.4608   27.1388 N   0  0  0  0  0  0  0  0  0  0  0  0
    8.5620   -6.4935   25.5691 O   0  0  0  0  0  0  0  0  0  0  0  0
    8.8305    0.9845   20.6243 O   0  0  0  0  0  0  0  0  0  0  0  0
    6.7209    0.2341   18.9686 Cl  0  0  0  0  0  0  0  0  0  0  0  0
   14.6999   -0.8919   21.2888 H   0  0  0  0  0  0  0  0  0  0  0  0
   12.9264   -2.6149   21.0864 H   0  0  0  0  0  0  0  0  0  0  0  0
   14.3783    1.0471   22.8035 H   0  0  0  0  0  0  0  0  0  0  0  0
   10.2698   -4.1126   27.0091 H   0  0  0  0  0  0  0  0  0  0  0  0
   10.8365   -2.4042   22.3912 H   0  0  0  0  0  0  0  0  0  0  0  0
   12.2923    1.2669   24.1125 H   0  0  0  0  0  0  0  0  0  0  0  0
   11.1211   -1.9655   26.1730 H   0  0  0  0  0  0  0  0  0  0  0  0
    7.1037   -4.0076   24.1002 H   0  0  0  0  0  0  0  0  0  0  0  0
    7.6119   -2.4095   22.1086 H   0  0  0  0  0  0  0  0  0  0  0  0
    6.7372   -1.3668   23.2485 H   0  0  0  0  0  0  0  0  0  0  0  0
    8.2947    0.7191   24.0634 H   0  0  0  0  0  0  0  0  0  0  0  0
    9.5043    1.2544   22.8998 H   0  0  0  0  0  0  0  0  0  0  0  0
   10.4037    0.2010   25.0427 H   0  0  0  0  0  0  0  0  0  0  0  0
    6.5360   -5.0493   29.7398 H   0  0  0  0  0  0  0  0  0  0  0  0
    8.1086   -4.3100   29.3829 H   0  0  0  0  0  0  0  0  0  0  0  0
    6.7037   -3.2854   29.6958 H   0  0  0  0  0  0  0  0  0  0  0  0
    4.6582   -4.9489   27.9990 H   0  0  0  0  0  0  0  0  0  0  0  0
    4.9487   -4.1525   26.4424 H   0  0  0  0  0  0  0  0  0  0  0  0
    4.7775   -3.1878   27.9213 H   0  0  0  0  0  0  0  0  0  0  0  0
    7.2256   -7.0408   28.5172 H   0  0  0  0  0  0  0  0  0  0  0  0
    5.5832   -6.4972   28.0341 H   0  0  0  0  0  0  0  0  0  0  0  0
    6.5830   -7.4586   26.8927 H   0  0  0  0  0  0  0  0  0  0  0  0
    6.6520   -1.3477   20.7225 H   0  0  0  0  0  0  0  0  0  0  0  0
    8.0675   -1.5877   19.6404 H   0  0  0  0  0  0  0  0  0  0  0  0
    7.1862   -3.3841   27.2455 H   0  0  0  0  0  0  0  0  0  0  0  0
  1  2  1  0  0  0  0
  1  3  2  0  0  0  0
  2  5  2  0  0  0  0
  3  6  1  0  0  0  0
  4  7  2  0  0  0  0
  4  9  1  0  0  0  0
  5 10  1  0  0  0  0
  6 10  2  0  0  0  0
  7 11  1  0  0  0  0
  8  9  2  0  0  0  0
  8 12  1  0  0  0  0
  9 13  1  0  0  0  0
 10 17  1  6  0  0  0
 11 12  2  0  0  0  0
 11 17  1  0  0  0  0
 12 15  1  0  0  0  0
 13 24  1  0  0  0  0
 13 25  2  0  0  0  0
 14 21  1  0  0  0  0
 14 23  1  0  0  0  0
 14 26  2  0  0  0  0
 15 23  1  0  0  0  0
 16 17  1  0  0  0  0
 16 23  1  0  0  0  0
 18 22  1  0  0  0  0
 19 22  1  0  0  0  0
 20 24  1  0  0  0  0
 21 27  1  0  0  0  0
 22 24  1  0  0  0  0
  1 28  1  0  0  0  0
  2 29  1  0  0  0  0
  3 30  1  0  0  0  0
  4 31  1  0  0  0  0
  5 32  1  0  0  0  0
  6 33  1  0  0  0  0
  7 34  1  0  0  0  0
  8 35  1  0  0  0  0
 15 36  1  0  0  0  0
 15 37  1  0  0  0  0
 16 38  1  0  0  0  0
 16 39  1  0  0  0  0
 17 40  1  0  0  0  0
 18 41  1  0  0  0  0
 18 42  1  0  0  0  0
 18 43  1  0  0  0  0
 19 44  1  0  0  0  0
 19 45  1  0  0  0  0
 19 46  1  0  0  0  0
 20 47  1  0  0  0  0
 20 48  1  0  0  0  0
 20 49  1  0  0  0  0
 21 50  1  0  0  0  0
 21 51  1  0  0  0  0
 22 52  1  0  0  0  0
M  END
> <Chemgauss4 Score>
-5.38314056396484

> <Number of Confs>
80

$$$$
KIM-UNI-7d1-1
  -OEChem-03242005443D

 42 43  0     0  0  0  0  0  0999 V2000
    6.4681   -5.6073   25.8849 C   0  0  0  0  0  0  0  0  0  0  0  0
    6.2895   -5.7138   27.2642 C   0  0  0  0  0  0  0  0  0  0  0  0
    8.5979   -5.0912   27.6112 C   0  0  0  0  0  0  0  0  0  0  0  0
    8.7766   -4.9848   26.2319 C   0  0  0  0  0  0  0  0  0  0  0  0
    7.7116   -5.2429   25.3688 C   0  0  0  0  0  0  0  0  0  0  0  0
    7.3544   -5.4557   28.1273 C   0  0  0  0  0  0  0  0  0  0  0  0
   11.7839    0.3021   23.7013 C   0  0  0  0  0  0  0  0  0  0  0  0
    9.9421   -0.8921   24.9811 C   0  0  0  0  0  0  0  0  0  0  0  0
   11.1323   -2.0161   23.1415 C   0  0  0  0  0  0  0  0  0  0  0  0
   10.0357   -2.1837   25.7955 C   0  0  0  0  0  0  0  0  0  0  0  0
   11.2086   -3.2832   23.9926 C   0  0  0  0  0  0  0  0  0  0  0  0
   13.1863    0.0490   23.2085 C   0  0  0  0  0  0  0  0  0  0  0  0
    7.2722   -5.2161   21.6384 C   0  0  0  0  0  0  0  0  0  0  0  0
   10.1255   -4.5907   25.7035 C   0  0  0  0  0  0  0  0  0  0  0  0
    6.8137   -5.3944   23.0458 C   0  0  0  0  0  0  0  0  0  0  0  0
   11.0074   -0.8225   23.9766 N   0  0  0  0  0  0  0  0  0  0  0  0
   10.0663   -3.3607   24.9149 N   0  0  0  0  0  0  0  0  0  0  0  0
    7.8740   -5.1402   23.9697 N   0  0  0  0  0  0  0  0  0  0  0  0
   11.3906    1.4639   23.8332 O   0  0  0  0  0  0  0  0  0  0  0  0
    7.1333   -5.5871   29.8290 Cl  0  0  0  0  0  0  0  0  0  0  0  0
    5.6310   -5.8108   25.2219 H   0  0  0  0  0  0  0  0  0  0  0  0
    5.3149   -5.9987   27.6523 H   0  0  0  0  0  0  0  0  0  0  0  0
    9.4310   -4.8890   28.2808 H   0  0  0  0  0  0  0  0  0  0  0  0
    8.9889   -0.8487   24.4396 H   0  0  0  0  0  0  0  0  0  0  0  0
    9.9676   -0.0371   25.6595 H   0  0  0  0  0  0  0  0  0  0  0  0
   12.0162   -1.9487   22.4989 H   0  0  0  0  0  0  0  0  0  0  0  0
   10.2535   -2.0451   22.4854 H   0  0  0  0  0  0  0  0  0  0  0  0
   10.9259   -2.1495   26.4377 H   0  0  0  0  0  0  0  0  0  0  0  0
    9.1601   -2.2376   26.4536 H   0  0  0  0  0  0  0  0  0  0  0  0
   11.1996   -4.1489   23.3194 H   0  0  0  0  0  0  0  0  0  0  0  0
   12.1604   -3.3042   24.5401 H   0  0  0  0  0  0  0  0  0  0  0  0
   13.1762   -0.0125   22.1253 H   0  0  0  0  0  0  0  0  0  0  0  0
   13.5481   -0.8836   23.6296 H   0  0  0  0  0  0  0  0  0  0  0  0
   13.8274    0.8643   23.5279 H   0  0  0  0  0  0  0  0  0  0  0  0
    8.0984   -5.9118   21.4305 H   0  0  0  0  0  0  0  0  0  0  0  0
    6.4377   -5.4224   20.9521 H   0  0  0  0  0  0  0  0  0  0  0  0
    7.6186   -4.1820   21.4941 H   0  0  0  0  0  0  0  0  0  0  0  0
   10.8307   -4.4302   26.5263 H   0  0  0  0  0  0  0  0  0  0  0  0
   10.5430   -5.3772   25.0661 H   0  0  0  0  0  0  0  0  0  0  0  0
    5.9880   -4.6956   23.2457 H   0  0  0  0  0  0  0  0  0  0  0  0
    6.4604   -6.4275   23.1801 H   0  0  0  0  0  0  0  0  0  0  0  0
    8.7818   -4.8773   23.6375 H   0  0  0  0  0  0  0  0  0  0  0  0
  1  2  2  0  0  0  0
  1  5  1  0  0  0  0
  2  6  1  0  0  0  0
  3  4  1  0  0  0  0
  3  6  2  0  0  0  0
  4  5  2  0  0  0  0
  4 14  1  0  0  0  0
  5 18  1  0  0  0  0
  6 20  1  0  0  0  0
  7 12  1  0  0  0  0
  7 16  1  0  0  0  0
  7 19  2  0  0  0  0
  8 10  1  0  0  0  0
  8 16  1  0  0  0  0
  9 11  1  0  0  0  0
  9 16  1  0  0  0  0
 10 17  1  0  0  0  0
 11 17  1  0  0  0  0
 13 15  1  0  0  0  0
 14 17  1  0  0  0  0
 15 18  1  0  0  0  0
  1 21  1  0  0  0  0
  2 22  1  0  0  0  0
  3 23  1  0  0  0  0
  8 24  1  0  0  0  0
  8 25  1  0  0  0  0
  9 26  1  0  0  0  0
  9 27  1  0  0  0  0
 10 28  1  0  0  0  0
 10 29  1  0  0  0  0
 11 30  1  0  0  0  0
 11 31  1  0  0  0  0
 12 32  1  0  0  0  0
 12 33  1  0  0  0  0
 12 34  1  0  0  0  0
 13 35  1  0  0  0  0
 13 36  1  0  0  0  0
 13 37  1  0  0  0  0
 14 38  1  0  0  0  0
 14 39  1  0  0  0  0
 15 40  1  0  0  0  0
 15 41  1  0  0  0  0
 18 42  1  0  0  0  0
M  END
> <Chemgauss4 Score>
-5.38087511062622

> <Number of Confs>
43

$$$$
DUN-NEW-f8c-12
  -OEChem-03242005443D

 30 31  0     0  0  0  0  0  0999 V2000
   12.3785   -1.3055   22.4808 C   0  0  0  0  0  0  0  0  0  0  0  0
    9.9743   -1.5335   22.1233 C   0  0  0  0  0  0  0  0  0  0  0  0
    8.7300   -2.0836   22.4442 C   0  0  0  0  0  0  0  0  0  0  0  0
   11.0552   -2.8014   23.8900 C   0  0  0  0  0  0  0  0  0  0  0  0
    8.0289   -4.4785   25.0689 C   0  0  0  0  0  0  0  0  0  0  0  0
   11.1203   -1.8855   22.8337 C   0  0  0  0  0  0  0  0  0  0  0  0
    9.8116   -3.3690   24.2318 C   0  0  0  0  0  0  0  0  0  0  0  0
    9.3856   -4.3038   25.2165 C   0  0  0  0  0  0  0  0  0  0  0  0
    8.6800   -2.9978   23.5025 C   0  0  0  0  0  0  0  0  0  0  0  0
    7.4551   -4.3423   28.3703 C   0  0  0  0  0  0  0  0  0  0  0  0
    6.1529   -5.0386   28.5887 C   0  0  0  0  0  0  0  0  0  0  0  0
   10.2374   -4.9720   26.2211 C   0  0  0  0  0  0  0  0  0  0  0  0
    9.8151   -4.7075   27.6778 C   0  0  0  0  0  0  0  0  0  0  0  0
   13.3999   -0.8348   22.1943 N   0  0  0  0  0  0  0  0  0  0  0  0
    7.6125   -3.6868   24.0324 N   0  0  0  0  0  0  0  0  0  0  0  0
    8.4811   -5.1725   27.9484 N   0  0  0  0  0  0  0  0  0  0  0  0
    7.5351   -3.1352   28.5661 O   0  0  0  0  0  0  0  0  0  0  0  0
   10.0314   -0.8208   21.3027 H   0  0  0  0  0  0  0  0  0  0  0  0
    7.8387   -1.8088   21.8903 H   0  0  0  0  0  0  0  0  0  0  0  0
   11.9493   -3.0768   24.4439 H   0  0  0  0  0  0  0  0  0  0  0  0
    7.3212   -5.0939   25.6067 H   0  0  0  0  0  0  0  0  0  0  0  0
    6.0427   -5.4104   29.6201 H   0  0  0  0  0  0  0  0  0  0  0  0
    5.2886   -4.3753   28.4245 H   0  0  0  0  0  0  0  0  0  0  0  0
    5.9726   -5.9140   27.9444 H   0  0  0  0  0  0  0  0  0  0  0  0
   11.2890   -4.6422   26.1076 H   0  0  0  0  0  0  0  0  0  0  0  0
   10.2713   -6.0679   26.0561 H   0  0  0  0  0  0  0  0  0  0  0  0
   10.4779   -5.2247   28.3787 H   0  0  0  0  0  0  0  0  0  0  0  0
    9.8445   -3.6371   27.9066 H   0  0  0  0  0  0  0  0  0  0  0  0
    6.6594   -3.6177   23.7033 H   0  0  0  0  0  0  0  0  0  0  0  0
    8.2803   -6.1635   27.8236 H   0  0  0  0  0  0  0  0  0  0  0  0
  1  6  1  0  0  0  0
  1 14  3  0  0  0  0
  2  3  2  0  0  0  0
  2  6  1  0  0  0  0
  3  9  1  0  0  0  0
  4  6  2  0  0  0  0
  4  7  1  0  0  0  0
  5  8  2  0  0  0  0
  5 15  1  0  0  0  0
  7  8  1  0  0  0  0
  7  9  2  0  0  0  0
  8 12  1  0  0  0  0
  9 15  1  0  0  0  0
 10 11  1  0  0  0  0
 10 16  1  0  0  0  0
 10 17  2  0  0  0  0
 12 13  1  0  0  0  0
 13 16  1  0  0  0  0
  2 18  1  0  0  0  0
  3 19  1  0  0  0  0
  4 20  1  0  0  0  0
  5 21  1  0  0  0  0
 11 22  1  0  0  0  0
 11 23  1  0  0  0  0
 11 24  1  0  0  0  0
 12 25  1  0  0  0  0
 12 26  1  0  0  0  0
 13 27  1  0  0  0  0
 13 28  1  0  0  0  0
 15 29  1  0  0  0  0
 16 30  1  0  0  0  0
M  END
> <Chemgauss4 Score>
-5.37841176986694

> <Number of Confs>
37

$$$$
CHR-SOS-70e-1
  -OEChem-03242005443D

 45 47  0     0  0  0  0  0  0999 V2000
   13.4785   -0.0576   23.0558 C   0  0  0  0  0  0  0  0  0  0  0  0
   12.3759    0.2388   23.8570 C   0  0  0  0  0  0  0  0  0  0  0  0
   13.4169   -1.1151   22.1482 C   0  0  0  0  0  0  0  0  0  0  0  0
    5.8413    2.0114   21.5354 C   0  0  0  0  0  0  0  0  0  0  0  0
    6.4302    0.9427   22.2018 C   0  0  0  0  0  0  0  0  0  0  0  0
   11.2118   -0.5223   23.7509 C   0  0  0  0  0  0  0  0  0  0  0  0
   12.2529   -1.8762   22.0420 C   0  0  0  0  0  0  0  0  0  0  0  0
    6.2423    3.2918   21.8812 C   0  0  0  0  0  0  0  0  0  0  0  0
    7.7206    2.5010   23.4520 C   0  0  0  0  0  0  0  0  0  0  0  0
    7.3887    1.1835   23.1799 C   0  0  0  0  0  0  0  0  0  0  0  0
   11.1503   -1.5798   22.8433 C   0  0  0  0  0  0  0  0  0  0  0  0
    7.7773   -1.2469   23.7126 C   0  0  0  0  0  0  0  0  0  0  0  0
    9.7966   -5.5294   25.4952 C   0  0  0  0  0  0  0  0  0  0  0  0
    8.5415   -5.2131   24.6867 C   0  0  0  0  0  0  0  0  0  0  0  0
   10.5225   -4.2640   25.9437 C   0  0  0  0  0  0  0  0  0  0  0  0
    8.8489   -4.2918   23.5085 C   0  0  0  0  0  0  0  0  0  0  0  0
   10.8289   -3.3440   24.7642 C   0  0  0  0  0  0  0  0  0  0  0  0
    9.5851   -3.0080   23.9252 C   0  0  0  0  0  0  0  0  0  0  0  0
    8.6544   -2.0403   24.6627 C   0  0  0  0  0  0  0  0  0  0  0  0
    7.1700    3.5651   22.8258 N   0  0  0  0  0  0  0  0  0  0  0  0
    8.0055    0.1165   23.8754 N   0  0  0  0  0  0  0  0  0  0  0  0
    6.9970   -1.7845   22.9337 O   0  0  0  0  0  0  0  0  0  0  0  0
   10.0108   -2.3267   22.7401 O   0  0  0  0  0  0  0  0  0  0  0  0
   14.3848    0.5351   23.1378 H   0  0  0  0  0  0  0  0  0  0  0  0
   12.4237    1.0621   24.5639 H   0  0  0  0  0  0  0  0  0  0  0  0
   14.2759   -1.3452   21.5245 H   0  0  0  0  0  0  0  0  0  0  0  0
    5.0920    1.8472   20.7694 H   0  0  0  0  0  0  0  0  0  0  0  0
    6.1353   -0.0729   21.9514 H   0  0  0  0  0  0  0  0  0  0  0  0
   10.3569   -0.2871   24.3790 H   0  0  0  0  0  0  0  0  0  0  0  0
   12.2113   -2.6999   21.3346 H   0  0  0  0  0  0  0  0  0  0  0  0
    5.8124    4.1593   21.3914 H   0  0  0  0  0  0  0  0  0  0  0  0
    8.4619    2.7525   24.2047 H   0  0  0  0  0  0  0  0  0  0  0  0
    9.5214   -6.1235   26.3773 H   0  0  0  0  0  0  0  0  0  0  0  0
   10.4747   -6.1500   24.8957 H   0  0  0  0  0  0  0  0  0  0  0  0
    8.0972   -6.1473   24.3218 H   0  0  0  0  0  0  0  0  0  0  0  0
    7.7961   -4.7416   25.3375 H   0  0  0  0  0  0  0  0  0  0  0  0
    9.9077   -3.7292   26.6768 H   0  0  0  0  0  0  0  0  0  0  0  0
   11.4546   -4.5381   26.4530 H   0  0  0  0  0  0  0  0  0  0  0  0
    9.4559   -4.8535   22.7824 H   0  0  0  0  0  0  0  0  0  0  0  0
    7.9061   -4.0326   23.0028 H   0  0  0  0  0  0  0  0  0  0  0  0
   11.2828   -2.4154   25.1440 H   0  0  0  0  0  0  0  0  0  0  0  0
   11.5877   -3.8330   24.1346 H   0  0  0  0  0  0  0  0  0  0  0  0
    9.2593   -1.3469   25.2512 H   0  0  0  0  0  0  0  0  0  0  0  0
    8.0175   -2.6106   25.3426 H   0  0  0  0  0  0  0  0  0  0  0  0
    8.6941    0.3922   24.5726 H   0  0  0  0  0  0  0  0  0  0  0  0
  1  2  1  0  0  0  0
  1  3  2  0  0  0  0
  2  6  2  0  0  0  0
  3  7  1  0  0  0  0
  4  5  2  0  0  0  0
  4  8  1  0  0  0  0
  5 10  1  0  0  0  0
  6 11  1  0  0  0  0
  7 11  2  0  0  0  0
  8 20  2  0  0  0  0
  9 10  2  0  0  0  0
  9 20  1  0  0  0  0
 10 21  1  0  0  0  0
 11 23  1  0  0  0  0
 12 19  1  0  0  0  0
 12 21  1  0  0  0  0
 12 22  2  0  0  0  0
 13 14  1  0  0  0  0
 13 15  1  0  0  0  0
 14 16  1  0  0  0  0
 15 17  1  0  0  0  0
 16 18  1  0  0  0  0
 17 18  1  0  0  0  0
 18 19  1  0  0  0  0
 18 23  1  0  0  0  0
  1 24  1  0  0  0  0
  2 25  1  0  0  0  0
  3 26  1  0  0  0  0
  4 27  1  0  0  0  0
  5 28  1  0  0  0  0
  6 29  1  0  0  0  0
  7 30  1  0  0  0  0
  8 31  1  0  0  0  0
  9 32  1  0  0  0  0
 13 33  1  0  0  0  0
 13 34  1  0  0  0  0
 14 35  1  0  0  0  0
 14 36  1  0  0  0  0
 15 37  1  0  0  0  0
 15 38  1  0  0  0  0
 16 39  1  0  0  0  0
 16 40  1  0  0  0  0
 17 41  1  0  0  0  0
 17 42  1  0  0  0  0
 19 43  1  0  0  0  0
 19 44  1  0  0  0  0
 21 45  1  0  0  0  0
M  END
> <Chemgauss4 Score>
-5.37287902832031

> <Number of Confs>
93

$$$$
HEI-REL-0c9-4
  -OEChem-03242005443D

 44 46  0     0  0  0  0  0  0999 V2000
   11.1108   -4.0693   24.7310 C   0  0  0  0  0  0  0  0  0  0  0  0
   10.3508   -4.7731   25.6607 C   0  0  0  0  0  0  0  0  0  0  0  0
    8.6318   -3.0870   25.5000 C   0  0  0  0  0  0  0  0  0  0  0  0
   10.8713   -0.9570   22.7219 C   0  0  0  0  0  0  0  0  0  0  0  0
   10.6298   -2.8683   24.1825 C   0  0  0  0  0  0  0  0  0  0  0  0
    9.3707   -2.3627   24.5686 C   0  0  0  0  0  0  0  0  0  0  0  0
    9.1098   -4.2811   26.0455 C   0  0  0  0  0  0  0  0  0  0  0  0
   11.3740   -2.1396   23.2449 C   0  0  0  0  0  0  0  0  0  0  0  0
    9.6301   -0.5421   23.1603 C   0  0  0  0  0  0  0  0  0  0  0  0
    6.1117    1.3390   17.9595 C   0  0  0  0  0  0  0  0  0  0  0  0
    5.9973    1.3931   20.4973 C   0  0  0  0  0  0  0  0  0  0  0  0
    7.4578   -0.2131   19.3348 C   0  0  0  0  0  0  0  0  0  0  0  0
    7.1276    1.6596   21.4930 C   0  0  0  0  0  0  0  0  0  0  0  0
    8.5613    0.0885   20.3482 C   0  0  0  0  0  0  0  0  0  0  0  0
    5.0401    2.3994   17.9285 C   0  0  0  0  0  0  0  0  0  0  0  0
    9.0450    0.7308   22.6205 C   0  0  0  0  0  0  0  0  0  0  0  0
    8.8803   -1.2153   24.0628 N   0  0  0  0  0  0  0  0  0  0  0  0
    6.5235    0.9056   19.2189 N   0  0  0  0  0  0  0  0  0  0  0  0
    7.9862    0.4758   21.6446 N   0  0  0  0  0  0  0  0  0  0  0  0
    6.7724   -4.1458   27.3195 N   0  0  0  0  0  0  0  0  0  0  0  0
    6.5705    0.9128   16.8966 O   0  0  0  0  0  0  0  0  0  0  0  0
    7.7548   -6.4260   26.6257 O   0  0  0  0  0  0  0  0  0  0  0  0
    8.8432   -5.1314   28.4930 O   0  0  0  0  0  0  0  0  0  0  0  0
    8.1484   -5.1532   27.2134 S   0  0  0  0  0  0  0  0  0  0  0  0
   12.9348   -2.6364   22.6767 Cl  0  0  0  0  0  0  0  0  0  0  0  0
   12.0758   -4.4860   24.4563 H   0  0  0  0  0  0  0  0  0  0  0  0
   10.7362   -5.7000   26.0765 H   0  0  0  0  0  0  0  0  0  0  0  0
    7.6565   -2.7141   25.8100 H   0  0  0  0  0  0  0  0  0  0  0  0
   11.4256   -0.3751   21.9921 H   0  0  0  0  0  0  0  0  0  0  0  0
    5.3227    0.6180   20.8817 H   0  0  0  0  0  0  0  0  0  0  0  0
    5.4066    2.3027   20.3725 H   0  0  0  0  0  0  0  0  0  0  0  0
    7.9030   -0.4485   18.3626 H   0  0  0  0  0  0  0  0  0  0  0  0
    6.8762   -1.0890   19.6478 H   0  0  0  0  0  0  0  0  0  0  0  0
    7.7111    2.5293   21.1626 H   0  0  0  0  0  0  0  0  0  0  0  0
    6.6784    1.9162   22.4601 H   0  0  0  0  0  0  0  0  0  0  0  0
    9.1710   -0.8151   20.4694 H   0  0  0  0  0  0  0  0  0  0  0  0
    9.2182    0.8764   19.9562 H   0  0  0  0  0  0  0  0  0  0  0  0
    5.5088    3.3779   17.9364 H   0  0  0  0  0  0  0  0  0  0  0  0
    4.4029    2.2863   18.7998 H   0  0  0  0  0  0  0  0  0  0  0  0
    4.4475    2.2791   17.0274 H   0  0  0  0  0  0  0  0  0  0  0  0
    8.6195    1.3339   23.4300 H   0  0  0  0  0  0  0  0  0  0  0  0
    9.8124    1.3393   22.1305 H   0  0  0  0  0  0  0  0  0  0  0  0
    6.8733   -3.2407   27.7949 H   0  0  0  0  0  0  0  0  0  0  0  0
    6.1273   -4.1253   26.5203 H   0  0  0  0  0  0  0  0  0  0  0  0
  1  2  2  0  0  0  0
  1  5  1  0  0  0  0
  2  7  1  0  0  0  0
  3  6  1  0  0  0  0
  3  7  2  0  0  0  0
  4  8  2  0  0  0  0
  4  9  1  0  0  0  0
  5  6  2  0  0  0  0
  5  8  1  0  0  0  0
  6 17  1  0  0  0  0
  7 24  1  0  0  0  0
  8 25  1  0  0  0  0
  9 16  1  0  0  0  0
  9 17  2  0  0  0  0
 10 15  1  0  0  0  0
 10 18  1  0  0  0  0
 10 21  2  0  0  0  0
 11 13  1  0  0  0  0
 11 18  1  0  0  0  0
 12 14  1  0  0  0  0
 12 18  1  0  0  0  0
 13 19  1  0  0  0  0
 14 19  1  0  0  0  0
 16 19  1  0  0  0  0
 20 24  1  0  0  0  0
 22 24  2  0  0  0  0
 23 24  2  0  0  0  0
  1 26  1  0  0  0  0
  2 27  1  0  0  0  0
  3 28  1  0  0  0  0
  4 29  1  0  0  0  0
 11 30  1  0  0  0  0
 11 31  1  0  0  0  0
 12 32  1  0  0  0  0
 12 33  1  0  0  0  0
 13 34  1  0  0  0  0
 13 35  1  0  0  0  0
 14 36  1  0  0  0  0
 14 37  1  0  0  0  0
 15 38  1  0  0  0  0
 15 39  1  0  0  0  0
 15 40  1  0  0  0  0
 16 41  1  0  0  0  0
 16 42  1  0  0  0  0
 20 43  1  0  0  0  0
 20 44  1  0  0  0  0
M  END
> <Chemgauss4 Score>
-5.36999607086182

> <Number of Confs>
143

$$$$
TRY-UNI-1fd-9
  -OEChem-03242005443D

 34 36  0     0  0  0  0  0  0999 V2000
   10.2494   -4.7043   25.7508 C   0  0  0  0  0  0  0  0  0  0  0  0
    9.5010   -3.5560   25.4988 C   0  0  0  0  0  0  0  0  0  0  0  0
   13.3400   -0.6828   22.9525 C   0  0  0  0  0  0  0  0  0  0  0  0
   11.1710   -0.7727   21.9173 C   0  0  0  0  0  0  0  0  0  0  0  0
    9.5813   -5.8963   25.9967 C   0  0  0  0  0  0  0  0  0  0  0  0
   12.8370    0.2942   23.7966 C   0  0  0  0  0  0  0  0  0  0  0  0
    5.8490   -3.5213   25.4519 C   0  0  0  0  0  0  0  0  0  0  0  0
    8.1014   -3.6704   25.5080 C   0  0  0  0  0  0  0  0  0  0  0  0
    7.0070   -2.7877   25.3087 C   0  0  0  0  0  0  0  0  0  0  0  0
   12.4846   -1.2213   21.9977 C   0  0  0  0  0  0  0  0  0  0  0  0
   10.7651    0.2081   22.8078 C   0  0  0  0  0  0  0  0  0  0  0  0
    7.5633   -4.9271   25.7691 C   0  0  0  0  0  0  0  0  0  0  0  0
    7.8606   -1.0106   23.7306 C   0  0  0  0  0  0  0  0  0  0  0  0
    7.0842   -1.3450   25.0039 C   0  0  0  0  0  0  0  0  0  0  0  0
    9.3532    0.7156   22.7497 C   0  0  0  0  0  0  0  0  0  0  0  0
   11.5671    0.7552   23.7486 N   0  0  0  0  0  0  0  0  0  0  0  0
    8.2387   -6.0650   26.0181 N   0  0  0  0  0  0  0  0  0  0  0  0
    6.1982   -4.8171   25.7313 N   0  0  0  0  0  0  0  0  0  0  0  0
    8.5460    0.1922   23.8267 N   0  0  0  0  0  0  0  0  0  0  0  0
    7.8626   -1.7457   22.7465 O   0  0  0  0  0  0  0  0  0  0  0  0
   13.0505   -2.4366   20.9201 Cl  0  0  0  0  0  0  0  0  0  0  0  0
   11.3335   -4.6661   25.7546 H   0  0  0  0  0  0  0  0  0  0  0  0
    9.9921   -2.6085   25.3022 H   0  0  0  0  0  0  0  0  0  0  0  0
   14.3708   -1.0087   23.0445 H   0  0  0  0  0  0  0  0  0  0  0  0
   10.4818   -1.1758   21.1817 H   0  0  0  0  0  0  0  0  0  0  0  0
   10.1488   -6.8020   26.1942 H   0  0  0  0  0  0  0  0  0  0  0  0
   13.4638    0.7457   24.5585 H   0  0  0  0  0  0  0  0  0  0  0  0
    4.8078   -3.2389   25.3798 H   0  0  0  0  0  0  0  0  0  0  0  0
    6.0723   -0.9067   24.9004 H   0  0  0  0  0  0  0  0  0  0  0  0
    7.5581   -0.7857   25.8342 H   0  0  0  0  0  0  0  0  0  0  0  0
    9.3331    1.8091   22.8137 H   0  0  0  0  0  0  0  0  0  0  0  0
    8.8738    0.4363   21.8056 H   0  0  0  0  0  0  0  0  0  0  0  0
    5.5487   -5.5755   25.8871 H   0  0  0  0  0  0  0  0  0  0  0  0
    8.4773    0.7254   24.6885 H   0  0  0  0  0  0  0  0  0  0  0  0
  1  2  2  0  0  0  0
  1  5  1  0  0  0  0
  2  8  1  0  0  0  0
  3  6  2  0  0  0  0
  3 10  1  0  0  0  0
  4 10  2  0  0  0  0
  4 11  1  0  0  0  0
  5 17  2  0  0  0  0
  6 16  1  0  0  0  0
  7  9  2  0  0  0  0
  7 18  1  0  0  0  0
  8  9  1  0  0  0  0
  8 12  2  0  0  0  0
  9 14  1  0  0  0  0
 10 21  1  0  0  0  0
 11 15  1  0  0  0  0
 11 16  2  0  0  0  0
 12 17  1  0  0  0  0
 12 18  1  0  0  0  0
 13 14  1  0  0  0  0
 13 19  1  0  0  0  0
 13 20  2  0  0  0  0
 15 19  1  0  0  0  0
  1 22  1  0  0  0  0
  2 23  1  0  0  0  0
  3 24  1  0  0  0  0
  4 25  1  0  0  0  0
  5 26  1  0  0  0  0
  6 27  1  0  0  0  0
  7 28  1  0  0  0  0
 14 29  1  0  0  0  0
 14 30  1  0  0  0  0
 15 31  1  0  0  0  0
 15 32  1  0  0  0  0
 18 33  1  0  0  0  0
 19 34  1  0  0  0  0
M  END
> <Chemgauss4 Score>
-5.36679077148438

> <Number of Confs>
200

$$$$
DAR-DIA-23a-1
  -OEChem-03242005443D

 33 35  0     0  0  0  0  0  0999 V2000
   13.0433   -1.1868   22.2782 C   0  0  0  0  0  0  0  0  0  0  0  0
    9.3635   -0.6725   22.5027 C   0  0  0  0  0  0  0  0  0  0  0  0
    7.0445   -5.4901   23.5296 C   0  0  0  0  0  0  0  0  0  0  0  0
   10.6819   -0.5930   22.0545 C   0  0  0  0  0  0  0  0  0  0  0  0
    8.0251   -5.1522   24.4605 C   0  0  0  0  0  0  0  0  0  0  0  0
    9.0559   -1.4270   23.6349 C   0  0  0  0  0  0  0  0  0  0  0  0
   11.3854   -2.0228   23.8706 C   0  0  0  0  0  0  0  0  0  0  0  0
    5.7983   -5.8943   23.9892 C   0  0  0  0  0  0  0  0  0  0  0  0
    7.4812   -5.2763   28.0701 C   0  0  0  0  0  0  0  0  0  0  0  0
   11.6929   -1.2682   22.7384 C   0  0  0  0  0  0  0  0  0  0  0  0
    7.6945   -5.2404   25.8224 C   0  0  0  0  0  0  0  0  0  0  0  0
    8.3661   -5.0000   27.0502 C   0  0  0  0  0  0  0  0  0  0  0  0
   10.0669   -2.1021   24.3188 C   0  0  0  0  0  0  0  0  0  0  0  0
    6.4068   -5.6605   26.1429 C   0  0  0  0  0  0  0  0  0  0  0  0
   10.4073   -4.0054   25.9334 C   0  0  0  0  0  0  0  0  0  0  0  0
    9.7590   -4.5386   27.2157 C   0  0  0  0  0  0  0  0  0  0  0  0
   14.1400   -1.1207   21.9046 N   0  0  0  0  0  0  0  0  0  0  0  0
    5.4247   -5.9979   25.2858 N   0  0  0  0  0  0  0  0  0  0  0  0
    6.2964   -5.6764   27.5084 N   0  0  0  0  0  0  0  0  0  0  0  0
    9.7547   -2.8665   25.4682 N   0  0  0  0  0  0  0  0  0  0  0  0
   11.3782   -4.5625   25.4311 O   0  0  0  0  0  0  0  0  0  0  0  0
    8.5763   -0.1460   21.9707 H   0  0  0  0  0  0  0  0  0  0  0  0
    7.2524   -5.4379   22.4662 H   0  0  0  0  0  0  0  0  0  0  0  0
   10.9054   -0.0015   21.1700 H   0  0  0  0  0  0  0  0  0  0  0  0
    9.0092   -4.8316   24.1346 H   0  0  0  0  0  0  0  0  0  0  0  0
    8.0249   -1.4816   23.9751 H   0  0  0  0  0  0  0  0  0  0  0  0
   12.1716   -2.5513   24.4063 H   0  0  0  0  0  0  0  0  0  0  0  0
    5.0212   -6.1607   23.2776 H   0  0  0  0  0  0  0  0  0  0  0  0
    7.5868   -5.2241   29.1449 H   0  0  0  0  0  0  0  0  0  0  0  0
    9.8245   -3.7358   27.9762 H   0  0  0  0  0  0  0  0  0  0  0  0
   10.4041   -5.3537   27.5983 H   0  0  0  0  0  0  0  0  0  0  0  0
    5.4683   -5.9436   28.0223 H   0  0  0  0  0  0  0  0  0  0  0  0
    8.9608   -2.5466   26.0191 H   0  0  0  0  0  0  0  0  0  0  0  0
  1 10  1  0  0  0  0
  1 17  3  0  0  0  0
  2  4  2  0  0  0  0
  2  6  1  0  0  0  0
  3  5  2  0  0  0  0
  3  8  1  0  0  0  0
  4 10  1  0  0  0  0
  5 11  1  0  0  0  0
  6 13  2  0  0  0  0
  7 10  2  0  0  0  0
  7 13  1  0  0  0  0
  8 18  2  0  0  0  0
  9 12  2  0  0  0  0
  9 19  1  0  0  0  0
 11 12  1  0  0  0  0
 11 14  2  0  0  0  0
 12 16  1  0  0  0  0
 13 20  1  0  0  0  0
 14 18  1  0  0  0  0
 14 19  1  0  0  0  0
 15 16  1  0  0  0  0
 15 20  1  0  0  0  0
 15 21  2  0  0  0  0
  2 22  1  0  0  0  0
  3 23  1  0  0  0  0
  4 24  1  0  0  0  0
  5 25  1  0  0  0  0
  6 26  1  0  0  0  0
  7 27  1  0  0  0  0
  8 28  1  0  0  0  0
  9 29  1  0  0  0  0
 16 30  1  0  0  0  0
 16 31  1  0  0  0  0
 19 32  1  0  0  0  0
 20 33  1  0  0  0  0
M  END
> <Chemgauss4 Score>
-5.36621856689453

> <Number of Confs>
112

$$$$
SAL-INS-cba-5
  -OEChem-03242005443D

 60 64  0     0  0  0  0  0  0999 V2000
    9.5798   -2.9865   28.3576 C   0  0  0  0  0  0  0  0  0  0  0  0
    5.5433   -6.0347   25.7705 C   0  0  0  0  0  0  0  0  0  0  0  0
    7.9132    0.8839   22.0710 C   0  0  0  0  0  0  0  0  0  0  0  0
    5.0398   -4.7552   25.7764 C   0  0  0  0  0  0  0  0  0  0  0  0
    7.9018    0.2530   20.0381 C   0  0  0  0  0  0  0  0  0  0  0  0
   10.6027   -3.3267   24.9581 C   0  0  0  0  0  0  0  0  0  0  0  0
   10.0266   -3.5960   26.2270 C   0  0  0  0  0  0  0  0  0  0  0  0
   10.1995   -2.5933   27.1366 C   0  0  0  0  0  0  0  0  0  0  0  0
    9.0519   -4.2360   28.1153 C   0  0  0  0  0  0  0  0  0  0  0  0
   11.2044   -2.0863   24.9726 C   0  0  0  0  0  0  0  0  0  0  0  0
    9.0060    0.0606   21.9356 C   0  0  0  0  0  0  0  0  0  0  0  0
    6.1626   -5.1882   27.6226 C   0  0  0  0  0  0  0  0  0  0  0  0
   11.0772   -1.2083   22.6028 C   0  0  0  0  0  0  0  0  0  0  0  0
    8.9671   -5.9521   22.7082 C   0  0  0  0  0  0  0  0  0  0  0  0
    8.4837   -3.4721   22.5973 C   0  0  0  0  0  0  0  0  0  0  0  0
    7.5351   -6.2473   22.2720 C   0  0  0  0  0  0  0  0  0  0  0  0
    7.0531   -3.7742   22.1617 C   0  0  0  0  0  0  0  0  0  0  0  0
    9.0685   -4.6097   23.4459 C   0  0  0  0  0  0  0  0  0  0  0  0
    6.9562   -5.1112   21.4314 C   0  0  0  0  0  0  0  0  0  0  0  0
   10.5180   -4.3104   23.8238 C   0  0  0  0  0  0  0  0  0  0  0  0
    8.2977   -5.1329   29.0140 C   0  0  0  0  0  0  0  0  0  0  0  0
   11.9214   -1.4146   23.8622 C   0  0  0  0  0  0  0  0  0  0  0  0
    6.7635   -4.9321   28.9832 C   0  0  0  0  0  0  0  0  0  0  0  0
    7.2298    0.9993   20.8864 N   0  0  0  0  0  0  0  0  0  0  0  0
    6.2409   -6.2981   26.9226 N   0  0  0  0  0  0  0  0  0  0  0  0
    5.4444   -4.2256   26.9694 N   0  0  0  0  0  0  0  0  0  0  0  0
    8.9853   -0.3361   20.6281 N   0  0  0  0  0  0  0  0  0  0  0  0
    9.3200   -4.6097   26.8258 N   0  0  0  0  0  0  0  0  0  0  0  0
   10.0000   -0.3611   22.8504 N   0  0  0  0  0  0  0  0  0  0  0  0
   11.3667   -1.7510   21.5413 O   0  0  0  0  0  0  0  0  0  0  0  0
    5.5868   -5.3758   21.1473 O   0  0  0  0  0  0  0  0  0  0  0  0
   11.0842   -1.2577   26.4770 S   0  0  0  0  0  0  0  0  0  0  0  0
    9.5286   -2.4305   29.2830 H   0  0  0  0  0  0  0  0  0  0  0  0
    5.4375   -6.7799   24.9959 H   0  0  0  0  0  0  0  0  0  0  0  0
    7.5814    1.4013   22.9598 H   0  0  0  0  0  0  0  0  0  0  0  0
    4.4519   -4.1917   25.0667 H   0  0  0  0  0  0  0  0  0  0  0  0
    7.6606    0.0985   18.9962 H   0  0  0  0  0  0  0  0  0  0  0  0
    9.3224   -6.7626   23.3556 H   0  0  0  0  0  0  0  0  0  0  0  0
    9.6186   -5.9434   21.8249 H   0  0  0  0  0  0  0  0  0  0  0  0
    9.1059   -3.3122   21.7072 H   0  0  0  0  0  0  0  0  0  0  0  0
    8.4984   -2.5354   23.1671 H   0  0  0  0  0  0  0  0  0  0  0  0
    7.5014   -7.1837   21.7020 H   0  0  0  0  0  0  0  0  0  0  0  0
    6.9035   -6.4153   23.1544 H   0  0  0  0  0  0  0  0  0  0  0  0
    6.3898   -3.7812   23.0364 H   0  0  0  0  0  0  0  0  0  0  0  0
    6.6813   -2.9701   21.5153 H   0  0  0  0  0  0  0  0  0  0  0  0
    8.4860   -4.6817   24.3744 H   0  0  0  0  0  0  0  0  0  0  0  0
    7.4900   -5.0487   20.4756 H   0  0  0  0  0  0  0  0  0  0  0  0
   11.0486   -3.9198   22.9498 H   0  0  0  0  0  0  0  0  0  0  0  0
   11.0222   -5.2423   24.0987 H   0  0  0  0  0  0  0  0  0  0  0  0
    8.5014   -6.1894   28.7479 H   0  0  0  0  0  0  0  0  0  0  0  0
    8.6494   -5.0451   30.0621 H   0  0  0  0  0  0  0  0  0  0  0  0
   12.2951   -0.4236   24.1797 H   0  0  0  0  0  0  0  0  0  0  0  0
   12.8202   -1.9897   23.5730 H   0  0  0  0  0  0  0  0  0  0  0  0
    6.5115   -3.9062   29.2821 H   0  0  0  0  0  0  0  0  0  0  0  0
    6.2880   -5.5822   29.7287 H   0  0  0  0  0  0  0  0  0  0  0  0
    5.2499   -3.2914   27.3049 H   0  0  0  0  0  0  0  0  0  0  0  0
    9.6497   -0.9522   20.1793 H   0  0  0  0  0  0  0  0  0  0  0  0
    9.0604   -5.4711   26.3611 H   0  0  0  0  0  0  0  0  0  0  0  0
    9.9180   -0.0037   23.8000 H   0  0  0  0  0  0  0  0  0  0  0  0
    5.5611   -6.2134   20.6582 H   0  0  0  0  0  0  0  0  0  0  0  0
  1  8  1  0  0  0  0
  1  9  2  0  0  0  0
  2  4  2  0  0  0  0
  2 25  1  0  0  0  0
  3 11  2  0  0  0  0
  3 24  1  0  0  0  0
  4 26  1  0  0  0  0
  5 24  2  0  0  0  0
  5 27  1  0  0  0  0
  6  7  1  0  0  0  0
  6 10  2  0  0  0  0
  6 20  1  0  0  0  0
  7  8  2  0  0  0  0
  7 28  1  0  0  0  0
  8 32  1  0  0  0  0
  9 21  1  0  0  0  0
  9 28  1  0  0  0  0
 10 22  1  0  0  0  0
 10 32  1  0  0  0  0
 11 27  1  0  0  0  0
 11 29  1  0  0  0  0
 12 23  1  0  0  0  0
 12 25  2  0  0  0  0
 12 26  1  0  0  0  0
 13 22  1  0  0  0  0
 13 29  1  0  0  0  0
 13 30  2  0  0  0  0
 14 16  1  0  0  0  0
 14 18  1  0  0  0  0
 15 17  1  0  0  0  0
 15 18  1  0  0  0  0
 16 19  1  0  0  0  0
 17 19  1  0  0  0  0
 18 20  1  0  0  0  0
 19 31  1  0  0  0  0
 21 23  1  0  0  0  0
  1 33  1  0  0  0  0
  2 34  1  0  0  0  0
  3 35  1  0  0  0  0
  4 36  1  0  0  0  0
  5 37  1  0  0  0  0
 14 38  1  0  0  0  0
 14 39  1  0  0  0  0
 15 40  1  0  0  0  0
 15 41  1  0  0  0  0
 16 42  1  0  0  0  0
 16 43  1  0  0  0  0
 17 44  1  0  0  0  0
 17 45  1  0  0  0  0
 18 46  1  0  0  0  0
 19 47  1  0  0  0  0
 20 48  1  0  0  0  0
 20 49  1  0  0  0  0
 21 50  1  0  0  0  0
 21 51  1  0  0  0  0
 22 52  1  0  0  0  0
 22 53  1  0  0  0  0
 23 54  1  0  0  0  0
 23 55  1  0  0  0  0
 26 56  1  0  0  0  0
 27 57  1  0  0  0  0
 28 58  1  0  0  0  0
 29 59  1  0  0  0  0
 31 60  1  0  0  0  0
M  END
> <Chemgauss4 Score>
-5.36330270767212

> <Number of Confs>
200

$$$$
DAR-DIA-fc9-12
  -OEChem-03242005443D

 33 35  0     1  0  0  0  0  0999 V2000
   13.5677   -0.9268   22.3228 C   0  0  0  0  0  0  0  0  0  0  0  0
   13.4617   -0.3789   23.6011 C   0  0  0  0  0  0  0  0  0  0  0  0
   12.4507   -1.4998   21.7147 C   0  0  0  0  0  0  0  0  0  0  0  0
    8.5583   -4.8472   28.5751 C   0  0  0  0  0  0  0  0  0  0  0  0
   12.2388   -0.4041   24.2715 C   0  0  0  0  0  0  0  0  0  0  0  0
   11.2278   -1.5251   22.3851 C   0  0  0  0  0  0  0  0  0  0  0  0
    8.7795   -3.8604   27.6208 C   0  0  0  0  0  0  0  0  0  0  0  0
    8.0919   -6.0772   28.1400 C   0  0  0  0  0  0  0  0  0  0  0  0
    8.0660   -5.3921   25.9472 C   0  0  0  0  0  0  0  0  0  0  0  0
   11.1218   -0.9772   23.6635 C   0  0  0  0  0  0  0  0  0  0  0  0
    8.5311   -4.1300   26.2796 C   0  0  0  0  0  0  0  0  0  0  0  0
    7.8301   -2.0043   23.2642 C   0  0  0  0  0  0  0  0  0  0  0  0
    8.6361   -0.9589   23.4483 C   0  0  0  0  0  0  0  0  0  0  0  0
    9.7438   -2.1411   25.4271 C   0  0  0  0  0  0  0  0  0  0  0  0
    8.0210   -3.2857   23.9928 C   0  0  0  0  0  0  0  0  0  0  0  0
    9.7898   -1.0052   24.3931 C   0  0  1  0  0  0  0  0  0  0  0  0
    7.8391   -6.3762   26.8460 N   0  0  0  0  0  0  0  0  0  0  0  0
    8.7515   -3.1231   25.2625 N   0  0  0  0  0  0  0  0  0  0  0  0
   10.5913   -2.1368   26.3268 O   0  0  0  0  0  0  0  0  0  0  0  0
   14.5197   -0.9058   21.8004 H   0  0  0  0  0  0  0  0  0  0  0  0
   14.3310    0.0683   24.0742 H   0  0  0  0  0  0  0  0  0  0  0  0
   12.5326   -1.9255   20.7190 H   0  0  0  0  0  0  0  0  0  0  0  0
    8.7452   -4.6593   29.6262 H   0  0  0  0  0  0  0  0  0  0  0  0
   12.1656    0.0250   25.2673 H   0  0  0  0  0  0  0  0  0  0  0  0
   10.3629   -1.9738   21.9036 H   0  0  0  0  0  0  0  0  0  0  0  0
    9.1453   -2.8858   27.9330 H   0  0  0  0  0  0  0  0  0  0  0  0
    7.9026   -6.8799   28.8450 H   0  0  0  0  0  0  0  0  0  0  0  0
    7.8541   -5.6624   24.9170 H   0  0  0  0  0  0  0  0  0  0  0  0
    7.0146   -1.9344   22.5510 H   0  0  0  0  0  0  0  0  0  0  0  0
    8.4596   -0.0445   22.8887 H   0  0  0  0  0  0  0  0  0  0  0  0
    7.0377   -3.7114   24.2259 H   0  0  0  0  0  0  0  0  0  0  0  0
    8.5697   -3.9978   23.3662 H   0  0  0  0  0  0  0  0  0  0  0  0
    9.7406   -0.0687   24.9947 H   0  0  0  0  0  0  0  0  0  0  0  0
  1  2  1  0  0  0  0
  1  3  2  0  0  0  0
  2  5  2  0  0  0  0
  3  6  1  0  0  0  0
  4  7  2  0  0  0  0
  4  8  1  0  0  0  0
  5 10  1  0  0  0  0
  6 10  2  0  0  0  0
  7 11  1  0  0  0  0
  8 17  2  0  0  0  0
  9 11  2  0  0  0  0
  9 17  1  0  0  0  0
 10 16  1  1  0  0  0
 11 18  1  0  0  0  0
 12 13  2  0  0  0  0
 12 15  1  0  0  0  0
 13 16  1  0  0  0  0
 14 16  1  0  0  0  0
 14 18  1  0  0  0  0
 14 19  2  0  0  0  0
 15 18  1  0  0  0  0
  1 20  1  0  0  0  0
  2 21  1  0  0  0  0
  3 22  1  0  0  0  0
  4 23  1  0  0  0  0
  5 24  1  0  0  0  0
  6 25  1  0  0  0  0
  7 26  1  0  0  0  0
  8 27  1  0  0  0  0
  9 28  1  0  0  0  0
 12 29  1  0  0  0  0
 13 30  1  0  0  0  0
 15 31  1  0  0  0  0
 15 32  1  0  0  0  0
 16 33  1  0  0  0  0
M  END
> <Chemgauss4 Score>
-5.35490894317627

> <Number of Confs>
8

$$$$
DAN-LON-a5f-4
  -OEChem-03242005443D

 50 51  0     1  0  0  0  0  0999 V2000
    9.4660   -0.4498   22.6996 C   0  0  0  0  0  0  0  0  0  0  0  0
    9.3561   -0.6086   24.0810 C   0  0  0  0  0  0  0  0  0  0  0  0
   10.6950   -0.6480   22.0703 C   0  0  0  0  0  0  0  0  0  0  0  0
   11.7043   -1.1636   24.2040 C   0  0  0  0  0  0  0  0  0  0  0  0
   10.4753   -0.9655   24.8332 C   0  0  0  0  0  0  0  0  0  0  0  0
   11.8142   -1.0049   22.8225 C   0  0  0  0  0  0  0  0  0  0  0  0
    9.4945   -3.8551   25.0149 C   0  0  0  0  0  0  0  0  0  0  0  0
    7.0790   -5.3517   27.8734 C   0  0  0  0  0  0  0  0  0  0  0  0
    7.7798   -2.9755   28.3409 C   0  0  0  0  0  0  0  0  0  0  0  0
    8.9314   -2.0099   28.0596 C   0  0  0  0  0  0  0  0  0  0  0  0
    9.3858   -4.6034   27.3721 C   0  0  0  0  0  0  0  0  0  0  0  0
    9.9066   -3.5182   26.4172 C   0  0  2  0  0  0  0  0  0  0  0  0
    5.9887   -4.1839   23.7062 C   0  0  0  0  0  0  0  0  0  0  0  0
    7.9520   -3.1656   22.5244 C   0  0  0  0  0  0  0  0  0  0  0  0
    7.9592   -5.6064   23.0993 C   0  0  0  0  0  0  0  0  0  0  0  0
   10.3565   -1.1350   26.3202 C   0  0  0  0  0  0  0  0  0  0  0  0
    5.7384   -4.9907   28.4661 C   0  0  0  0  0  0  0  0  0  0  0  0
    7.5140   -4.2119   23.5545 C   0  0  0  0  0  0  0  0  0  0  0  0
    8.0277   -4.3283   27.8371 N   0  0  0  0  0  0  0  0  0  0  0  0
    9.3856   -2.1685   26.6774 N   0  0  2  0  0  0  0  0  0  0  0  0
    8.1264   -3.9067   24.8276 N   0  0  0  0  0  0  0  0  0  0  0  0
   10.3536   -4.0525   24.1636 O   0  0  0  0  0  0  0  0  0  0  0  0
    7.2723   -6.4948   27.4537 O   0  0  0  0  0  0  0  0  0  0  0  0
   13.3305   -1.2481   22.0458 Cl  0  0  0  0  0  0  0  0  0  0  0  0
    4.7347   -6.4324   28.3568 Cl  0  0  0  0  0  0  0  0  0  0  0  0
    8.5943   -0.1718   22.1142 H   0  0  0  0  0  0  0  0  0  0  0  0
    8.3946   -0.4521   24.5629 H   0  0  0  0  0  0  0  0  0  0  0  0
   10.7660   -0.5205   20.9929 H   0  0  0  0  0  0  0  0  0  0  0  0
   12.5738   -1.4423   24.7948 H   0  0  0  0  0  0  0  0  0  0  0  0
    7.5743   -2.9995   29.4242 H   0  0  0  0  0  0  0  0  0  0  0  0
    6.8521   -2.6187   27.8591 H   0  0  0  0  0  0  0  0  0  0  0  0
    8.5658   -0.9958   28.2189 H   0  0  0  0  0  0  0  0  0  0  0  0
    9.7403   -2.1978   28.7666 H   0  0  0  0  0  0  0  0  0  0  0  0
    9.3534   -5.5848   26.8731 H   0  0  0  0  0  0  0  0  0  0  0  0
   10.0855   -4.7142   28.2089 H   0  0  0  0  0  0  0  0  0  0  0  0
   11.0178   -3.5063   26.4372 H   0  0  0  0  0  0  0  0  0  0  0  0
    5.6498   -4.9251   24.4394 H   0  0  0  0  0  0  0  0  0  0  0  0
    5.6388   -3.1996   24.0367 H   0  0  0  0  0  0  0  0  0  0  0  0
    5.4930   -4.4173   22.7568 H   0  0  0  0  0  0  0  0  0  0  0  0
    9.0410   -3.1666   22.3983 H   0  0  0  0  0  0  0  0  0  0  0  0
    7.6637   -2.1559   22.8392 H   0  0  0  0  0  0  0  0  0  0  0  0
    7.4991   -3.3557   21.5450 H   0  0  0  0  0  0  0  0  0  0  0  0
    9.0481   -5.6549   22.9826 H   0  0  0  0  0  0  0  0  0  0  0  0
    7.6625   -6.3753   23.8212 H   0  0  0  0  0  0  0  0  0  0  0  0
    7.5177   -5.8664   22.1302 H   0  0  0  0  0  0  0  0  0  0  0  0
   11.3222   -1.4146   26.7553 H   0  0  0  0  0  0  0  0  0  0  0  0
   10.0425   -0.2012   26.7984 H   0  0  0  0  0  0  0  0  0  0  0  0
    5.3013   -4.1878   27.8835 H   0  0  0  0  0  0  0  0  0  0  0  0
    5.8770   -4.7112   29.5042 H   0  0  0  0  0  0  0  0  0  0  0  0
    7.5222   -3.7213   25.6226 H   0  0  0  0  0  0  0  0  0  0  0  0
  1  2  2  0  0  0  0
  1  3  1  0  0  0  0
  2  5  1  0  0  0  0
  3  6  2  0  0  0  0
  4  5  2  0  0  0  0
  4  6  1  0  0  0  0
  5 16  1  0  0  0  0
  6 24  1  0  0  0  0
  7 12  1  0  0  0  0
  7 21  1  0  0  0  0
  7 22  2  0  0  0  0
  8 17  1  0  0  0  0
  8 19  1  0  0  0  0
  8 23  2  0  0  0  0
  9 10  1  0  0  0  0
  9 19  1  0  0  0  0
 10 20  1  0  0  0  0
 11 12  1  0  0  0  0
 11 19  1  0  0  0  0
 12 20  1  0  0  0  0
 13 18  1  0  0  0  0
 14 18  1  0  0  0  0
 15 18  1  0  0  0  0
 16 20  1  1  0  0  0
 17 25  1  0  0  0  0
 18 21  1  0  0  0  0
  1 26  1  0  0  0  0
  2 27  1  0  0  0  0
  3 28  1  0  0  0  0
  4 29  1  0  0  0  0
  9 30  1  0  0  0  0
  9 31  1  0  0  0  0
 10 32  1  0  0  0  0
 10 33  1  0  0  0  0
 11 34  1  0  0  0  0
 11 35  1  0  0  0  0
 12 36  1  6  0  0  0
 13 37  1  0  0  0  0
 13 38  1  0  0  0  0
 13 39  1  0  0  0  0
 14 40  1  0  0  0  0
 14 41  1  0  0  0  0
 14 42  1  0  0  0  0
 15 43  1  0  0  0  0
 15 44  1  0  0  0  0
 15 45  1  0  0  0  0
 16 46  1  0  0  0  0
 16 47  1  0  0  0  0
 17 48  1  0  0  0  0
 17 49  1  0  0  0  0
 21 50  1  0  0  0  0
M  END
> <Chemgauss4 Score>
-5.35276317596436

> <Number of Confs>
200

$$$$
JOH-MEM-5e3-3
  -OEChem-03242005443D

 53 55  0     1  0  0  0  0  0999 V2000
   10.5511   -2.6079   23.8992 C   0  0  0  0  0  0  0  0  0  0  0  0
   11.6123   -1.8079   23.4660 C   0  0  0  0  0  0  0  0  0  0  0  0
   10.3088   -0.9968   21.5845 C   0  0  0  0  0  0  0  0  0  0  0  0
    7.2950   -2.9202   22.3446 C   0  0  0  0  0  0  0  0  0  0  0  0
    9.2253   -1.7951   22.0019 C   0  0  0  0  0  0  0  0  0  0  0  0
    7.9104   -2.0194   21.5063 C   0  0  0  0  0  0  0  0  0  0  0  0
    9.3712   -2.5807   23.1472 C   0  0  0  0  0  0  0  0  0  0  0  0
   11.4952   -1.0139   22.3269 C   0  0  0  0  0  0  0  0  0  0  0  0
    7.6740   -3.3856   27.9995 C   0  0  0  0  0  0  0  0  0  0  0  0
    6.7645    1.8308   22.0994 C   0  0  0  0  0  0  0  0  0  0  0  0
    7.6525   -4.3057   26.8215 C   0  0  2  0  0  0  0  0  0  0  0  0
    8.6814   -5.4214   26.9683 C   0  0  1  0  0  0  0  0  0  0  0  0
    8.6720   -6.2805   25.7037 C   0  0  1  0  0  0  0  0  0  0  0  0
    8.8661   -5.4167   24.4512 C   0  0  2  0  0  0  0  0  0  0  0  0
    7.8874   -4.2260   24.4554 C   0  0  2  0  0  0  0  0  0  0  0  0
    5.8558    2.1380   23.2432 C   0  0  0  0  0  0  0  0  0  0  0  0
   13.7289   -0.3020   22.7265 C   0  0  0  0  0  0  0  0  0  0  0  0
    7.3056   -1.4037   20.3078 C   0  0  0  0  0  0  0  0  0  0  0  0
    7.2566    0.1345   20.3493 C   0  0  0  0  0  0  0  0  0  0  0  0
    8.1838   -3.2527   23.3314 N   0  0  0  0  0  0  0  0  0  0  0  0
    6.5030    0.6228   21.4729 N   0  0  0  0  0  0  0  0  0  0  0  0
    7.9497   -2.1959   27.9559 O   0  0  0  0  0  0  0  0  0  0  0  0
    7.6445    2.6277   21.7960 O   0  0  0  0  0  0  0  0  0  0  0  0
    7.9478   -3.4971   25.6883 O   0  0  0  0  0  0  0  0  0  0  0  0
    7.3467   -4.0521   29.1335 O   0  0  0  0  0  0  0  0  0  0  0  0
    9.9774   -4.8383   27.1341 O   0  0  0  0  0  0  0  0  0  0  0  0
    9.7090   -7.2532   25.8005 O   0  0  0  0  0  0  0  0  0  0  0  0
    8.6095   -6.2113   23.2933 O   0  0  0  0  0  0  0  0  0  0  0  0
   12.5474   -0.2438   21.9302 O   0  0  0  0  0  0  0  0  0  0  0  0
   10.6478   -3.2243   24.7868 H   0  0  0  0  0  0  0  0  0  0  0  0
   12.5401   -1.8092   24.0335 H   0  0  0  0  0  0  0  0  0  0  0  0
   10.2277   -0.3742   20.6975 H   0  0  0  0  0  0  0  0  0  0  0  0
    6.3036   -3.3530   22.3193 H   0  0  0  0  0  0  0  0  0  0  0  0
    6.6378   -4.7097   26.7316 H   0  0  0  0  0  0  0  0  0  0  0  0
    8.4872   -6.0300   27.8581 H   0  0  0  0  0  0  0  0  0  0  0  0
    7.7247   -6.8291   25.6380 H   0  0  0  0  0  0  0  0  0  0  0  0
    9.9058   -5.0717   24.3908 H   0  0  0  0  0  0  0  0  0  0  0  0
    6.8490   -4.5487   24.2556 H   0  0  0  0  0  0  0  0  0  0  0  0
    6.2421    1.7555   24.2016 H   0  0  0  0  0  0  0  0  0  0  0  0
    5.7219    3.2211   23.3947 H   0  0  0  0  0  0  0  0  0  0  0  0
    4.8362    1.7293   23.1580 H   0  0  0  0  0  0  0  0  0  0  0  0
   14.4889    0.3577   22.3009 H   0  0  0  0  0  0  0  0  0  0  0  0
   14.0988   -1.3300   22.7565 H   0  0  0  0  0  0  0  0  0  0  0  0
   13.4906    0.0271   23.7407 H   0  0  0  0  0  0  0  0  0  0  0  0
    6.2695   -1.7725   20.1728 H   0  0  0  0  0  0  0  0  0  0  0  0
    7.8335   -1.7160   19.3842 H   0  0  0  0  0  0  0  0  0  0  0  0
    8.2626    0.5570   20.4364 H   0  0  0  0  0  0  0  0  0  0  0  0
    6.7947    0.5369   19.4418 H   0  0  0  0  0  0  0  0  0  0  0  0
    5.7375    0.0510   21.8264 H   0  0  0  0  0  0  0  0  0  0  0  0
    7.3570   -3.4651   29.9194 H   0  0  0  0  0  0  0  0  0  0  0  0
    9.9298   -4.2958   27.9348 H   0  0  0  0  0  0  0  0  0  0  0  0
    9.5158   -7.7857   26.5876 H   0  0  0  0  0  0  0  0  0  0  0  0
    7.6931   -6.5176   23.3686 H   0  0  0  0  0  0  0  0  0  0  0  0
  1  2  2  0  0  0  0
  1  7  1  0  0  0  0
  2  8  1  0  0  0  0
  3  5  1  0  0  0  0
  3  8  2  0  0  0  0
  4  6  2  0  0  0  0
  4 20  1  0  0  0  0
  5  6  1  0  0  0  0
  5  7  2  0  0  0  0
  6 18  1  0  0  0  0
  7 20  1  0  0  0  0
  8 29  1  0  0  0  0
  9 11  1  6  0  0  0
  9 22  2  0  0  0  0
  9 25  1  0  0  0  0
 10 16  1  0  0  0  0
 10 21  1  0  0  0  0
 10 23  2  0  0  0  0
 11 12  1  0  0  0  0
 11 24  1  0  0  0  0
 12 13  1  0  0  0  0
 12 26  1  6  0  0  0
 13 14  1  0  0  0  0
 13 27  1  6  0  0  0
 14 15  1  0  0  0  0
 14 28  1  1  0  0  0
 15 20  1  1  0  0  0
 15 24  1  0  0  0  0
 17 29  1  0  0  0  0
 18 19  1  0  0  0  0
 19 21  1  0  0  0  0
  1 30  1  0  0  0  0
  2 31  1  0  0  0  0
  3 32  1  0  0  0  0
  4 33  1  0  0  0  0
 11 34  1  0  0  0  0
 12 35  1  0  0  0  0
 13 36  1  0  0  0  0
 14 37  1  0  0  0  0
 15 38  1  0  0  0  0
 16 39  1  0  0  0  0
 16 40  1  0  0  0  0
 16 41  1  0  0  0  0
 17 42  1  0  0  0  0
 17 43  1  0  0  0  0
 17 44  1  0  0  0  0
 18 45  1  0  0  0  0
 18 46  1  0  0  0  0
 19 47  1  0  0  0  0
 19 48  1  0  0  0  0
 21 49  1  0  0  0  0
 25 50  1  0  0  0  0
 26 51  1  0  0  0  0
 27 52  1  0  0  0  0
 28 53  1  0  0  0  0
M  END
> <Chemgauss4 Score>
-5.35275650024414

> <Number of Confs>
200

$$$$
CHR-SOS-70e-10
  -OEChem-03242005443D

 44 46  0     0  0  0  0  0  0999 V2000
    6.2294   -4.8410   23.5520 C   0  0  0  0  0  0  0  0  0  0  0  0
   12.0857   -1.0760   22.9178 C   0  0  0  0  0  0  0  0  0  0  0  0
   11.4797   -2.2141   23.4382 C   0  0  0  0  0  0  0  0  0  0  0  0
    6.3438   -4.9244   24.9397 C   0  0  0  0  0  0  0  0  0  0  0  0
    6.4927   -3.6354   22.9017 C   0  0  0  0  0  0  0  0  0  0  0  0
    6.9846   -2.5965   25.0268 C   0  0  0  0  0  0  0  0  0  0  0  0
   12.0387    0.0859   23.6711 C   0  0  0  0  0  0  0  0  0  0  0  0
   10.8624   -0.9461   25.3532 C   0  0  0  0  0  0  0  0  0  0  0  0
   10.8541   -2.1563   24.6786 C   0  0  0  0  0  0  0  0  0  0  0  0
    6.7213   -3.8022   25.6770 C   0  0  0  0  0  0  0  0  0  0  0  0
    6.8703   -2.5131   23.6391 C   0  0  0  0  0  0  0  0  0  0  0  0
    9.5672   -3.3930   26.4552 C   0  0  0  0  0  0  0  0  0  0  0  0
    7.9895   -6.3050   29.1022 C   0  0  0  0  0  0  0  0  0  0  0  0
    7.2110   -6.2610   27.7756 C   0  0  0  0  0  0  0  0  0  0  0  0
    8.0464   -4.7678   29.0625 C   0  0  0  0  0  0  0  0  0  0  0  0
    7.7905   -4.8396   27.5308 C   0  0  0  0  0  0  0  0  0  0  0  0
    9.0425   -4.8037   26.6631 C   0  0  0  0  0  0  0  0  0  0  0  0
   11.4405    0.1805   24.8797 N   0  0  0  0  0  0  0  0  0  0  0  0
    5.6529   -0.2845   22.8292 N   0  0  0  0  0  0  0  0  0  0  0  0
   10.2286   -3.2977   25.2341 N   0  0  0  0  0  0  0  0  0  0  0  0
    9.3998   -2.5043   27.2838 O   0  0  0  0  0  0  0  0  0  0  0  0
    8.0905   -0.2145   23.6652 O   0  0  0  0  0  0  0  0  0  0  0  0
    7.5782   -1.2957   21.4479 O   0  0  0  0  0  0  0  0  0  0  0  0
    6.8319   -3.8832   27.0309 O   0  0  0  0  0  0  0  0  0  0  0  0
    7.2023   -1.0046   22.8243 S   0  0  0  0  0  0  0  0  0  0  0  0
    5.9351   -5.7146   22.9781 H   0  0  0  0  0  0  0  0  0  0  0  0
   12.5792   -1.0979   21.9528 H   0  0  0  0  0  0  0  0  0  0  0  0
   11.5009   -3.1399   22.8694 H   0  0  0  0  0  0  0  0  0  0  0  0
    6.1371   -5.8662   25.4404 H   0  0  0  0  0  0  0  0  0  0  0  0
    6.4018   -3.5816   21.8203 H   0  0  0  0  0  0  0  0  0  0  0  0
    7.2783   -1.7245   25.6061 H   0  0  0  0  0  0  0  0  0  0  0  0
   12.4957    1.0009   23.3090 H   0  0  0  0  0  0  0  0  0  0  0  0
   10.3906   -0.8385   26.3254 H   0  0  0  0  0  0  0  0  0  0  0  0
    7.4537   -6.7369   29.9513 H   0  0  0  0  0  0  0  0  0  0  0  0
    8.9714   -6.7847   29.0219 H   0  0  0  0  0  0  0  0  0  0  0  0
    7.4878   -7.0305   27.0493 H   0  0  0  0  0  0  0  0  0  0  0  0
    6.1223   -6.2790   27.9048 H   0  0  0  0  0  0  0  0  0  0  0  0
    7.2385   -4.2833   29.6236 H   0  0  0  0  0  0  0  0  0  0  0  0
    8.9987   -4.3297   29.3747 H   0  0  0  0  0  0  0  0  0  0  0  0
    8.8160   -5.2418   25.6862 H   0  0  0  0  0  0  0  0  0  0  0  0
    9.8257   -5.4040   27.1359 H   0  0  0  0  0  0  0  0  0  0  0  0
    5.4964    0.5179   23.4513 H   0  0  0  0  0  0  0  0  0  0  0  0
    5.1473   -0.2230   21.9371 H   0  0  0  0  0  0  0  0  0  0  0  0
   10.2749   -4.1398   24.6640 H   0  0  0  0  0  0  0  0  0  0  0  0
  1  4  1  0  0  0  0
  1  5  2  0  0  0  0
  2  3  2  0  0  0  0
  2  7  1  0  0  0  0
  3  9  1  0  0  0  0
  4 10  2  0  0  0  0
  5 11  1  0  0  0  0
  6 10  1  0  0  0  0
  6 11  2  0  0  0  0
  7 18  2  0  0  0  0
  8  9  2  0  0  0  0
  8 18  1  0  0  0  0
  9 20  1  0  0  0  0
 10 24  1  0  0  0  0
 11 25  1  0  0  0  0
 12 17  1  0  0  0  0
 12 20  1  0  0  0  0
 12 21  2  0  0  0  0
 13 14  1  0  0  0  0
 13 15  1  0  0  0  0
 14 16  1  0  0  0  0
 15 16  1  0  0  0  0
 16 17  1  0  0  0  0
 16 24  1  0  0  0  0
 19 25  1  0  0  0  0
 22 25  2  0  0  0  0
 23 25  2  0  0  0  0
  1 26  1  0  0  0  0
  2 27  1  0  0  0  0
  3 28  1  0  0  0  0
  4 29  1  0  0  0  0
  5 30  1  0  0  0  0
  6 31  1  0  0  0  0
  7 32  1  0  0  0  0
  8 33  1  0  0  0  0
 13 34  1  0  0  0  0
 13 35  1  0  0  0  0
 14 36  1  0  0  0  0
 14 37  1  0  0  0  0
 15 38  1  0  0  0  0
 15 39  1  0  0  0  0
 17 40  1  0  0  0  0
 17 41  1  0  0  0  0
 19 42  1  0  0  0  0
 19 43  1  0  0  0  0
 20 44  1  0  0  0  0
M  END
> <Chemgauss4 Score>
-5.35155630111694

> <Number of Confs>
200

$$$$
CHR-SOS-70e-9
  -OEChem-03242005443D

 44 46  0     0  0  0  0  0  0999 V2000
    6.2294   -4.8410   23.5520 C   0  0  0  0  0  0  0  0  0  0  0  0
   12.0857   -1.0760   22.9178 C   0  0  0  0  0  0  0  0  0  0  0  0
   11.4797   -2.2141   23.4382 C   0  0  0  0  0  0  0  0  0  0  0  0
    6.3438   -4.9244   24.9397 C   0  0  0  0  0  0  0  0  0  0  0  0
    6.4927   -3.6354   22.9017 C   0  0  0  0  0  0  0  0  0  0  0  0
    6.9846   -2.5965   25.0268 C   0  0  0  0  0  0  0  0  0  0  0  0
   12.0387    0.0859   23.6711 C   0  0  0  0  0  0  0  0  0  0  0  0
   10.8624   -0.9461   25.3532 C   0  0  0  0  0  0  0  0  0  0  0  0
   10.8541   -2.1563   24.6786 C   0  0  0  0  0  0  0  0  0  0  0  0
    6.7213   -3.8022   25.6770 C   0  0  0  0  0  0  0  0  0  0  0  0
    6.8703   -2.5131   23.6391 C   0  0  0  0  0  0  0  0  0  0  0  0
    9.5672   -3.3930   26.4552 C   0  0  0  0  0  0  0  0  0  0  0  0
    7.9895   -6.3050   29.1022 C   0  0  0  0  0  0  0  0  0  0  0  0
    7.2110   -6.2610   27.7756 C   0  0  0  0  0  0  0  0  0  0  0  0
    8.0464   -4.7678   29.0625 C   0  0  0  0  0  0  0  0  0  0  0  0
    7.7905   -4.8396   27.5308 C   0  0  0  0  0  0  0  0  0  0  0  0
    9.0425   -4.8037   26.6631 C   0  0  0  0  0  0  0  0  0  0  0  0
   11.4405    0.1805   24.8797 N   0  0  0  0  0  0  0  0  0  0  0  0
    5.6529   -0.2845   22.8292 N   0  0  0  0  0  0  0  0  0  0  0  0
   10.2286   -3.2977   25.2341 N   0  0  0  0  0  0  0  0  0  0  0  0
    9.3998   -2.5043   27.2838 O   0  0  0  0  0  0  0  0  0  0  0  0
    8.0905   -0.2145   23.6652 O   0  0  0  0  0  0  0  0  0  0  0  0
    7.5782   -1.2957   21.4479 O   0  0  0  0  0  0  0  0  0  0  0  0
    6.8319   -3.8832   27.0309 O   0  0  0  0  0  0  0  0  0  0  0  0
    7.2023   -1.0046   22.8243 S   0  0  0  0  0  0  0  0  0  0  0  0
    5.9351   -5.7146   22.9781 H   0  0  0  0  0  0  0  0  0  0  0  0
   12.5792   -1.0979   21.9528 H   0  0  0  0  0  0  0  0  0  0  0  0
   11.5009   -3.1399   22.8694 H   0  0  0  0  0  0  0  0  0  0  0  0
    6.1371   -5.8662   25.4404 H   0  0  0  0  0  0  0  0  0  0  0  0
    6.4018   -3.5816   21.8203 H   0  0  0  0  0  0  0  0  0  0  0  0
    7.2783   -1.7245   25.6061 H   0  0  0  0  0  0  0  0  0  0  0  0
   12.4957    1.0009   23.3090 H   0  0  0  0  0  0  0  0  0  0  0  0
   10.3906   -0.8385   26.3254 H   0  0  0  0  0  0  0  0  0  0  0  0
    7.4537   -6.7369   29.9513 H   0  0  0  0  0  0  0  0  0  0  0  0
    8.9714   -6.7847   29.0219 H   0  0  0  0  0  0  0  0  0  0  0  0
    7.4878   -7.0305   27.0493 H   0  0  0  0  0  0  0  0  0  0  0  0
    6.1223   -6.2790   27.9048 H   0  0  0  0  0  0  0  0  0  0  0  0
    7.2385   -4.2833   29.6236 H   0  0  0  0  0  0  0  0  0  0  0  0
    8.9987   -4.3297   29.3747 H   0  0  0  0  0  0  0  0  0  0  0  0
    8.8160   -5.2418   25.6862 H   0  0  0  0  0  0  0  0  0  0  0  0
    9.8257   -5.4040   27.1359 H   0  0  0  0  0  0  0  0  0  0  0  0
    5.4964    0.5179   23.4513 H   0  0  0  0  0  0  0  0  0  0  0  0
    5.1473   -0.2230   21.9371 H   0  0  0  0  0  0  0  0  0  0  0  0
   10.2749   -4.1398   24.6640 H   0  0  0  0  0  0  0  0  0  0  0  0
  1  4  1  0  0  0  0
  1  5  2  0  0  0  0
  2  3  2  0  0  0  0
  2  7  1  0  0  0  0
  3  9  1  0  0  0  0
  4 10  2  0  0  0  0
  5 11  1  0  0  0  0
  6 10  1  0  0  0  0
  6 11  2  0  0  0  0
  7 18  2  0  0  0  0
  8  9  2  0  0  0  0
  8 18  1  0  0  0  0
  9 20  1  0  0  0  0
 10 24  1  0  0  0  0
 11 25  1  0  0  0  0
 12 17  1  0  0  0  0
 12 20  1  0  0  0  0
 12 21  2  0  0  0  0
 13 14  1  0  0  0  0
 13 15  1  0  0  0  0
 14 16  1  0  0  0  0
 15 16  1  0  0  0  0
 16 17  1  0  0  0  0
 16 24  1  0  0  0  0
 19 25  1  0  0  0  0
 22 25  2  0  0  0  0
 23 25  2  0  0  0  0
  1 26  1  0  0  0  0
  2 27  1  0  0  0  0
  3 28  1  0  0  0  0
  4 29  1  0  0  0  0
  5 30  1  0  0  0  0
  6 31  1  0  0  0  0
  7 32  1  0  0  0  0
  8 33  1  0  0  0  0
 13 34  1  0  0  0  0
 13 35  1  0  0  0  0
 14 36  1  0  0  0  0
 14 37  1  0  0  0  0
 15 38  1  0  0  0  0
 15 39  1  0  0  0  0
 17 40  1  0  0  0  0
 17 41  1  0  0  0  0
 19 42  1  0  0  0  0
 19 43  1  0  0  0  0
 20 44  1  0  0  0  0
M  END
> <Chemgauss4 Score>
-5.35155630111694

> <Number of Confs>
200

$$$$
DUN-NEW-f8c-1
  -OEChem-03242005443D

 42 44  0     1  0  0  0  0  0999 V2000
   13.5280   -0.1444   22.7930 C   0  0  0  0  0  0  0  0  0  0  0  0
   12.8002    0.3070   23.8939 C   0  0  0  0  0  0  0  0  0  0  0  0
   13.0445   -1.2026   22.0235 C   0  0  0  0  0  0  0  0  0  0  0  0
   11.5889   -0.3000   24.2255 C   0  0  0  0  0  0  0  0  0  0  0  0
   11.8332   -1.8095   22.3551 C   0  0  0  0  0  0  0  0  0  0  0  0
   11.1053   -1.3583   23.4561 C   0  0  0  0  0  0  0  0  0  0  0  0
    7.8527   -1.7572   22.2646 C   0  0  0  0  0  0  0  0  0  0  0  0
    7.4526   -6.0287   24.8503 C   0  0  0  0  0  0  0  0  0  0  0  0
    9.0102   -5.1886   26.6389 C   0  0  0  0  0  0  0  0  0  0  0  0
    9.9435   -3.1943   24.7849 C   0  0  0  0  0  0  0  0  0  0  0  0
    8.5803   -4.0022   23.0773 C   0  0  0  0  0  0  0  0  0  0  0  0
    6.3047   -5.5217   25.7174 C   0  0  0  0  0  0  0  0  0  0  0  0
    7.7697   -4.7409   27.4061 C   0  0  0  0  0  0  0  0  0  0  0  0
    9.7919   -2.0171   23.8153 C   0  0  2  0  0  0  0  0  0  0  0  0
    9.0323   -2.6151   22.6147 C   0  0  2  0  0  0  0  0  0  0  0  0
    8.7503   -5.2690   25.1326 C   0  0  0  0  0  0  0  0  0  0  0  0
    8.7174   -3.9531   24.5362 N   0  0  1  0  0  0  0  0  0  0  0  0
    8.1126   -0.8312   21.2821 N   0  0  0  0  0  0  0  0  0  0  0  0
    6.7593   -1.8979   22.8068 O   0  0  0  0  0  0  0  0  0  0  0  0
    6.6540   -5.5757   27.0998 O   0  0  0  0  0  0  0  0  0  0  0  0
   14.4705    0.3292   22.5341 H   0  0  0  0  0  0  0  0  0  0  0  0
   13.1760    1.1316   24.4925 H   0  0  0  0  0  0  0  0  0  0  0  0
   13.6104   -1.5535   21.1656 H   0  0  0  0  0  0  0  0  0  0  0  0
   11.0286    0.0582   25.0852 H   0  0  0  0  0  0  0  0  0  0  0  0
   11.4643   -2.6335   21.7499 H   0  0  0  0  0  0  0  0  0  0  0  0
    7.6232   -7.0873   25.0855 H   0  0  0  0  0  0  0  0  0  0  0  0
    7.1807   -5.9758   23.7898 H   0  0  0  0  0  0  0  0  0  0  0  0
    9.8565   -4.5291   26.8640 H   0  0  0  0  0  0  0  0  0  0  0  0
    9.2875   -6.1925   26.9866 H   0  0  0  0  0  0  0  0  0  0  0  0
   10.8400   -3.7878   24.5590 H   0  0  0  0  0  0  0  0  0  0  0  0
   10.0088   -2.8508   25.8231 H   0  0  0  0  0  0  0  0  0  0  0  0
    7.5529   -4.2409   22.7823 H   0  0  0  0  0  0  0  0  0  0  0  0
    9.2479   -4.7591   22.6449 H   0  0  0  0  0  0  0  0  0  0  0  0
    6.0136   -4.4988   25.4519 H   0  0  0  0  0  0  0  0  0  0  0  0
    5.4254   -6.1577   25.5731 H   0  0  0  0  0  0  0  0  0  0  0  0
    7.9552   -4.8176   28.4824 H   0  0  0  0  0  0  0  0  0  0  0  0
    7.5148   -3.6966   27.1913 H   0  0  0  0  0  0  0  0  0  0  0  0
    9.1672   -1.2278   24.3050 H   0  0  0  0  0  0  0  0  0  0  0  0
    9.6563   -2.6980   21.7170 H   0  0  0  0  0  0  0  0  0  0  0  0
    9.5902   -5.8278   24.6615 H   0  0  0  0  0  0  0  0  0  0  0  0
    9.0439   -0.7954   20.8807 H   0  0  0  0  0  0  0  0  0  0  0  0
    7.4105   -0.1821   20.9421 H   0  0  0  0  0  0  0  0  0  0  0  0
  1  2  1  0  0  0  0
  1  3  2  0  0  0  0
  2  4  2  0  0  0  0
  3  5  1  0  0  0  0
  4  6  1  0  0  0  0
  5  6  2  0  0  0  0
  6 14  1  0  0  0  0
  7 15  1  0  0  0  0
  7 18  1  0  0  0  0
  7 19  2  0  0  0  0
  8 12  1  0  0  0  0
  8 16  1  0  0  0  0
  9 13  1  0  0  0  0
  9 16  1  0  0  0  0
 10 14  1  0  0  0  0
 10 17  1  0  0  0  0
 11 15  1  0  0  0  0
 11 17  1  0  0  0  0
 12 20  1  0  0  0  0
 13 20  1  0  0  0  0
 14 15  1  0  0  0  0
 16 17  1  1  0  0  0
  1 21  1  0  0  0  0
  2 22  1  0  0  0  0
  3 23  1  0  0  0  0
  4 24  1  0  0  0  0
  5 25  1  0  0  0  0
  8 26  1  0  0  0  0
  8 27  1  0  0  0  0
  9 28  1  0  0  0  0
  9 29  1  0  0  0  0
 10 30  1  0  0  0  0
 10 31  1  0  0  0  0
 11 32  1  0  0  0  0
 11 33  1  0  0  0  0
 12 34  1  0  0  0  0
 12 35  1  0  0  0  0
 13 36  1  0  0  0  0
 13 37  1  0  0  0  0
 14 38  1  6  0  0  0
 15 39  1  6  0  0  0
 16 40  1  0  0  0  0
 18 41  1  0  0  0  0
 18 42  1  0  0  0  0
M  END
> <Chemgauss4 Score>
-5.3497200012207

> <Number of Confs>
21

$$$$
CHR-SOS-70e-11
  -OEChem-03242005443D

 41 43  0     0  0  0  0  0  0999 V2000
    8.4427   -4.3810   28.3260 C   0  0  0  0  0  0  0  0  0  0  0  0
    9.2992   -3.9439   27.3217 C   0  0  0  0  0  0  0  0  0  0  0  0
    8.6360   -1.8717   23.5570 C   0  0  0  0  0  0  0  0  0  0  0  0
    8.7715   -3.9649   22.3580 C   0  0  0  0  0  0  0  0  0  0  0  0
    7.4685   -2.3065   24.1841 C   0  0  0  0  0  0  0  0  0  0  0  0
    7.6039   -4.3997   22.9852 C   0  0  0  0  0  0  0  0  0  0  0  0
    7.8456   -5.6221   28.1745 C   0  0  0  0  0  0  0  0  0  0  0  0
    8.8835   -5.9745   26.1555 C   0  0  0  0  0  0  0  0  0  0  0  0
    9.5292   -4.7499   26.2123 C   0  0  0  0  0  0  0  0  0  0  0  0
    9.2876   -2.7009   22.6439 C   0  0  0  0  0  0  0  0  0  0  0  0
    6.9524   -3.5705   23.8983 C   0  0  0  0  0  0  0  0  0  0  0  0
   11.1083   -3.1395   25.0921 C   0  0  0  0  0  0  0  0  0  0  0  0
   11.6043   -0.5302   23.3707 C   0  0  0  0  0  0  0  0  0  0  0  0
   12.5706   -1.0251   22.3306 C   0  0  0  0  0  0  0  0  0  0  0  0
   11.5321   -1.9560   22.8953 C   0  0  0  0  0  0  0  0  0  0  0  0
   11.9348   -3.0675   23.8040 C   0  0  0  0  0  0  0  0  0  0  0  0
    8.0446   -6.4330   27.1113 N   0  0  0  0  0  0  0  0  0  0  0  0
    4.3057   -3.5616   23.5824 N   0  0  0  0  0  0  0  0  0  0  0  0
   10.3953   -4.3322   25.1740 N   0  0  0  0  0  0  0  0  0  0  0  0
   11.1221   -2.2217   25.9057 O   0  0  0  0  0  0  0  0  0  0  0  0
    5.4854   -5.5707   24.6859 O   0  0  0  0  0  0  0  0  0  0  0  0
    5.3398   -3.3878   25.9355 O   0  0  0  0  0  0  0  0  0  0  0  0
   10.4292   -2.2762   22.0312 O   0  0  0  0  0  0  0  0  0  0  0  0
    5.4902   -4.1146   24.6827 S   0  0  0  0  0  0  0  0  0  0  0  0
    8.2487   -3.7694   29.1998 H   0  0  0  0  0  0  0  0  0  0  0  0
    9.7818   -2.9745   27.4136 H   0  0  0  0  0  0  0  0  0  0  0  0
    9.0337   -0.8863   23.7843 H   0  0  0  0  0  0  0  0  0  0  0  0
    9.2745   -4.6152   21.6476 H   0  0  0  0  0  0  0  0  0  0  0  0
    6.9690   -1.6524   24.8937 H   0  0  0  0  0  0  0  0  0  0  0  0
    7.2102   -5.3860   22.7550 H   0  0  0  0  0  0  0  0  0  0  0  0
    7.1686   -6.0081   28.9295 H   0  0  0  0  0  0  0  0  0  0  0  0
    9.0232   -6.6479   25.3150 H   0  0  0  0  0  0  0  0  0  0  0  0
   11.9921   -0.3338   24.3630 H   0  0  0  0  0  0  0  0  0  0  0  0
   10.8295    0.1565   23.0515 H   0  0  0  0  0  0  0  0  0  0  0  0
   12.4431   -0.6696   21.3150 H   0  0  0  0  0  0  0  0  0  0  0  0
   13.6034   -1.1598   22.6286 H   0  0  0  0  0  0  0  0  0  0  0  0
   12.9952   -2.9677   24.1002 H   0  0  0  0  0  0  0  0  0  0  0  0
   11.8369   -4.0447   23.2966 H   0  0  0  0  0  0  0  0  0  0  0  0
    3.8142   -4.2606   23.0120 H   0  0  0  0  0  0  0  0  0  0  0  0
    3.7171   -2.7689   23.8659 H   0  0  0  0  0  0  0  0  0  0  0  0
   10.5002   -4.9898   24.4041 H   0  0  0  0  0  0  0  0  0  0  0  0
  1  2  2  0  0  0  0
  1  7  1  0  0  0  0
  2  9  1  0  0  0  0
  3  5  2  0  0  0  0
  3 10  1  0  0  0  0
  4  6  1  0  0  0  0
  4 10  2  0  0  0  0
  5 11  1  0  0  0  0
  6 11  2  0  0  0  0
  7 17  2  0  0  0  0
  8  9  2  0  0  0  0
  8 17  1  0  0  0  0
  9 19  1  0  0  0  0
 10 23  1  0  0  0  0
 11 24  1  0  0  0  0
 12 16  1  0  0  0  0
 12 19  1  0  0  0  0
 12 20  2  0  0  0  0
 13 14  1  0  0  0  0
 13 15  1  0  0  0  0
 14 15  1  0  0  0  0
 15 16  1  0  0  0  0
 15 23  1  0  0  0  0
 18 24  1  0  0  0  0
 21 24  2  0  0  0  0
 22 24  2  0  0  0  0
  1 25  1  0  0  0  0
  2 26  1  0  0  0  0
  3 27  1  0  0  0  0
  4 28  1  0  0  0  0
  5 29  1  0  0  0  0
  6 30  1  0  0  0  0
  7 31  1  0  0  0  0
  8 32  1  0  0  0  0
 13 33  1  0  0  0  0
 13 34  1  0  0  0  0
 14 35  1  0  0  0  0
 14 36  1  0  0  0  0
 16 37  1  0  0  0  0
 16 38  1  0  0  0  0
 18 39  1  0  0  0  0
 18 40  1  0  0  0  0
 19 41  1  0  0  0  0
M  END
> <Chemgauss4 Score>
-5.33078813552856

> <Number of Confs>
200

$$$$
KIM-UNI-60f-4
  -OEChem-03242005443D

 33 34  0     0  0  0  0  0  0999 V2000
    8.7759   -4.3725   28.5219 C   0  0  0  0  0  0  0  0  0  0  0  0
    8.2760   -5.6291   28.2208 C   0  0  0  0  0  0  0  0  0  0  0  0
    8.2089   -5.1619   25.9724 C   0  0  0  0  0  0  0  0  0  0  0  0
    8.9919   -3.4888   27.4703 C   0  0  0  0  0  0  0  0  0  0  0  0
    8.7055   -3.8833   26.1681 C   0  0  0  0  0  0  0  0  0  0  0  0
    7.8424   -2.1607   24.6439 C   0  0  0  0  0  0  0  0  0  0  0  0
   10.1982   -3.0179   24.4045 C   0  0  0  0  0  0  0  0  0  0  0  0
   12.3054   -1.1494   22.7177 C   0  0  0  0  0  0  0  0  0  0  0  0
    8.2295   -1.1244   23.6225 C   0  0  0  0  0  0  0  0  0  0  0  0
    9.0640   -1.7879   22.5573 C   0  0  0  0  0  0  0  0  0  0  0  0
    9.5296   -2.1272   27.7664 C   0  0  0  0  0  0  0  0  0  0  0  0
   11.4700   -2.3588   22.3663 C   0  0  0  0  0  0  0  0  0  0  0  0
    7.9859   -6.0481   26.9686 N   0  0  0  0  0  0  0  0  0  0  0  0
    8.9132   -3.0003   25.0384 N   0  0  0  0  0  0  0  0  0  0  0  0
   10.2513   -2.3621   23.1626 N   0  0  0  0  0  0  0  0  0  0  0  0
   11.7065   -0.3595   23.6754 N   0  0  0  0  0  0  0  0  0  0  0  0
    6.6796   -2.2181   25.0443 O   0  0  0  0  0  0  0  0  0  0  0  0
   11.2036   -3.5209   24.9170 O   0  0  0  0  0  0  0  0  0  0  0  0
   13.4129   -0.9191   22.2397 O   0  0  0  0  0  0  0  0  0  0  0  0
    8.9888   -4.0956   29.5489 H   0  0  0  0  0  0  0  0  0  0  0  0
    8.0897   -6.3553   29.0052 H   0  0  0  0  0  0  0  0  0  0  0  0
    7.9666   -5.5281   24.9791 H   0  0  0  0  0  0  0  0  0  0  0  0
    7.3228   -0.6712   23.2073 H   0  0  0  0  0  0  0  0  0  0  0  0
    8.8110   -0.3393   24.1169 H   0  0  0  0  0  0  0  0  0  0  0  0
    8.4847   -2.5783   22.0681 H   0  0  0  0  0  0  0  0  0  0  0  0
    9.3922   -1.0717   21.7953 H   0  0  0  0  0  0  0  0  0  0  0  0
   10.6254   -2.1375   27.7391 H   0  0  0  0  0  0  0  0  0  0  0  0
    9.1685   -1.3914   27.0373 H   0  0  0  0  0  0  0  0  0  0  0  0
    9.2076   -1.7806   28.7562 H   0  0  0  0  0  0  0  0  0  0  0  0
   12.0142   -3.2837   22.5760 H   0  0  0  0  0  0  0  0  0  0  0  0
   11.1956   -2.3189   21.3086 H   0  0  0  0  0  0  0  0  0  0  0  0
   10.8048   -0.6092   24.0678 H   0  0  0  0  0  0  0  0  0  0  0  0
   12.1358    0.4914   24.0246 H   0  0  0  0  0  0  0  0  0  0  0  0
  1  2  2  0  0  0  0
  1  4  1  0  0  0  0
  2 13  1  0  0  0  0
  3  5  1  0  0  0  0
  3 13  2  0  0  0  0
  4  5  2  0  0  0  0
  4 11  1  0  0  0  0
  5 14  1  0  0  0  0
  6  9  1  0  0  0  0
  6 14  1  0  0  0  0
  6 17  2  0  0  0  0
  7 14  1  0  0  0  0
  7 15  1  0  0  0  0
  7 18  2  0  0  0  0
  8 12  1  0  0  0  0
  8 16  1  0  0  0  0
  8 19  2  0  0  0  0
  9 10  1  0  0  0  0
 10 15  1  0  0  0  0
 12 15  1  0  0  0  0
  1 20  1  0  0  0  0
  2 21  1  0  0  0  0
  3 22  1  0  0  0  0
  9 23  1  0  0  0  0
  9 24  1  0  0  0  0
 10 25  1  0  0  0  0
 10 26  1  0  0  0  0
 11 27  1  0  0  0  0
 11 28  1  0  0  0  0
 11 29  1  0  0  0  0
 12 30  1  0  0  0  0
 12 31  1  0  0  0  0
 16 32  1  0  0  0  0
 16 33  1  0  0  0  0
M  END
> <Chemgauss4 Score>
-5.32330465316772

> <Number of Confs>
62

$$$$
CHR-SOS-54d-3
  -OEChem-03242005443D

 51 53  0     1  0  0  0  0  0999 V2000
    8.0857   -1.9247   23.5726 C   0  0  0  0  0  0  0  0  0  0  0  0
    9.2221   -2.2510   23.7827 C   0  0  0  0  0  0  0  0  0  0  0  0
    6.1221   -5.7392   28.1445 C   0  0  0  0  0  0  0  0  0  0  0  0
    6.8686   -5.5178   26.9926 C   0  0  0  0  0  0  0  0  0  0  0  0
    6.5986   -5.2177   29.3364 C   0  0  0  0  0  0  0  0  0  0  0  0
    8.4422   -4.3124   28.3069 C   0  0  0  0  0  0  0  0  0  0  0  0
    8.0522   -4.7917   27.0667 C   0  0  0  0  0  0  0  0  0  0  0  0
   10.2141   -4.3878   25.8400 C   0  0  0  0  0  0  0  0  0  0  0  0
   12.2847   -0.1982   23.6424 C   0  0  0  0  0  0  0  0  0  0  0  0
   11.7049   -0.9534   22.4519 C   0  0  0  0  0  0  0  0  0  0  0  0
   11.4225   -0.3655   24.8885 C   0  0  0  0  0  0  0  0  0  0  0  0
    5.5062   -3.6160   24.1267 C   0  0  0  0  0  0  0  0  0  0  0  0
    5.8326   -2.7338   22.9214 C   0  0  0  0  0  0  0  0  0  0  0  0
   11.4792   -2.4320   22.7759 C   0  0  0  0  0  0  0  0  0  0  0  0
   11.1951   -1.8410   25.2248 C   0  0  0  0  0  0  0  0  0  0  0  0
    4.9389   -2.7935   25.2806 C   0  0  0  0  0  0  0  0  0  0  0  0
    6.0892   -0.8015   24.5304 C   0  0  0  0  0  0  0  0  0  0  0  0
    6.6884   -1.5236   23.3146 C   0  0  1  0  0  0  0  0  0  0  0  0
   10.6243   -2.6538   24.0426 C   0  0  0  0  0  0  0  0  0  0  0  0
   10.6292   -4.1491   24.4040 C   0  0  0  0  0  0  0  0  0  0  0  0
    7.7435   -4.5074   29.4477 N   0  0  0  0  0  0  0  0  0  0  0  0
    5.8422   -1.7065   25.6570 N   0  0  0  0  0  0  0  0  0  0  0  0
    8.8335   -4.5502   25.9118 N   0  0  0  0  0  0  0  0  0  0  0  0
   11.0182   -4.4234   26.7656 O   0  0  0  0  0  0  0  0  0  0  0  0
    5.1965   -6.3024   28.1102 H   0  0  0  0  0  0  0  0  0  0  0  0
    6.5193   -5.9150   26.0432 H   0  0  0  0  0  0  0  0  0  0  0  0
    6.0535   -5.3635   30.2632 H   0  0  0  0  0  0  0  0  0  0  0  0
    9.3562   -3.7387   28.4284 H   0  0  0  0  0  0  0  0  0  0  0  0
   13.2984   -0.5642   23.8482 H   0  0  0  0  0  0  0  0  0  0  0  0
   12.3744    0.8657   23.3961 H   0  0  0  0  0  0  0  0  0  0  0  0
   10.7590   -0.4893   22.1471 H   0  0  0  0  0  0  0  0  0  0  0  0
   12.3863   -0.8670   21.5977 H   0  0  0  0  0  0  0  0  0  0  0  0
   11.9067    0.1318   25.7369 H   0  0  0  0  0  0  0  0  0  0  0  0
   10.4588    0.1363   24.7390 H   0  0  0  0  0  0  0  0  0  0  0  0
    4.7808   -4.3845   23.8289 H   0  0  0  0  0  0  0  0  0  0  0  0
    6.4109   -4.1420   24.4540 H   0  0  0  0  0  0  0  0  0  0  0  0
    6.3608   -3.3397   22.1673 H   0  0  0  0  0  0  0  0  0  0  0  0
    4.8982   -2.4017   22.4441 H   0  0  0  0  0  0  0  0  0  0  0  0
   11.0163   -2.9194   21.9077 H   0  0  0  0  0  0  0  0  0  0  0  0
   12.4609   -2.9057   22.9115 H   0  0  0  0  0  0  0  0  0  0  0  0
   12.1567   -2.2731   25.5334 H   0  0  0  0  0  0  0  0  0  0  0  0
   10.5305   -1.9084   26.0962 H   0  0  0  0  0  0  0  0  0  0  0  0
    3.9756   -2.3672   24.9845 H   0  0  0  0  0  0  0  0  0  0  0  0
    4.7471   -3.4347   26.1478 H   0  0  0  0  0  0  0  0  0  0  0  0
    6.7428    0.0207   24.8579 H   0  0  0  0  0  0  0  0  0  0  0  0
    5.1368   -0.3312   24.2498 H   0  0  0  0  0  0  0  0  0  0  0  0
    6.6895   -0.8161   22.4615 H   0  0  0  0  0  0  0  0  0  0  0  0
   11.6349   -4.5385   24.2487 H   0  0  0  0  0  0  0  0  0  0  0  0
    9.9410   -4.6679   23.7374 H   0  0  0  0  0  0  0  0  0  0  0  0
    5.4183   -1.1733   26.4196 H   0  0  0  0  0  0  0  0  0  0  0  0
    8.3129   -4.4910   25.0391 H   0  0  0  0  0  0  0  0  0  0  0  0
  1  2  3  0  0  0  0
  1 18  1  6  0  0  0
  2 19  1  0  0  0  0
  3  4  2  0  0  0  0
  3  5  1  0  0  0  0
  4  7  1  0  0  0  0
  5 21  2  0  0  0  0
  6  7  2  0  0  0  0
  6 21  1  0  0  0  0
  7 23  1  0  0  0  0
  8 20  1  0  0  0  0
  8 23  1  0  0  0  0
  8 24  2  0  0  0  0
  9 10  1  0  0  0  0
  9 11  1  0  0  0  0
 10 14  1  0  0  0  0
 11 15  1  0  0  0  0
 12 13  1  0  0  0  0
 12 16  1  0  0  0  0
 13 18  1  0  0  0  0
 14 19  1  0  0  0  0
 15 19  1  0  0  0  0
 16 22  1  0  0  0  0
 17 18  1  0  0  0  0
 17 22  1  0  0  0  0
 19 20  1  0  0  0  0
  3 25  1  0  0  0  0
  4 26  1  0  0  0  0
  5 27  1  0  0  0  0
  6 28  1  0  0  0  0
  9 29  1  0  0  0  0
  9 30  1  0  0  0  0
 10 31  1  0  0  0  0
 10 32  1  0  0  0  0
 11 33  1  0  0  0  0
 11 34  1  0  0  0  0
 12 35  1  0  0  0  0
 12 36  1  0  0  0  0
 13 37  1  0  0  0  0
 13 38  1  0  0  0  0
 14 39  1  0  0  0  0
 14 40  1  0  0  0  0
 15 41  1  0  0  0  0
 15 42  1  0  0  0  0
 16 43  1  0  0  0  0
 16 44  1  0  0  0  0
 17 45  1  0  0  0  0
 17 46  1  0  0  0  0
 18 47  1  0  0  0  0
 20 48  1  0  0  0  0
 20 49  1  0  0  0  0
 22 50  1  0  0  0  0
 23 51  1  0  0  0  0
M  END
> <Chemgauss4 Score>
-5.32222080230713

> <Number of Confs>
187

$$$$
JOR-UNI-2fc-12
  -OEChem-03242005443D

 49 51  0     0  0  0  0  0  0999 V2000
   12.7463   -0.8246   22.3692 C   0  0  0  0  0  0  0  0  0  0  0  0
    4.4984   -5.6323   24.2899 C   0  0  0  0  0  0  0  0  0  0  0  0
   11.9317   -1.8922   22.7464 C   0  0  0  0  0  0  0  0  0  0  0  0
    5.6737   -4.9585   24.6028 C   0  0  0  0  0  0  0  0  0  0  0  0
   12.2041    0.4539   22.2378 C   0  0  0  0  0  0  0  0  0  0  0  0
   10.0327   -0.4029   22.8606 C   0  0  0  0  0  0  0  0  0  0  0  0
    4.0366   -5.5594   22.9856 C   0  0  0  0  0  0  0  0  0  0  0  0
    5.7977   -4.2321   22.3415 C   0  0  0  0  0  0  0  0  0  0  0  0
   10.5750   -1.6814   22.9921 C   0  0  0  0  0  0  0  0  0  0  0  0
    6.3419   -4.2426   23.6157 C   0  0  0  0  0  0  0  0  0  0  0  0
   10.8474    0.6647   22.4834 C   0  0  0  0  0  0  0  0  0  0  0  0
    8.3213   -2.7875   23.0229 C   0  0  0  0  0  0  0  0  0  0  0  0
    8.6943   -2.7746   29.0912 C   0  0  0  0  0  0  0  0  0  0  0  0
    8.0482   -3.6659   28.0352 C   0  0  0  0  0  0  0  0  0  0  0  0
    9.4710   -1.6253   28.4564 C   0  0  0  0  0  0  0  0  0  0  0  0
    9.0727   -4.1741   27.0233 C   0  0  0  0  0  0  0  0  0  0  0  0
   10.4979   -2.1300   27.4451 C   0  0  0  0  0  0  0  0  0  0  0  0
    9.8501   -3.0200   26.3759 C   0  0  0  0  0  0  0  0  0  0  0  0
   10.9042   -3.5554   25.4086 C   0  0  0  0  0  0  0  0  0  0  0  0
   10.3179   -3.9281   24.0546 C   0  0  0  0  0  0  0  0  0  0  0  0
    4.6582   -4.8742   21.9998 N   0  0  0  0  0  0  0  0  0  0  0  0
    7.5407   -3.5462   23.9040 N   0  0  0  0  0  0  0  0  0  0  0  0
    9.7192   -2.8052   23.3877 N   0  0  0  0  0  0  0  0  0  0  0  0
    7.8654   -2.1794   22.0533 O   0  0  0  0  0  0  0  0  0  0  0  0
   10.1783    2.2421   22.3213 Cl  0  0  0  0  0  0  0  0  0  0  0  0
   13.8029   -0.9889   22.1779 H   0  0  0  0  0  0  0  0  0  0  0  0
    3.9609   -6.1966   25.0433 H   0  0  0  0  0  0  0  0  0  0  0  0
   12.3655   -2.8843   22.8456 H   0  0  0  0  0  0  0  0  0  0  0  0
    6.0598   -4.9979   25.6179 H   0  0  0  0  0  0  0  0  0  0  0  0
   12.8513    1.2759   21.9434 H   0  0  0  0  0  0  0  0  0  0  0  0
    8.9743   -0.2421   23.0533 H   0  0  0  0  0  0  0  0  0  0  0  0
    3.1239   -6.0668   22.6909 H   0  0  0  0  0  0  0  0  0  0  0  0
    6.2735   -3.6912   21.5289 H   0  0  0  0  0  0  0  0  0  0  0  0
    7.9224   -2.3740   29.7580 H   0  0  0  0  0  0  0  0  0  0  0  0
    9.3726   -3.3753   29.7097 H   0  0  0  0  0  0  0  0  0  0  0  0
    7.5573   -4.5164   28.5219 H   0  0  0  0  0  0  0  0  0  0  0  0
    7.2660   -3.1031   27.5109 H   0  0  0  0  0  0  0  0  0  0  0  0
    8.7717   -0.9437   27.9567 H   0  0  0  0  0  0  0  0  0  0  0  0
    9.9766   -1.0470   29.2381 H   0  0  0  0  0  0  0  0  0  0  0  0
    9.7689   -4.8566   27.5278 H   0  0  0  0  0  0  0  0  0  0  0  0
    8.5591   -4.7592   26.2511 H   0  0  0  0  0  0  0  0  0  0  0  0
   10.9899   -1.2725   26.9706 H   0  0  0  0  0  0  0  0  0  0  0  0
   11.2790   -2.6907   27.9746 H   0  0  0  0  0  0  0  0  0  0  0  0
    9.1433   -2.4081   25.7996 H   0  0  0  0  0  0  0  0  0  0  0  0
   11.3639   -4.4422   25.8559 H   0  0  0  0  0  0  0  0  0  0  0  0
   11.6902   -2.8030   25.2886 H   0  0  0  0  0  0  0  0  0  0  0  0
   11.1090   -4.3051   23.3987 H   0  0  0  0  0  0  0  0  0  0  0  0
    9.5549   -4.7070   24.1504 H   0  0  0  0  0  0  0  0  0  0  0  0
    7.8735   -3.6037   24.8624 H   0  0  0  0  0  0  0  0  0  0  0  0
  1  3  2  0  0  0  0
  1  5  1  0  0  0  0
  2  4  2  0  0  0  0
  2  7  1  0  0  0  0
  3  9  1  0  0  0  0
  4 10  1  0  0  0  0
  5 11  2  0  0  0  0
  6  9  2  0  0  0  0
  6 11  1  0  0  0  0
  7 21  2  0  0  0  0
  8 10  2  0  0  0  0
  8 21  1  0  0  0  0
  9 23  1  0  0  0  0
 10 22  1  0  0  0  0
 11 25  1  0  0  0  0
 12 22  1  0  0  0  0
 12 23  1  0  0  0  0
 12 24  2  0  0  0  0
 13 14  1  0  0  0  0
 13 15  1  0  0  0  0
 14 16  1  0  0  0  0
 15 17  1  0  0  0  0
 16 18  1  0  0  0  0
 17 18  1  0  0  0  0
 18 19  1  0  0  0  0
 19 20  1  0  0  0  0
 20 23  1  0  0  0  0
  1 26  1  0  0  0  0
  2 27  1  0  0  0  0
  3 28  1  0  0  0  0
  4 29  1  0  0  0  0
  5 30  1  0  0  0  0
  6 31  1  0  0  0  0
  7 32  1  0  0  0  0
  8 33  1  0  0  0  0
 13 34  1  0  0  0  0
 13 35  1  0  0  0  0
 14 36  1  0  0  0  0
 14 37  1  0  0  0  0
 15 38  1  0  0  0  0
 15 39  1  0  0  0  0
 16 40  1  0  0  0  0
 16 41  1  0  0  0  0
 17 42  1  0  0  0  0
 17 43  1  0  0  0  0
 18 44  1  0  0  0  0
 19 45  1  0  0  0  0
 19 46  1  0  0  0  0
 20 47  1  0  0  0  0
 20 48  1  0  0  0  0
 22 49  1  0  0  0  0
M  END
> <Chemgauss4 Score>
-5.32146263122559

> <Number of Confs>
200

$$$$
SAM-UNK-83e-3
  -OEChem-03242005443D

 39 40  0     0  0  0  0  0  0999 V2000
   10.9230   -0.9669   22.4084 C   0  0  0  0  0  0  0  0  0  0  0  0
   11.9430   -2.6859   23.7874 C   0  0  0  0  0  0  0  0  0  0  0  0
    7.4628   -1.9300   23.0866 C   0  0  0  0  0  0  0  0  0  0  0  0
    9.6481   -1.4522   22.7613 C   0  0  0  0  0  0  0  0  0  0  0  0
   10.6890   -3.1848   24.1515 C   0  0  0  0  0  0  0  0  0  0  0  0
    8.3168   -1.0731   22.4313 C   0  0  0  0  0  0  0  0  0  0  0  0
    9.5607   -2.5477   23.6229 C   0  0  0  0  0  0  0  0  0  0  0  0
   12.0605   -1.5942   22.9295 C   0  0  0  0  0  0  0  0  0  0  0  0
   10.5278   -4.3179   25.0402 C   0  0  0  0  0  0  0  0  0  0  0  0
    7.8978   -0.0188   21.5899 C   0  0  0  0  0  0  0  0  0  0  0  0
    9.8455   -4.2680   26.1821 C   0  0  0  0  0  0  0  0  0  0  0  0
    7.1254   -0.1666   20.4904 C   0  0  0  0  0  0  0  0  0  0  0  0
    5.8847    0.5650   18.5406 C   0  0  0  0  0  0  0  0  0  0  0  0
    5.5660    1.8222   17.7744 C   0  0  0  0  0  0  0  0  0  0  0  0
    7.7514   -2.0753   28.6814 C   0  0  0  0  0  0  0  0  0  0  0  0
    8.2224   -2.8157   23.8029 N   0  0  0  0  0  0  0  0  0  0  0  0
    6.6786    0.8078   19.6534 N   0  0  0  0  0  0  0  0  0  0  0  0
    9.2056   -3.1812   26.6909 N   0  0  0  0  0  0  0  0  0  0  0  0
    5.4847   -0.5347   18.1651 O   0  0  0  0  0  0  0  0  0  0  0  0
    6.6203   -3.3488   26.7115 O   0  0  0  0  0  0  0  0  0  0  0  0
    7.9544   -4.6624   28.4077 O   0  0  0  0  0  0  0  0  0  0  0  0
   13.2765   -1.1385   22.5984 F   0  0  0  0  0  0  0  0  0  0  0  0
    7.7650   -3.4780   27.5928 S   0  0  0  0  0  0  0  0  0  0  0  0
   11.0334   -0.1169   21.7410 H   0  0  0  0  0  0  0  0  0  0  0  0
   12.8485   -3.1491   24.1733 H   0  0  0  0  0  0  0  0  0  0  0  0
    6.3833   -1.9935   23.1111 H   0  0  0  0  0  0  0  0  0  0  0  0
   10.9674   -5.2536   24.7242 H   0  0  0  0  0  0  0  0  0  0  0  0
    8.1864    1.0081   21.8506 H   0  0  0  0  0  0  0  0  0  0  0  0
    9.7399   -5.1164   26.8482 H   0  0  0  0  0  0  0  0  0  0  0  0
    6.7639   -1.1367   20.1701 H   0  0  0  0  0  0  0  0  0  0  0  0
    6.3348    1.9910   17.0151 H   0  0  0  0  0  0  0  0  0  0  0  0
    5.5455    2.6691   18.4655 H   0  0  0  0  0  0  0  0  0  0  0  0
    4.5978    1.7414   17.2721 H   0  0  0  0  0  0  0  0  0  0  0  0
    6.8697   -2.1438   29.3204 H   0  0  0  0  0  0  0  0  0  0  0  0
    8.6618   -2.0970   29.2823 H   0  0  0  0  0  0  0  0  0  0  0  0
    7.7148   -1.1691   28.0749 H   0  0  0  0  0  0  0  0  0  0  0  0
    7.8513   -3.5580   24.3796 H   0  0  0  0  0  0  0  0  0  0  0  0
    6.9413    1.7707   19.8545 H   0  0  0  0  0  0  0  0  0  0  0  0
    9.2436   -2.2849   26.1413 H   0  0  0  0  0  0  0  0  0  0  0  0
  1  4  1  0  0  0  0
  1  8  2  0  0  0  0
  2  5  2  0  0  0  0
  2  8  1  0  0  0  0
  3  6  2  0  0  0  0
  3 16  1  0  0  0  0
  4  6  1  0  0  0  0
  4  7  2  0  0  0  0
  5  7  1  0  0  0  0
  5  9  1  0  0  0  0
  6 10  1  0  0  0  0
  7 16  1  0  0  0  0
  8 22  1  0  0  0  0
  9 11  2  3  0  0  0
 10 12  2  3  0  0  0
 11 18  1  0  0  0  0
 12 17  1  0  0  0  0
 13 14  1  0  0  0  0
 13 17  1  0  0  0  0
 13 19  2  0  0  0  0
 15 23  1  0  0  0  0
 18 23  1  0  0  0  0
 20 23  2  0  0  0  0
 21 23  2  0  0  0  0
  1 24  1  0  0  0  0
  2 25  1  0  0  0  0
  3 26  1  0  0  0  0
  9 27  1  0  0  0  0
 10 28  1  0  0  0  0
 11 29  1  0  0  0  0
 12 30  1  0  0  0  0
 14 31  1  0  0  0  0
 14 32  1  0  0  0  0
 14 33  1  0  0  0  0
 15 34  1  0  0  0  0
 15 35  1  0  0  0  0
 15 36  1  0  0  0  0
 16 37  1  0  0  0  0
 17 38  1  0  0  0  0
 18 39  1  0  0  0  0
M  END
> <Chemgauss4 Score>
-5.32099866867065

> <Number of Confs>
200

$$$$
CHR-SOS-6c4-11
  -OEChem-03242005443D

 38 40  0     0  0  0  0  0  0999 V2000
    9.3861   -0.3567   21.3006 C   0  0  0  0  0  0  0  0  0  0  0  0
   10.3138   -0.6880   21.9877 C   0  0  0  0  0  0  0  0  0  0  0  0
    6.0790    0.9682   20.2196 C   0  0  0  0  0  0  0  0  0  0  0  0
    7.1353    0.5916   21.0416 C   0  0  0  0  0  0  0  0  0  0  0  0
    8.7283   -6.4972   27.0205 C   0  0  0  0  0  0  0  0  0  0  0  0
    6.2181    0.7738   18.8548 C   0  0  0  0  0  0  0  0  0  0  0  0
    7.6770   -5.7334   27.5012 C   0  0  0  0  0  0  0  0  0  0  0  0
    8.3226   -0.1131   19.1051 C   0  0  0  0  0  0  0  0  0  0  0  0
    8.3276   -3.9036   26.2738 C   0  0  0  0  0  0  0  0  0  0  0  0
    8.2822    0.0400   20.4816 C   0  0  0  0  0  0  0  0  0  0  0  0
    9.6067   -5.9028   26.1213 C   0  0  0  0  0  0  0  0  0  0  0  0
    9.4096   -4.5815   25.7358 C   0  0  0  0  0  0  0  0  0  0  0  0
   10.1960   -2.6193   24.3531 C   0  0  0  0  0  0  0  0  0  0  0  0
   12.1842    0.0144   23.5234 C   0  0  0  0  0  0  0  0  0  0  0  0
   12.8077   -0.6746   22.3493 C   0  0  0  0  0  0  0  0  0  0  0  0
   11.4252   -1.0839   22.8101 C   0  0  0  0  0  0  0  0  0  0  0  0
   10.7493   -6.7029   25.5876 C   0  0  0  0  0  0  0  0  0  0  0  0
    7.3166    0.2409   18.2743 N   0  0  0  0  0  0  0  0  0  0  0  0
    7.4531   -4.4473   27.1498 N   0  0  0  0  0  0  0  0  0  0  0  0
   10.2748   -3.9329   24.8240 N   0  0  0  0  0  0  0  0  0  0  0  0
   11.2450   -2.3436   23.4538 N   0  0  0  0  0  0  0  0  0  0  0  0
    9.3474   -1.7831   24.6535 O   0  0  0  0  0  0  0  0  0  0  0  0
    5.1747    1.3996   20.6333 H   0  0  0  0  0  0  0  0  0  0  0  0
    7.0508    0.7343   22.1160 H   0  0  0  0  0  0  0  0  0  0  0  0
    8.8543   -7.5256   27.3416 H   0  0  0  0  0  0  0  0  0  0  0  0
    5.4230    1.0514   18.1711 H   0  0  0  0  0  0  0  0  0  0  0  0
    6.9640   -6.1503   28.2049 H   0  0  0  0  0  0  0  0  0  0  0  0
    9.1889   -0.5381   18.6058 H   0  0  0  0  0  0  0  0  0  0  0  0
    8.1208   -2.8703   26.0112 H   0  0  0  0  0  0  0  0  0  0  0  0
   12.5942   -0.1962   24.5046 H   0  0  0  0  0  0  0  0  0  0  0  0
   11.8680    1.0431   23.3928 H   0  0  0  0  0  0  0  0  0  0  0  0
   12.9100   -0.1085   21.4305 H   0  0  0  0  0  0  0  0  0  0  0  0
   13.6357   -1.3469   22.5436 H   0  0  0  0  0  0  0  0  0  0  0  0
   10.4528   -7.2228   24.6693 H   0  0  0  0  0  0  0  0  0  0  0  0
   11.6114   -6.0625   25.3641 H   0  0  0  0  0  0  0  0  0  0  0  0
   11.0864   -7.4486   26.3184 H   0  0  0  0  0  0  0  0  0  0  0  0
   11.0463   -4.4941   24.4719 H   0  0  0  0  0  0  0  0  0  0  0  0
   11.9161   -3.0901   23.2509 H   0  0  0  0  0  0  0  0  0  0  0  0
  1  2  3  0  0  0  0
  1 10  1  0  0  0  0
  2 16  1  0  0  0  0
  3  4  2  0  0  0  0
  3  6  1  0  0  0  0
  4 10  1  0  0  0  0
  5  7  2  0  0  0  0
  5 11  1  0  0  0  0
  6 18  2  0  0  0  0
  7 19  1  0  0  0  0
  8 10  2  0  0  0  0
  8 18  1  0  0  0  0
  9 12  1  0  0  0  0
  9 19  2  0  0  0  0
 11 12  2  0  0  0  0
 11 17  1  0  0  0  0
 12 20  1  0  0  0  0
 13 20  1  0  0  0  0
 13 21  1  0  0  0  0
 13 22  2  0  0  0  0
 14 15  1  0  0  0  0
 14 16  1  0  0  0  0
 15 16  1  0  0  0  0
 16 21  1  0  0  0  0
  3 23  1  0  0  0  0
  4 24  1  0  0  0  0
  5 25  1  0  0  0  0
  6 26  1  0  0  0  0
  7 27  1  0  0  0  0
  8 28  1  0  0  0  0
  9 29  1  0  0  0  0
 14 30  1  0  0  0  0
 14 31  1  0  0  0  0
 15 32  1  0  0  0  0
 15 33  1  0  0  0  0
 17 34  1  0  0  0  0
 17 35  1  0  0  0  0
 17 36  1  0  0  0  0
 20 37  1  0  0  0  0
 21 38  1  0  0  0  0
M  END
> <Chemgauss4 Score>
-5.31563520431519

> <Number of Confs>
4

$$$$
KIM-UNI-60f-5
  -OEChem-03242005443D

 37 38  0     0  0  0  0  0  0999 V2000
   12.9426   -0.2669   24.0446 C   0  0  0  0  0  0  0  0  0  0  0  0
   13.3714   -0.4757   22.7437 C   0  0  0  0  0  0  0  0  0  0  0  0
   11.4960   -1.6978   22.2267 C   0  0  0  0  0  0  0  0  0  0  0  0
   11.7227   -0.8158   24.4238 C   0  0  0  0  0  0  0  0  0  0  0  0
   10.9794   -1.5464   23.5034 C   0  0  0  0  0  0  0  0  0  0  0  0
    8.5604   -1.7314   23.1160 C   0  0  0  0  0  0  0  0  0  0  0  0
    9.6809   -3.1141   24.8978 C   0  0  0  0  0  0  0  0  0  0  0  0
    9.3695   -6.2545   25.3021 C   0  0  0  0  0  0  0  0  0  0  0  0
    7.3373   -2.5662   23.3879 C   0  0  0  0  0  0  0  0  0  0  0  0
    7.2131   -2.7661   24.8765 C   0  0  0  0  0  0  0  0  0  0  0  0
   11.2364   -0.6068   25.8204 C   0  0  0  0  0  0  0  0  0  0  0  0
    8.1130   -5.8084   26.0272 C   0  0  0  0  0  0  0  0  0  0  0  0
    8.2218   -4.3605   26.4864 C   0  0  0  0  0  0  0  0  0  0  0  0
   12.6771   -1.1795   21.8217 N   0  0  0  0  0  0  0  0  0  0  0  0
    9.4029   -6.1329   24.0106 N   0  0  0  0  0  0  0  0  0  0  0  0
    9.7028   -2.1380   23.8489 N   0  0  0  0  0  0  0  0  0  0  0  0
    8.3990   -3.4390   25.3734 N   0  0  0  0  0  0  0  0  0  0  0  0
   10.3988   -6.7466   26.0609 N   0  0  0  0  0  0  0  0  0  0  0  0
    8.4937   -0.7912   22.3239 O   0  0  0  0  0  0  0  0  0  0  0  0
   10.6947   -3.6740   25.3282 O   0  0  0  0  0  0  0  0  0  0  0  0
   13.5466    0.3079   24.7384 H   0  0  0  0  0  0  0  0  0  0  0  0
   14.3161   -0.0687   22.3983 H   0  0  0  0  0  0  0  0  0  0  0  0
   10.9623   -2.2569   21.4638 H   0  0  0  0  0  0  0  0  0  0  0  0
    6.4582   -2.0648   22.9687 H   0  0  0  0  0  0  0  0  0  0  0  0
    7.4510   -3.5345   22.8895 H   0  0  0  0  0  0  0  0  0  0  0  0
    7.1070   -1.7968   25.3754 H   0  0  0  0  0  0  0  0  0  0  0  0
    6.3468   -3.3875   25.1308 H   0  0  0  0  0  0  0  0  0  0  0  0
   10.6337    0.3068   25.8800 H   0  0  0  0  0  0  0  0  0  0  0  0
   10.6241   -1.4522   26.1576 H   0  0  0  0  0  0  0  0  0  0  0  0
   12.0746   -0.5193   26.5229 H   0  0  0  0  0  0  0  0  0  0  0  0
    7.2485   -5.9430   25.3664 H   0  0  0  0  0  0  0  0  0  0  0  0
    7.9700   -6.4592   26.8976 H   0  0  0  0  0  0  0  0  0  0  0  0
    7.3068   -4.0598   27.0060 H   0  0  0  0  0  0  0  0  0  0  0  0
    9.0679   -4.2186   27.1660 H   0  0  0  0  0  0  0  0  0  0  0  0
    8.5139   -5.7302   23.6945 H   0  0  0  0  0  0  0  0  0  0  0  0
   10.3217   -6.8125   27.0701 H   0  0  0  0  0  0  0  0  0  0  0  0
   11.2665   -7.0655   25.6430 H   0  0  0  0  0  0  0  0  0  0  0  0
  1  2  2  0  0  0  0
  1  4  1  0  0  0  0
  2 14  1  0  0  0  0
  3  5  1  0  0  0  0
  3 14  2  0  0  0  0
  4  5  2  0  0  0  0
  4 11  1  0  0  0  0
  5 16  1  0  0  0  0
  6  9  1  0  0  0  0
  6 16  1  0  0  0  0
  6 19  2  0  0  0  0
  7 16  1  0  0  0  0
  7 17  1  0  0  0  0
  7 20  2  0  0  0  0
  8 12  1  0  0  0  0
  8 15  2  0  0  0  0
  8 18  1  0  0  0  0
  9 10  1  0  0  0  0
 10 17  1  0  0  0  0
 12 13  1  0  0  0  0
 13 17  1  0  0  0  0
  1 21  1  0  0  0  0
  2 22  1  0  0  0  0
  3 23  1  0  0  0  0
  9 24  1  0  0  0  0
  9 25  1  0  0  0  0
 10 26  1  0  0  0  0
 10 27  1  0  0  0  0
 11 28  1  0  0  0  0
 11 29  1  0  0  0  0
 11 30  1  0  0  0  0
 12 31  1  0  0  0  0
 12 32  1  0  0  0  0
 13 33  1  0  0  0  0
 13 34  1  0  0  0  0
 15 35  1  0  0  0  0
 18 36  1  0  0  0  0
 18 37  1  0  0  0  0
M  END
> <Chemgauss4 Score>
-5.30615615844727

> <Number of Confs>
55

$$$$
SAM-UNK-83e-2
  -OEChem-03242005443D

 41 42  0     0  0  0  0  0  0999 V2000
   10.3877   -0.5655   25.7701 C   0  0  0  0  0  0  0  0  0  0  0  0
   10.1253   -2.7806   26.7302 C   0  0  0  0  0  0  0  0  0  0  0  0
   11.8571   -1.6833   22.6154 C   0  0  0  0  0  0  0  0  0  0  0  0
   10.9401   -1.1431   24.6097 C   0  0  0  0  0  0  0  0  0  0  0  0
   11.4415   -0.6209   23.3846 C   0  0  0  0  0  0  0  0  0  0  0  0
   10.6704   -3.3761   25.5891 C   0  0  0  0  0  0  0  0  0  0  0  0
   11.0684   -2.5323   24.5461 C   0  0  0  0  0  0  0  0  0  0  0  0
    9.9852   -1.3971   26.8214 C   0  0  0  0  0  0  0  0  0  0  0  0
   11.5197    0.7314   22.9850 C   0  0  0  0  0  0  0  0  0  0  0  0
   10.4670    1.5752   22.8990 C   0  0  0  0  0  0  0  0  0  0  0  0
    8.1402    2.2369   23.0543 C   0  0  0  0  0  0  0  0  0  0  0  0
    6.7998    1.6757   23.4513 C   0  0  0  0  0  0  0  0  0  0  0  0
    7.4773   -3.5732   22.4047 C   0  0  0  0  0  0  0  0  0  0  0  0
   10.8055   -4.8609   25.5253 C   0  0  0  0  0  0  0  0  0  0  0  0
    9.4815   -5.5850   25.2540 C   0  0  0  0  0  0  0  0  0  0  0  0
   11.6278   -2.8319   23.3243 N   0  0  0  0  0  0  0  0  0  0  0  0
    9.1622    1.3045   23.1703 N   0  0  0  0  0  0  0  0  0  0  0  0
    8.8996   -5.2069   23.9940 N   0  0  0  0  0  0  0  0  0  0  0  0
    8.2669    3.4068   22.6998 O   0  0  0  0  0  0  0  0  0  0  0  0
    7.2604   -3.4770   25.0113 O   0  0  0  0  0  0  0  0  0  0  0  0
    6.3234   -5.4668   23.7788 O   0  0  0  0  0  0  0  0  0  0  0  0
    9.4590   -0.8553   27.9284 F   0  0  0  0  0  0  0  0  0  0  0  0
    7.3485   -4.4542   23.9440 S   0  0  0  0  0  0  0  0  0  0  0  0
   10.2715    0.5109   25.8586 H   0  0  0  0  0  0  0  0  0  0  0  0
    9.8032   -3.3993   27.5647 H   0  0  0  0  0  0  0  0  0  0  0  0
   12.2953   -1.7310   21.6277 H   0  0  0  0  0  0  0  0  0  0  0  0
   12.5060    1.1547   22.7523 H   0  0  0  0  0  0  0  0  0  0  0  0
   10.5812    2.6025   22.5733 H   0  0  0  0  0  0  0  0  0  0  0  0
    6.6383    1.8393   24.5205 H   0  0  0  0  0  0  0  0  0  0  0  0
    6.7826    0.6029   23.2411 H   0  0  0  0  0  0  0  0  0  0  0  0
    5.9905    2.1651   22.9019 H   0  0  0  0  0  0  0  0  0  0  0  0
    6.5429   -3.0354   22.2365 H   0  0  0  0  0  0  0  0  0  0  0  0
    8.3127   -2.8752   22.4764 H   0  0  0  0  0  0  0  0  0  0  0  0
    7.6509   -4.2971   21.6072 H   0  0  0  0  0  0  0  0  0  0  0  0
   11.2184   -5.2308   26.4786 H   0  0  0  0  0  0  0  0  0  0  0  0
   11.5441   -5.1504   24.7585 H   0  0  0  0  0  0  0  0  0  0  0  0
    9.6374   -6.6678   25.2174 H   0  0  0  0  0  0  0  0  0  0  0  0
    8.7443   -5.3725   26.0352 H   0  0  0  0  0  0  0  0  0  0  0  0
   11.8390   -3.7646   22.9976 H   0  0  0  0  0  0  0  0  0  0  0  0
    8.9209    0.3637   23.4760 H   0  0  0  0  0  0  0  0  0  0  0  0
    9.0979   -5.8461   23.1937 H   0  0  0  0  0  0  0  0  0  0  0  0
  1  4  1  0  0  0  0
  1  8  2  0  0  0  0
  2  6  2  0  0  0  0
  2  8  1  0  0  0  0
  3  5  2  0  0  0  0
  3 16  1  0  0  0  0
  4  5  1  0  0  0  0
  4  7  2  0  0  0  0
  5  9  1  0  0  0  0
  6  7  1  0  0  0  0
  6 14  1  0  0  0  0
  7 16  1  0  0  0  0
  8 22  1  0  0  0  0
  9 10  2  3  0  0  0
 10 17  1  0  0  0  0
 11 12  1  0  0  0  0
 11 17  1  0  0  0  0
 11 19  2  0  0  0  0
 13 23  1  0  0  0  0
 14 15  1  0  0  0  0
 15 18  1  0  0  0  0
 18 23  1  0  0  0  0
 20 23  2  0  0  0  0
 21 23  2  0  0  0  0
  1 24  1  0  0  0  0
  2 25  1  0  0  0  0
  3 26  1  0  0  0  0
  9 27  1  0  0  0  0
 10 28  1  0  0  0  0
 12 29  1  0  0  0  0
 12 30  1  0  0  0  0
 12 31  1  0  0  0  0
 13 32  1  0  0  0  0
 13 33  1  0  0  0  0
 13 34  1  0  0  0  0
 14 35  1  0  0  0  0
 14 36  1  0  0  0  0
 15 37  1  0  0  0  0
 15 38  1  0  0  0  0
 16 39  1  0  0  0  0
 17 40  1  0  0  0  0
 18 41  1  0  0  0  0
M  END
> <Chemgauss4 Score>
-5.30527400970459

> <Number of Confs>
200

$$$$
TRI-UNI-974-1
  -OEChem-03242005443D

 50 52  0     0  0  0  0  0  0999 V2000
   12.7303   -0.4051   22.1003 C   0  0  0  0  0  0  0  0  0  0  0  0
   12.1945   -1.6678   21.8473 C   0  0  0  0  0  0  0  0  0  0  0  0
   12.5636    0.1850   23.3532 C   0  0  0  0  0  0  0  0  0  0  0  0
    7.1628   -4.5958   21.9468 C   0  0  0  0  0  0  0  0  0  0  0  0
    6.7866   -5.6904   21.1763 C   0  0  0  0  0  0  0  0  0  0  0  0
   11.4920   -2.3405   22.8471 C   0  0  0  0  0  0  0  0  0  0  0  0
   11.8611   -0.4876   24.3530 C   0  0  0  0  0  0  0  0  0  0  0  0
    6.3919   -4.2266   23.0434 C   0  0  0  0  0  0  0  0  0  0  0  0
    5.6399   -6.3771   21.5416 C   0  0  0  0  0  0  0  0  0  0  0  0
   11.3253   -1.7504   24.1000 C   0  0  0  0  0  0  0  0  0  0  0  0
    5.2628   -4.9787   23.3250 C   0  0  0  0  0  0  0  0  0  0  0  0
    5.8329   -4.1523   26.4977 C   0  0  0  0  0  0  0  0  0  0  0  0
   10.6273   -3.8906   25.1367 C   0  0  0  0  0  0  0  0  0  0  0  0
    9.4215   -1.7822   25.6555 C   0  0  0  0  0  0  0  0  0  0  0  0
   10.2571   -4.3979   26.5327 C   0  0  0  0  0  0  0  0  0  0  0  0
    9.0914   -2.3571   27.0349 C   0  0  0  0  0  0  0  0  0  0  0  0
    4.4067   -4.6086   24.5015 C   0  0  0  0  0  0  0  0  0  0  0  0
    8.6160   -4.3538   28.2947 C   0  0  0  0  0  0  0  0  0  0  0  0
    7.1476   -4.1271   28.6130 C   0  0  0  0  0  0  0  0  0  0  0  0
    4.8656   -6.0484   22.5998 N   0  0  0  0  0  0  0  0  0  0  0  0
   10.6207   -2.4249   25.1033 N   0  0  0  0  0  0  0  0  0  0  0  0
    8.9852   -3.8205   26.9840 N   0  0  0  0  0  0  0  0  0  0  0  0
    5.0126   -4.9967   25.7543 N   0  0  0  0  0  0  0  0  0  0  0  0
    6.2843   -4.7746   27.6628 N   0  0  0  0  0  0  0  0  0  0  0  0
    6.1250   -3.0022   26.1728 O   0  0  0  0  0  0  0  0  0  0  0  0
   13.2771    0.1187   21.3215 H   0  0  0  0  0  0  0  0  0  0  0  0
   12.3243   -2.1270   20.8719 H   0  0  0  0  0  0  0  0  0  0  0  0
   12.9809    1.1685   23.5500 H   0  0  0  0  0  0  0  0  0  0  0  0
    8.0552   -4.0317   21.6930 H   0  0  0  0  0  0  0  0  0  0  0  0
    7.3724   -5.9963   20.3172 H   0  0  0  0  0  0  0  0  0  0  0  0
   11.0784   -3.3240   22.6398 H   0  0  0  0  0  0  0  0  0  0  0  0
   11.7377   -0.0179   25.3256 H   0  0  0  0  0  0  0  0  0  0  0  0
    6.6745   -3.3747   23.6525 H   0  0  0  0  0  0  0  0  0  0  0  0
    5.3036   -7.2381   20.9734 H   0  0  0  0  0  0  0  0  0  0  0  0
   11.6224   -4.2710   24.8743 H   0  0  0  0  0  0  0  0  0  0  0  0
    9.9162   -4.2826   24.3974 H   0  0  0  0  0  0  0  0  0  0  0  0
    8.5728   -1.9337   24.9751 H   0  0  0  0  0  0  0  0  0  0  0  0
    9.5820   -0.7012   25.7512 H   0  0  0  0  0  0  0  0  0  0  0  0
   10.1724   -5.4906   26.4850 H   0  0  0  0  0  0  0  0  0  0  0  0
   11.0682   -4.1672   27.2368 H   0  0  0  0  0  0  0  0  0  0  0  0
    9.8537   -2.0404   27.7596 H   0  0  0  0  0  0  0  0  0  0  0  0
    8.1367   -1.9272   27.3621 H   0  0  0  0  0  0  0  0  0  0  0  0
    4.2364   -3.5268   24.5300 H   0  0  0  0  0  0  0  0  0  0  0  0
    3.4254   -5.0908   24.4407 H   0  0  0  0  0  0  0  0  0  0  0  0
    8.8650   -5.4198   28.2961 H   0  0  0  0  0  0  0  0  0  0  0  0
    9.2436   -3.8485   29.0354 H   0  0  0  0  0  0  0  0  0  0  0  0
    6.9059   -4.5373   29.5984 H   0  0  0  0  0  0  0  0  0  0  0  0
    6.8990   -3.0609   28.6104 H   0  0  0  0  0  0  0  0  0  0  0  0
    4.8314   -5.9302   26.1098 H   0  0  0  0  0  0  0  0  0  0  0  0
    5.9500   -5.7140   27.8684 H   0  0  0  0  0  0  0  0  0  0  0  0
  1  2  1  0  0  0  0
  1  3  2  0  0  0  0
  2  6  2  0  0  0  0
  3  7  1  0  0  0  0
  4  5  1  0  0  0  0
  4  8  2  0  0  0  0
  5  9  2  0  0  0  0
  6 10  1  0  0  0  0
  7 10  2  0  0  0  0
  8 11  1  0  0  0  0
  9 20  1  0  0  0  0
 10 21  1  0  0  0  0
 11 17  1  0  0  0  0
 11 20  2  0  0  0  0
 12 23  1  0  0  0  0
 12 24  1  0  0  0  0
 12 25  2  0  0  0  0
 13 15  1  0  0  0  0
 13 21  1  0  0  0  0
 14 16  1  0  0  0  0
 14 21  1  0  0  0  0
 15 22  1  0  0  0  0
 16 22  1  0  0  0  0
 17 23  1  0  0  0  0
 18 19  1  0  0  0  0
 18 22  1  0  0  0  0
 19 24  1  0  0  0  0
  1 26  1  0  0  0  0
  2 27  1  0  0  0  0
  3 28  1  0  0  0  0
  4 29  1  0  0  0  0
  5 30  1  0  0  0  0
  6 31  1  0  0  0  0
  7 32  1  0  0  0  0
  8 33  1  0  0  0  0
  9 34  1  0  0  0  0
 13 35  1  0  0  0  0
 13 36  1  0  0  0  0
 14 37  1  0  0  0  0
 14 38  1  0  0  0  0
 15 39  1  0  0  0  0
 15 40  1  0  0  0  0
 16 41  1  0  0  0  0
 16 42  1  0  0  0  0
 17 43  1  0  0  0  0
 17 44  1  0  0  0  0
 18 45  1  0  0  0  0
 18 46  1  0  0  0  0
 19 47  1  0  0  0  0
 19 48  1  0  0  0  0
 23 49  1  0  0  0  0
 24 50  1  0  0  0  0
M  END
> <Chemgauss4 Score>
-5.29884004592896

> <Number of Confs>
200

$$$$
DUN-NEW-f8c-3
  -OEChem-03242005443D

 47 49  0     1  0  0  0  0  0999 V2000
    5.7159   -4.0696   22.7328 C   0  0  0  0  0  0  0  0  0  0  0  0
    5.2547   -4.7152   23.8800 C   0  0  0  0  0  0  0  0  0  0  0  0
    6.9235   -3.3722   22.7627 C   0  0  0  0  0  0  0  0  0  0  0  0
    6.0012   -4.6633   25.0572 C   0  0  0  0  0  0  0  0  0  0  0  0
    7.6700   -3.3203   23.9398 C   0  0  0  0  0  0  0  0  0  0  0  0
    7.2088   -3.9659   25.0871 C   0  0  0  0  0  0  0  0  0  0  0  0
    9.4653   -5.8100   26.1012 C   0  0  0  0  0  0  0  0  0  0  0  0
   11.9786    0.0938   23.7000 C   0  0  0  0  0  0  0  0  0  0  0  0
    8.6496   -3.0526   28.3213 C   0  0  0  0  0  0  0  0  0  0  0  0
    9.6331   -4.1315   27.9000 C   0  0  0  0  0  0  0  0  0  0  0  0
    7.4029   -3.3641   27.5026 C   0  0  0  0  0  0  0  0  0  0  0  0
    9.0050   -1.4874   24.8864 C   0  0  0  0  0  0  0  0  0  0  0  0
    9.6707   -2.5170   22.7147 C   0  0  0  0  0  0  0  0  0  0  0  0
   10.4766   -1.2036   25.1789 C   0  0  0  0  0  0  0  0  0  0  0  0
   11.1323   -2.2124   23.0426 C   0  0  0  0  0  0  0  0  0  0  0  0
    9.3253   -4.3548   26.4160 C   0  0  2  0  0  0  0  0  0  0  0  0
   12.1357    0.5099   22.2594 C   0  0  0  0  0  0  0  0  0  0  0  0
    8.8782   -2.6141   23.9481 N   0  0  0  0  0  0  0  0  0  0  0  0
    7.9323   -3.9271   26.2629 N   0  0  3  0  0  0  0  0  0  0  0  0
   11.2319   -1.0577   23.9373 N   0  0  0  0  0  0  0  0  0  0  0  0
   10.7364   -6.1766   25.7270 N   0  0  0  0  0  0  0  0  0  0  0  0
    8.5214   -6.5912   26.1920 O   0  0  0  0  0  0  0  0  0  0  0  0
   12.5027    0.7737   24.5859 O   0  0  0  0  0  0  0  0  0  0  0  0
   13.6082   -0.2546   21.6733 Cl  0  0  0  0  0  0  0  0  0  0  0  0
    5.1349   -4.1105   21.8161 H   0  0  0  0  0  0  0  0  0  0  0  0
    4.3149   -5.2589   23.8564 H   0  0  0  0  0  0  0  0  0  0  0  0
    7.2725   -2.8728   21.8623 H   0  0  0  0  0  0  0  0  0  0  0  0
    5.6319   -5.1709   25.9448 H   0  0  0  0  0  0  0  0  0  0  0  0
    8.4278   -3.1373   29.3918 H   0  0  0  0  0  0  0  0  0  0  0  0
    9.0320   -2.0454   28.1308 H   0  0  0  0  0  0  0  0  0  0  0  0
   10.6598   -3.7611   28.0146 H   0  0  0  0  0  0  0  0  0  0  0  0
    9.5229   -5.0369   28.5066 H   0  0  0  0  0  0  0  0  0  0  0  0
    6.7404   -4.0715   28.0142 H   0  0  0  0  0  0  0  0  0  0  0  0
    6.8432   -2.4411   27.3017 H   0  0  0  0  0  0  0  0  0  0  0  0
    8.4762   -1.7203   25.8166 H   0  0  0  0  0  0  0  0  0  0  0  0
    8.5458   -0.5934   24.4537 H   0  0  0  0  0  0  0  0  0  0  0  0
    9.2507   -1.7280   22.0823 H   0  0  0  0  0  0  0  0  0  0  0  0
    9.6223   -3.4517   22.1453 H   0  0  0  0  0  0  0  0  0  0  0  0
   10.5817   -0.2744   25.7369 H   0  0  0  0  0  0  0  0  0  0  0  0
   10.8903   -2.0125   25.7739 H   0  0  0  0  0  0  0  0  0  0  0  0
   11.6009   -3.0589   23.5468 H   0  0  0  0  0  0  0  0  0  0  0  0
   11.6870   -2.0202   22.1248 H   0  0  0  0  0  0  0  0  0  0  0  0
   10.0383   -3.7965   25.7941 H   0  0  0  0  0  0  0  0  0  0  0  0
   12.2323    1.5883   22.2149 H   0  0  0  0  0  0  0  0  0  0  0  0
   11.2809    0.1536   21.6968 H   0  0  0  0  0  0  0  0  0  0  0  0
   11.4584   -5.4645   25.6925 H   0  0  0  0  0  0  0  0  0  0  0  0
   10.9816   -7.1310   25.4840 H   0  0  0  0  0  0  0  0  0  0  0  0
  1  2  1  0  0  0  0
  1  3  2  0  0  0  0
  2  4  2  0  0  0  0
  3  5  1  0  0  0  0
  4  6  1  0  0  0  0
  5  6  2  0  0  0  0
  5 18  1  0  0  0  0
  6 19  1  1  0  0  0
  7 16  1  1  0  0  0
  7 21  1  0  0  0  0
  7 22  2  0  0  0  0
  8 17  1  0  0  0  0
  8 20  1  0  0  0  0
  8 23  2  0  0  0  0
  9 10  1  0  0  0  0
  9 11  1  0  0  0  0
 10 16  1  0  0  0  0
 11 19  1  0  0  0  0
 12 14  1  0  0  0  0
 12 18  1  0  0  0  0
 13 15  1  0  0  0  0
 13 18  1  0  0  0  0
 14 20  1  0  0  0  0
 15 20  1  0  0  0  0
 16 19  1  0  0  0  0
 17 24  1  0  0  0  0
  1 25  1  0  0  0  0
  2 26  1  0  0  0  0
  3 27  1  0  0  0  0
  4 28  1  0  0  0  0
  9 29  1  0  0  0  0
  9 30  1  0  0  0  0
 10 31  1  0  0  0  0
 10 32  1  0  0  0  0
 11 33  1  0  0  0  0
 11 34  1  0  0  0  0
 12 35  1  0  0  0  0
 12 36  1  0  0  0  0
 13 37  1  0  0  0  0
 13 38  1  0  0  0  0
 14 39  1  0  0  0  0
 14 40  1  0  0  0  0
 15 41  1  0  0  0  0
 15 42  1  0  0  0  0
 16 43  1  0  0  0  0
 17 44  1  0  0  0  0
 17 45  1  0  0  0  0
 21 46  1  0  0  0  0
 21 47  1  0  0  0  0
M  END
> <Chemgauss4 Score>
-5.2954568862915

> <Number of Confs>
136

$$$$
DUN-NEW-d83-1
  -OEChem-03242005443D

 40 42  0     1  0  0  0  0  0999 V2000
    5.0129   -6.6262   22.7582 C   0  0  0  0  0  0  0  0  0  0  0  0
    4.6799   -6.2586   24.0619 C   0  0  0  0  0  0  0  0  0  0  0  0
    6.2537   -6.2715   22.2289 C   0  0  0  0  0  0  0  0  0  0  0  0
   12.6243   -0.7919   22.0594 C   0  0  0  0  0  0  0  0  0  0  0  0
    5.5877   -5.5362   24.8362 C   0  0  0  0  0  0  0  0  0  0  0  0
    7.1615   -5.5490   23.0032 C   0  0  0  0  0  0  0  0  0  0  0  0
   11.3448   -1.3249   22.1687 C   0  0  0  0  0  0  0  0  0  0  0  0
   13.1836   -0.2117   23.1865 C   0  0  0  0  0  0  0  0  0  0  0  0
   11.3198   -0.6612   24.4524 C   0  0  0  0  0  0  0  0  0  0  0  0
    6.8285   -5.1813   24.3069 C   0  0  0  0  0  0  0  0  0  0  0  0
   10.6731   -1.2623   23.3846 C   0  0  0  0  0  0  0  0  0  0  0  0
    9.8023   -5.8664   25.5548 C   0  0  0  0  0  0  0  0  0  0  0  0
    7.6817   -2.8693   25.0221 C   0  0  0  0  0  0  0  0  0  0  0  0
    9.9693   -3.3991   25.2508 C   0  0  0  0  0  0  0  0  0  0  0  0
    7.8133   -4.3977   25.1460 C   0  0  2  0  0  0  0  0  0  0  0  0
    9.2786   -4.6798   24.8079 C   0  0  2  0  0  0  0  0  0  0  0  0
    9.2910   -1.8292   23.5348 C   0  0  0  0  0  0  0  0  0  0  0  0
   12.5621   -0.1323   24.3844 N   0  0  0  0  0  0  0  0  0  0  0  0
    9.0436   -2.3157   24.8916 N   0  0  1  0  0  0  0  0  0  0  0  0
   11.1489   -6.0817   25.3796 N   0  0  0  0  0  0  0  0  0  0  0  0
    9.0806   -6.5601   26.2669 O   0  0  0  0  0  0  0  0  0  0  0  0
    4.3064   -7.1899   22.1559 H   0  0  0  0  0  0  0  0  0  0  0  0
    3.7142   -6.5357   24.4746 H   0  0  0  0  0  0  0  0  0  0  0  0
    6.5137   -6.5585   21.2143 H   0  0  0  0  0  0  0  0  0  0  0  0
   13.1668   -0.8297   21.1217 H   0  0  0  0  0  0  0  0  0  0  0  0
    5.3196   -5.2539   25.8510 H   0  0  0  0  0  0  0  0  0  0  0  0
    8.1259   -5.2769   22.5824 H   0  0  0  0  0  0  0  0  0  0  0  0
   10.8794   -1.7868   21.3022 H   0  0  0  0  0  0  0  0  0  0  0  0
   14.1792    0.2186   23.1529 H   0  0  0  0  0  0  0  0  0  0  0  0
   10.8456   -0.5831   25.4258 H   0  0  0  0  0  0  0  0  0  0  0  0
    7.0535   -2.5911   24.1390 H   0  0  0  0  0  0  0  0  0  0  0  0
    7.1575   -2.4410   25.9091 H   0  0  0  0  0  0  0  0  0  0  0  0
   10.1996   -3.3781   26.3275 H   0  0  0  0  0  0  0  0  0  0  0  0
   10.9227   -3.2933   24.7057 H   0  0  0  0  0  0  0  0  0  0  0  0
    7.6093   -4.6855   26.2142 H   0  0  0  0  0  0  0  0  0  0  0  0
    9.4448   -4.8486   23.7406 H   0  0  0  0  0  0  0  0  0  0  0  0
    8.5353   -1.0700   23.3057 H   0  0  0  0  0  0  0  0  0  0  0  0
    9.1320   -2.6649   22.8453 H   0  0  0  0  0  0  0  0  0  0  0  0
   11.6697   -5.4482   24.7821 H   0  0  0  0  0  0  0  0  0  0  0  0
   11.6429   -6.8489   25.8239 H   0  0  0  0  0  0  0  0  0  0  0  0
  1  2  1  0  0  0  0
  1  3  2  0  0  0  0
  2  5  2  0  0  0  0
  3  6  1  0  0  0  0
  4  7  2  0  0  0  0
  4  8  1  0  0  0  0
  5 10  1  0  0  0  0
  6 10  2  0  0  0  0
  7 11  1  0  0  0  0
  8 18  2  0  0  0  0
  9 11  2  0  0  0  0
  9 18  1  0  0  0  0
 10 15  1  0  0  0  0
 11 17  1  0  0  0  0
 12 16  1  0  0  0  0
 12 20  1  0  0  0  0
 12 21  2  0  0  0  0
 13 15  1  0  0  0  0
 13 19  1  0  0  0  0
 14 16  1  0  0  0  0
 14 19  1  0  0  0  0
 15 16  1  0  0  0  0
 17 19  1  1  0  0  0
  1 22  1  0  0  0  0
  2 23  1  0  0  0  0
  3 24  1  0  0  0  0
  4 25  1  0  0  0  0
  5 26  1  0  0  0  0
  6 27  1  0  0  0  0
  7 28  1  0  0  0  0
  8 29  1  0  0  0  0
  9 30  1  0  0  0  0
 13 31  1  0  0  0  0
 13 32  1  0  0  0  0
 14 33  1  0  0  0  0
 14 34  1  0  0  0  0
 15 35  1  6  0  0  0
 16 36  1  6  0  0  0
 17 37  1  0  0  0  0
 17 38  1  0  0  0  0
 20 39  1  0  0  0  0
 20 40  1  0  0  0  0
M  END
> <Chemgauss4 Score>
-5.29299116134644

> <Number of Confs>
103

$$$$
DAN-LON-a5f-3
  -OEChem-03242005443D

 35 37  0     1  0  0  0  0  0999 V2000
   12.4698   -1.2419   22.3089 C   0  0  0  0  0  0  0  0  0  0  0  0
   11.4158   -2.1504   22.4055 C   0  0  0  0  0  0  0  0  0  0  0  0
   12.6957   -0.3240   23.3346 C   0  0  0  0  0  0  0  0  0  0  0  0
   10.8135   -1.2231   24.5537 C   0  0  0  0  0  0  0  0  0  0  0  0
   10.5876   -2.1410   23.5279 C   0  0  0  0  0  0  0  0  0  0  0  0
   11.8676   -0.3146   24.4570 C   0  0  0  0  0  0  0  0  0  0  0  0
    8.1233   -5.2433   28.4287 C   0  0  0  0  0  0  0  0  0  0  0  0
   10.0402   -5.6372   25.4039 C   0  0  0  0  0  0  0  0  0  0  0  0
   10.0349   -4.0850   27.1927 C   0  0  0  0  0  0  0  0  0  0  0  0
    8.0379   -4.4454   25.1150 C   0  0  0  0  0  0  0  0  0  0  0  0
   10.3091   -4.1569   25.6761 C   0  0  2  0  0  0  0  0  0  0  0  0
    8.6346   -5.5605   25.9855 C   0  0  2  0  0  0  0  0  0  0  0  0
    9.4526   -3.1183   23.6307 C   0  0  0  0  0  0  0  0  0  0  0  0
    7.0081   -6.2369   28.2288 C   0  0  0  0  0  0  0  0  0  0  0  0
    8.8897   -4.9894   27.3125 N   0  0  0  0  0  0  0  0  0  0  0  0
    9.1640   -3.4759   25.0148 N   0  0  1  0  0  0  0  0  0  0  0  0
    8.3071   -4.7189   29.5277 O   0  0  0  0  0  0  0  0  0  0  0  0
   12.1461    0.8188   25.7217 Cl  0  0  0  0  0  0  0  0  0  0  0  0
    5.5839   -5.3110   27.7675 Cl  0  0  0  0  0  0  0  0  0  0  0  0
   13.1143   -1.2495   21.4346 H   0  0  0  0  0  0  0  0  0  0  0  0
   11.2471   -2.8619   21.6014 H   0  0  0  0  0  0  0  0  0  0  0  0
   13.5208    0.3784   23.2456 H   0  0  0  0  0  0  0  0  0  0  0  0
   10.1653   -1.2201   25.4270 H   0  0  0  0  0  0  0  0  0  0  0  0
   10.0622   -5.9084   24.3434 H   0  0  0  0  0  0  0  0  0  0  0  0
   10.7003   -6.3087   25.9640 H   0  0  0  0  0  0  0  0  0  0  0  0
   10.8633   -4.4924   27.7816 H   0  0  0  0  0  0  0  0  0  0  0  0
    9.7810   -3.0835   27.5534 H   0  0  0  0  0  0  0  0  0  0  0  0
    7.7462   -4.8481   24.1371 H   0  0  0  0  0  0  0  0  0  0  0  0
    7.1613   -3.9783   25.5756 H   0  0  0  0  0  0  0  0  0  0  0  0
   11.2971   -3.7822   25.3974 H   0  0  0  0  0  0  0  0  0  0  0  0
    8.0579   -6.4868   26.0126 H   0  0  0  0  0  0  0  0  0  0  0  0
    8.5403   -2.6979   23.1937 H   0  0  0  0  0  0  0  0  0  0  0  0
    9.6783   -4.0414   23.0865 H   0  0  0  0  0  0  0  0  0  0  0  0
    6.8272   -6.7562   29.1633 H   0  0  0  0  0  0  0  0  0  0  0  0
    7.2826   -6.9189   27.4318 H   0  0  0  0  0  0  0  0  0  0  0  0
  1  2  2  0  0  0  0
  1  3  1  0  0  0  0
  2  5  1  0  0  0  0
  3  6  2  0  0  0  0
  4  5  2  0  0  0  0
  4  6  1  0  0  0  0
  5 13  1  0  0  0  0
  6 18  1  0  0  0  0
  7 14  1  0  0  0  0
  7 15  1  0  0  0  0
  7 17  2  0  0  0  0
  8 11  1  0  0  0  0
  8 12  1  0  0  0  0
  9 11  1  0  0  0  0
  9 15  1  0  0  0  0
 10 12  1  0  0  0  0
 10 16  1  0  0  0  0
 11 16  1  0  0  0  0
 12 15  1  0  0  0  0
 13 16  1  6  0  0  0
 14 19  1  0  0  0  0
  1 20  1  0  0  0  0
  2 21  1  0  0  0  0
  3 22  1  0  0  0  0
  4 23  1  0  0  0  0
  8 24  1  0  0  0  0
  8 25  1  0  0  0  0
  9 26  1  0  0  0  0
  9 27  1  0  0  0  0
 10 28  1  0  0  0  0
 10 29  1  0  0  0  0
 11 30  1  0  0  0  0
 12 31  1  0  0  0  0
 13 32  1  0  0  0  0
 13 33  1  0  0  0  0
 14 34  1  0  0  0  0
 14 35  1  0  0  0  0
M  END
> <Chemgauss4 Score>
-5.2915735244751

> <Number of Confs>
78

$$$$
ANT-DIA-3c7-2
  -OEChem-03242005443D

 29 30  0     0  0  0  0  0  0999 V2000
    8.9799   -4.6132   24.4190 C   0  0  0  0  0  0  0  0  0  0  0  0
    8.7190   -4.7028   28.1237 C   0  0  0  0  0  0  0  0  0  0  0  0
    8.9628   -3.3696   28.4532 C   0  0  0  0  0  0  0  0  0  0  0  0
   13.4594   -0.4225   22.6038 C   0  0  0  0  0  0  0  0  0  0  0  0
    8.7269   -5.1038   26.7877 C   0  0  0  0  0  0  0  0  0  0  0  0
   12.4060    0.1199   23.3314 C   0  0  0  0  0  0  0  0  0  0  0  0
    9.2144   -2.4372   27.4468 C   0  0  0  0  0  0  0  0  0  0  0  0
   13.1807   -1.4727   21.7440 C   0  0  0  0  0  0  0  0  0  0  0  0
   10.9501   -1.4482   22.2934 C   0  0  0  0  0  0  0  0  0  0  0  0
    8.9785   -4.1714   25.7812 C   0  0  0  0  0  0  0  0  0  0  0  0
   11.1243   -0.3970   23.1791 C   0  0  0  0  0  0  0  0  0  0  0  0
    9.2223   -2.8381   26.1107 C   0  0  0  0  0  0  0  0  0  0  0  0
    9.7387   -0.5121   25.2934 C   0  0  0  0  0  0  0  0  0  0  0  0
    9.9622    0.1691   23.9524 C   0  0  0  0  0  0  0  0  0  0  0  0
    8.9811   -4.9713   23.3151 N   0  0  0  0  0  0  0  0  0  0  0  0
   11.9488   -2.0014   21.5694 N   0  0  0  0  0  0  0  0  0  0  0  0
    9.4776   -1.8799   25.1243 N   0  0  0  0  0  0  0  0  0  0  0  0
    9.7890    0.0994   26.3558 O   0  0  0  0  0  0  0  0  0  0  0  0
    8.5232   -5.4287   28.9075 H   0  0  0  0  0  0  0  0  0  0  0  0
    8.9569   -3.0576   29.4935 H   0  0  0  0  0  0  0  0  0  0  0  0
   14.4667   -0.0354   22.7063 H   0  0  0  0  0  0  0  0  0  0  0  0
    8.5350   -6.1471   26.5484 H   0  0  0  0  0  0  0  0  0  0  0  0
   12.5929    0.9446   24.0139 H   0  0  0  0  0  0  0  0  0  0  0  0
    9.4031   -1.4012   27.7168 H   0  0  0  0  0  0  0  0  0  0  0  0
   13.9681   -1.9307   21.1544 H   0  0  0  0  0  0  0  0  0  0  0  0
    9.9727   -1.8927   22.1328 H   0  0  0  0  0  0  0  0  0  0  0  0
   10.1220    1.2411   24.1250 H   0  0  0  0  0  0  0  0  0  0  0  0
    9.0460    0.0812   23.3548 H   0  0  0  0  0  0  0  0  0  0  0  0
    9.4734   -2.2196   24.1572 H   0  0  0  0  0  0  0  0  0  0  0  0
  1 10  1  0  0  0  0
  1 15  3  0  0  0  0
  2  3  1  0  0  0  0
  2  5  2  0  0  0  0
  3  7  2  0  0  0  0
  4  6  2  0  0  0  0
  4  8  1  0  0  0  0
  5 10  1  0  0  0  0
  6 11  1  0  0  0  0
  7 12  1  0  0  0  0
  8 16  2  0  0  0  0
  9 11  2  0  0  0  0
  9 16  1  0  0  0  0
 10 12  2  0  0  0  0
 11 14  1  0  0  0  0
 12 17  1  0  0  0  0
 13 14  1  0  0  0  0
 13 17  1  0  0  0  0
 13 18  2  0  0  0  0
  2 19  1  0  0  0  0
  3 20  1  0  0  0  0
  4 21  1  0  0  0  0
  5 22  1  0  0  0  0
  6 23  1  0  0  0  0
  7 24  1  0  0  0  0
  8 25  1  0  0  0  0
  9 26  1  0  0  0  0
 14 27  1  0  0  0  0
 14 28  1  0  0  0  0
 17 29  1  0  0  0  0
M  END
> <Chemgauss4 Score>
-5.28842115402222

> <Number of Confs>
21

$$$$
TRY-UNI-714-5
  -OEChem-03242005443D

 31 32  0     0  0  0  0  0  0999 V2000
   13.2976   -1.5640   21.9799 C   0  0  0  0  0  0  0  0  0  0  0  0
   13.3945   -0.4862   22.8599 C   0  0  0  0  0  0  0  0  0  0  0  0
   12.0648   -2.1801   21.7647 C   0  0  0  0  0  0  0  0  0  0  0  0
   12.2585   -0.0244   23.5248 C   0  0  0  0  0  0  0  0  0  0  0  0
   10.9289   -1.7184   22.4296 C   0  0  0  0  0  0  0  0  0  0  0  0
    8.7528   -5.4121   26.9562 C   0  0  0  0  0  0  0  0  0  0  0  0
    8.6712   -4.9191   28.2485 C   0  0  0  0  0  0  0  0  0  0  0  0
    9.0470   -2.7643   27.5457 C   0  0  0  0  0  0  0  0  0  0  0  0
   11.0257   -0.6405   23.3096 C   0  0  0  0  0  0  0  0  0  0  0  0
    8.9952   -4.5074   25.9285 C   0  0  0  0  0  0  0  0  0  0  0  0
    9.1464   -3.1564   26.2204 C   0  0  0  0  0  0  0  0  0  0  0  0
    9.5632   -0.8236   25.3665 C   0  0  0  0  0  0  0  0  0  0  0  0
    9.0886   -5.0117   24.5258 C   0  0  0  0  0  0  0  0  0  0  0  0
    9.8107   -0.1474   24.0204 C   0  0  0  0  0  0  0  0  0  0  0  0
    8.8126   -3.6138   28.5709 N   0  0  0  0  0  0  0  0  0  0  0  0
    9.3939   -2.1970   25.2099 N   0  0  0  0  0  0  0  0  0  0  0  0
    9.5278   -0.1853   26.4136 O   0  0  0  0  0  0  0  0  0  0  0  0
   14.1820   -1.9226   21.4612 H   0  0  0  0  0  0  0  0  0  0  0  0
   14.3541   -0.0056   23.0267 H   0  0  0  0  0  0  0  0  0  0  0  0
   11.9888   -3.0186   21.0788 H   0  0  0  0  0  0  0  0  0  0  0  0
   12.3435    0.8159   24.2088 H   0  0  0  0  0  0  0  0  0  0  0  0
    9.9726   -2.2046   22.2558 H   0  0  0  0  0  0  0  0  0  0  0  0
    8.6304   -6.4723   26.7621 H   0  0  0  0  0  0  0  0  0  0  0  0
    8.4839   -5.5835   29.0856 H   0  0  0  0  0  0  0  0  0  0  0  0
    9.1553   -1.7237   27.8367 H   0  0  0  0  0  0  0  0  0  0  0  0
    8.1002   -5.0017   24.0520 H   0  0  0  0  0  0  0  0  0  0  0  0
    9.7695   -4.3942   23.9272 H   0  0  0  0  0  0  0  0  0  0  0  0
    9.4794   -6.0364   24.4983 H   0  0  0  0  0  0  0  0  0  0  0  0
    9.8825    0.9391   24.1932 H   0  0  0  0  0  0  0  0  0  0  0  0
    8.9157   -0.2948   23.3939 H   0  0  0  0  0  0  0  0  0  0  0  0
    9.4553   -2.5521   24.2580 H   0  0  0  0  0  0  0  0  0  0  0  0
  1  2  1  0  0  0  0
  1  3  2  0  0  0  0
  2  4  2  0  0  0  0
  3  5  1  0  0  0  0
  4  9  1  0  0  0  0
  5  9  2  0  0  0  0
  6  7  2  0  0  0  0
  6 10  1  0  0  0  0
  7 15  1  0  0  0  0
  8 11  1  0  0  0  0
  8 15  2  0  0  0  0
  9 14  1  0  0  0  0
 10 11  2  0  0  0  0
 10 13  1  0  0  0  0
 11 16  1  0  0  0  0
 12 14  1  0  0  0  0
 12 16  1  0  0  0  0
 12 17  2  0  0  0  0
  1 18  1  0  0  0  0
  2 19  1  0  0  0  0
  3 20  1  0  0  0  0
  4 21  1  0  0  0  0
  5 22  1  0  0  0  0
  6 23  1  0  0  0  0
  7 24  1  0  0  0  0
  8 25  1  0  0  0  0
 13 26  1  0  0  0  0
 13 27  1  0  0  0  0
 13 28  1  0  0  0  0
 14 29  1  0  0  0  0
 14 30  1  0  0  0  0
 16 31  1  0  0  0  0
M  END
> <Chemgauss4 Score>
-5.28764247894287

> <Number of Confs>
10

$$$$
GIA-UNK-eaa-1
  -OEChem-03242005443D

 44 46  0     0  0  0  0  0  0999 V2000
   13.4573    0.0965   23.2112 C   0  0  0  0  0  0  0  0  0  0  0  0
   12.3808    0.4258   24.0349 C   0  0  0  0  0  0  0  0  0  0  0  0
   13.3407   -0.9497   22.2960 C   0  0  0  0  0  0  0  0  0  0  0  0
   11.1878   -0.2911   23.9434 C   0  0  0  0  0  0  0  0  0  0  0  0
   12.1476   -1.6666   22.2045 C   0  0  0  0  0  0  0  0  0  0  0  0
   11.0712   -1.3373   23.0282 C   0  0  0  0  0  0  0  0  0  0  0  0
    9.8154   -2.0919   22.9321 C   0  0  0  0  0  0  0  0  0  0  0  0
    8.4014   -5.7014   26.8613 C   0  0  0  0  0  0  0  0  0  0  0  0
    8.2709   -3.8183   28.4755 C   0  0  0  0  0  0  0  0  0  0  0  0
    8.1062   -6.2159   29.2682 C   0  0  0  0  0  0  0  0  0  0  0  0
   10.0286   -2.7787   25.3792 C   0  0  0  0  0  0  0  0  0  0  0  0
    8.0843   -3.4734   24.0333 C   0  0  0  0  0  0  0  0  0  0  0  0
   10.2114   -4.2135   25.8679 C   0  0  0  0  0  0  0  0  0  0  0  0
    8.2576   -4.9090   24.5206 C   0  0  0  0  0  0  0  0  0  0  0  0
    6.7672   -3.7248   28.7125 C   0  0  0  0  0  0  0  0  0  0  0  0
    6.6131   -5.9644   29.4506 C   0  0  0  0  0  0  0  0  0  0  0  0
    8.7433   -5.2531   28.2729 C   0  0  0  0  0  0  0  0  0  0  0  0
    9.3634   -2.7634   24.0691 N   0  0  0  0  0  0  0  0  0  0  0  0
    8.9366   -4.9449   25.8198 N   0  0  0  0  0  0  0  0  0  0  0  0
    9.2564   -2.0808   21.8364 O   0  0  0  0  0  0  0  0  0  0  0  0
    7.6802   -6.6892   26.7000 O   0  0  0  0  0  0  0  0  0  0  0  0
    6.3640   -4.5965   29.7663 O   0  0  0  0  0  0  0  0  0  0  0  0
   14.3862    0.6546   23.2825 H   0  0  0  0  0  0  0  0  0  0  0  0
   12.4719    1.2403   24.7475 H   0  0  0  0  0  0  0  0  0  0  0  0
   14.1787   -1.2060   21.6545 H   0  0  0  0  0  0  0  0  0  0  0  0
   10.3552   -0.0260   24.5900 H   0  0  0  0  0  0  0  0  0  0  0  0
   12.0681   -2.4800   21.4878 H   0  0  0  0  0  0  0  0  0  0  0  0
    8.5545   -3.1794   27.6318 H   0  0  0  0  0  0  0  0  0  0  0  0
    8.7795   -3.4266   29.3656 H   0  0  0  0  0  0  0  0  0  0  0  0
    8.5979   -6.0620   30.2370 H   0  0  0  0  0  0  0  0  0  0  0  0
    8.2748   -7.2591   28.9791 H   0  0  0  0  0  0  0  0  0  0  0  0
    9.3959   -2.2140   26.0746 H   0  0  0  0  0  0  0  0  0  0  0  0
   10.9998   -2.2790   25.3422 H   0  0  0  0  0  0  0  0  0  0  0  0
    7.6709   -3.4713   23.0197 H   0  0  0  0  0  0  0  0  0  0  0  0
    7.3843   -2.9281   24.6774 H   0  0  0  0  0  0  0  0  0  0  0  0
   10.9170   -4.7508   25.2231 H   0  0  0  0  0  0  0  0  0  0  0  0
   10.6354   -4.2010   26.8734 H   0  0  0  0  0  0  0  0  0  0  0  0
    7.2810   -5.3998   24.5793 H   0  0  0  0  0  0  0  0  0  0  0  0
    8.8711   -5.4828   23.8157 H   0  0  0  0  0  0  0  0  0  0  0  0
    6.5010   -2.7035   29.0035 H   0  0  0  0  0  0  0  0  0  0  0  0
    6.2024   -3.9637   27.8038 H   0  0  0  0  0  0  0  0  0  0  0  0
    6.0434   -6.2437   28.5569 H   0  0  0  0  0  0  0  0  0  0  0  0
    6.2353   -6.5717   30.2796 H   0  0  0  0  0  0  0  0  0  0  0  0
    9.8220   -5.3063   28.3422 H   0  0  0  0  0  0  0  0  0  0  0  0
  1  2  1  0  0  0  0
  1  3  2  0  0  0  0
  2  4  2  0  0  0  0
  3  5  1  0  0  0  0
  4  6  1  0  0  0  0
  5  6  2  0  0  0  0
  6  7  1  0  0  0  0
  7 18  1  0  0  0  0
  7 20  2  0  0  0  0
  8 17  1  0  0  0  0
  8 19  1  0  0  0  0
  8 21  2  0  0  0  0
  9 15  1  0  0  0  0
  9 17  1  0  0  0  0
 10 16  1  0  0  0  0
 10 17  1  0  0  0  0
 11 13  1  0  0  0  0
 11 18  1  0  0  0  0
 12 14  1  0  0  0  0
 12 18  1  0  0  0  0
 13 19  1  0  0  0  0
 14 19  1  0  0  0  0
 15 22  1  0  0  0  0
 16 22  1  0  0  0  0
  1 23  1  0  0  0  0
  2 24  1  0  0  0  0
  3 25  1  0  0  0  0
  4 26  1  0  0  0  0
  5 27  1  0  0  0  0
  9 28  1  0  0  0  0
  9 29  1  0  0  0  0
 10 30  1  0  0  0  0
 10 31  1  0  0  0  0
 11 32  1  0  0  0  0
 11 33  1  0  0  0  0
 12 34  1  0  0  0  0
 12 35  1  0  0  0  0
 13 36  1  0  0  0  0
 13 37  1  0  0  0  0
 14 38  1  0  0  0  0
 14 39  1  0  0  0  0
 15 40  1  0  0  0  0
 15 41  1  0  0  0  0
 16 42  1  0  0  0  0
 16 43  1  0  0  0  0
 17 44  1  0  0  0  0
M  END
> <Chemgauss4 Score>
-5.28584909439087

> <Number of Confs>
105

$$$$
CHR-SOS-54d-6
  -OEChem-03242005443D

 43 45  0     0  0  0  0  0  0999 V2000
   10.9783   -2.5008   23.5711 C   0  0  0  0  0  0  0  0  0  0  0  0
   10.1514   -2.9072   24.3416 C   0  0  0  0  0  0  0  0  0  0  0  0
    6.3356   -0.8752   19.9897 C   0  0  0  0  0  0  0  0  0  0  0  0
    6.6143   -1.3554   21.2645 C   0  0  0  0  0  0  0  0  0  0  0  0
    7.1164    0.1602   19.5017 C   0  0  0  0  0  0  0  0  0  0  0  0
    8.3726    0.2381   21.4236 C   0  0  0  0  0  0  0  0  0  0  0  0
   13.3108   -2.2804   22.6462 C   0  0  0  0  0  0  0  0  0  0  0  0
   12.7446   -0.9422   20.9894 C   0  0  0  0  0  0  0  0  0  0  0  0
   11.9615   -2.0161   22.6518 C   0  0  0  0  0  0  0  0  0  0  0  0
    7.6506   -0.7935   22.0018 C   0  0  0  0  0  0  0  0  0  0  0  0
    7.3267   -2.2807   24.0081 C   0  0  0  0  0  0  0  0  0  0  0  0
    8.3343   -5.6154   27.2216 C   0  0  0  0  0  0  0  0  0  0  0  0
    7.6628   -5.4929   25.8584 C   0  0  0  0  0  0  0  0  0  0  0  0
    8.8080   -4.2618   27.7387 C   0  0  0  0  0  0  0  0  0  0  0  0
    8.5704   -4.7971   24.8415 C   0  0  0  0  0  0  0  0  0  0  0  0
    9.7216   -3.5600   26.7313 C   0  0  0  0  0  0  0  0  0  0  0  0
    9.0916   -3.4274   25.3278 C   0  0  0  0  0  0  0  0  0  0  0  0
    7.9803   -2.4477   25.3633 C   0  0  0  0  0  0  0  0  0  0  0  0
    8.1313    0.7313   20.1882 N   0  0  0  0  0  0  0  0  0  0  0  0
   11.6153   -1.1828   21.6178 N   0  0  0  0  0  0  0  0  0  0  0  0
   13.7989   -1.5859   21.5753 N   0  0  0  0  0  0  0  0  0  0  0  0
    7.9578   -1.2607   23.3018 N   0  0  0  0  0  0  0  0  0  0  0  0
    6.3825   -2.9705   23.6377 O   0  0  0  0  0  0  0  0  0  0  0  0
    5.5325   -1.2982   19.3970 H   0  0  0  0  0  0  0  0  0  0  0  0
    6.0183   -2.1671   21.6733 H   0  0  0  0  0  0  0  0  0  0  0  0
    6.9387    0.5708   18.5132 H   0  0  0  0  0  0  0  0  0  0  0  0
    9.1933    0.7168   21.9496 H   0  0  0  0  0  0  0  0  0  0  0  0
   13.9508   -2.8771   23.2809 H   0  0  0  0  0  0  0  0  0  0  0  0
   12.8657   -0.3189   20.1151 H   0  0  0  0  0  0  0  0  0  0  0  0
    7.6282   -6.0531   27.9382 H   0  0  0  0  0  0  0  0  0  0  0  0
    9.1852   -6.3024   27.1531 H   0  0  0  0  0  0  0  0  0  0  0  0
    7.3878   -6.4898   25.4930 H   0  0  0  0  0  0  0  0  0  0  0  0
    6.7292   -4.9278   25.9609 H   0  0  0  0  0  0  0  0  0  0  0  0
    7.9394   -3.6267   27.9478 H   0  0  0  0  0  0  0  0  0  0  0  0
    9.3354   -4.3959   28.6909 H   0  0  0  0  0  0  0  0  0  0  0  0
    9.4077   -5.4643   24.5976 H   0  0  0  0  0  0  0  0  0  0  0  0
    8.0008   -4.6611   23.9121 H   0  0  0  0  0  0  0  0  0  0  0  0
    9.9557   -2.5602   27.1213 H   0  0  0  0  0  0  0  0  0  0  0  0
   10.6742   -4.1032   26.6770 H   0  0  0  0  0  0  0  0  0  0  0  0
    8.3764   -1.4882   25.6945 H   0  0  0  0  0  0  0  0  0  0  0  0
    7.2384   -2.7927   26.0828 H   0  0  0  0  0  0  0  0  0  0  0  0
   14.7629   -1.5519   21.2718 H   0  0  0  0  0  0  0  0  0  0  0  0
    8.7326   -0.7874   23.7623 H   0  0  0  0  0  0  0  0  0  0  0  0
  1  2  3  0  0  0  0
  1  9  1  0  0  0  0
  2 17  1  0  0  0  0
  3  4  2  0  0  0  0
  3  5  1  0  0  0  0
  4 10  1  0  0  0  0
  5 19  2  0  0  0  0
  6 10  2  0  0  0  0
  6 19  1  0  0  0  0
  7  9  2  0  0  0  0
  7 21  1  0  0  0  0
  8 20  2  0  0  0  0
  8 21  1  0  0  0  0
  9 20  1  0  0  0  0
 10 22  1  0  0  0  0
 11 18  1  0  0  0  0
 11 22  1  0  0  0  0
 11 23  2  0  0  0  0
 12 13  1  0  0  0  0
 12 14  1  0  0  0  0
 13 15  1  0  0  0  0
 14 16  1  0  0  0  0
 15 17  1  0  0  0  0
 16 17  1  0  0  0  0
 17 18  1  0  0  0  0
  3 24  1  0  0  0  0
  4 25  1  0  0  0  0
  5 26  1  0  0  0  0
  6 27  1  0  0  0  0
  7 28  1  0  0  0  0
  8 29  1  0  0  0  0
 12 30  1  0  0  0  0
 12 31  1  0  0  0  0
 13 32  1  0  0  0  0
 13 33  1  0  0  0  0
 14 34  1  0  0  0  0
 14 35  1  0  0  0  0
 15 36  1  0  0  0  0
 15 37  1  0  0  0  0
 16 38  1  0  0  0  0
 16 39  1  0  0  0  0
 18 40  1  0  0  0  0
 18 41  1  0  0  0  0
 21 42  1  0  0  0  0
 22 43  1  0  0  0  0
M  END
> <Chemgauss4 Score>
-5.27538347244263

> <Number of Confs>
78

$$$$
TRY-UNI-1fd-4
  -OEChem-03242005443D

 39 41  0     0  0  0  0  0  0999 V2000
    7.1256   -5.3296   26.6952 C   0  0  0  0  0  0  0  0  0  0  0  0
    6.4778   -5.5474   25.4778 C   0  0  0  0  0  0  0  0  0  0  0  0
    8.3377   -4.5750   24.2813 C   0  0  0  0  0  0  0  0  0  0  0  0
   10.6169   -3.6994   27.0888 C   0  0  0  0  0  0  0  0  0  0  0  0
    9.0206   -4.3406   25.4993 C   0  0  0  0  0  0  0  0  0  0  0  0
   10.3040   -3.7492   25.7512 C   0  0  0  0  0  0  0  0  0  0  0  0
    8.3978   -4.7247   26.6908 C   0  0  0  0  0  0  0  0  0  0  0  0
    7.0756   -5.1749   24.2822 C   0  0  0  0  0  0  0  0  0  0  0  0
   12.6131   -1.3037   22.6603 C   0  0  0  0  0  0  0  0  0  0  0  0
   11.8440   -0.1803   24.7756 C   0  0  0  0  0  0  0  0  0  0  0  0
   11.2460   -1.9951   22.5842 C   0  0  0  0  0  0  0  0  0  0  0  0
   10.5040   -0.9100   24.6221 C   0  0  0  0  0  0  0  0  0  0  0  0
   12.5382    0.0145   23.4281 C   0  0  0  0  0  0  0  0  0  0  0  0
   11.2180   -3.2349   24.6768 C   0  0  0  0  0  0  0  0  0  0  0  0
   10.5919   -2.1779   23.8862 N   0  0  0  0  0  0  0  0  0  0  0  0
    5.3768   -3.9958   22.6004 N   0  0  0  0  0  0  0  0  0  0  0  0
    7.2440   -5.5342   21.7101 O   0  0  0  0  0  0  0  0  0  0  0  0
    5.3021   -6.5462   22.9561 O   0  0  0  0  0  0  0  0  0  0  0  0
   11.8116    0.9584   22.6436 O   0  0  0  0  0  0  0  0  0  0  0  0
    9.3808   -4.3589   28.0595 S   0  0  0  0  0  0  0  0  0  0  0  0
    6.2485   -5.4555   22.7696 S   0  0  0  0  0  0  0  0  0  0  0  0
    6.6497   -5.6247   27.6262 H   0  0  0  0  0  0  0  0  0  0  0  0
    5.4959   -6.0142   25.4807 H   0  0  0  0  0  0  0  0  0  0  0  0
    8.7996   -4.2861   23.3400 H   0  0  0  0  0  0  0  0  0  0  0  0
   11.5147   -3.3052   27.5447 H   0  0  0  0  0  0  0  0  0  0  0  0
   13.3440   -1.9696   23.1371 H   0  0  0  0  0  0  0  0  0  0  0  0
   12.9976   -1.1225   21.6465 H   0  0  0  0  0  0  0  0  0  0  0  0
   11.6867    0.7951   25.2572 H   0  0  0  0  0  0  0  0  0  0  0  0
   12.4998   -0.7415   25.4534 H   0  0  0  0  0  0  0  0  0  0  0  0
   10.5959   -1.3849   21.9242 H   0  0  0  0  0  0  0  0  0  0  0  0
   11.3612   -2.9714   22.0658 H   0  0  0  0  0  0  0  0  0  0  0  0
   10.0621   -1.0738   25.6285 H   0  0  0  0  0  0  0  0  0  0  0  0
    9.8054   -0.2254   24.0989 H   0  0  0  0  0  0  0  0  0  0  0  0
   13.5483    0.4117   23.5779 H   0  0  0  0  0  0  0  0  0  0  0  0
   12.1375   -2.8299   25.1134 H   0  0  0  0  0  0  0  0  0  0  0  0
   11.5096   -4.0376   23.9914 H   0  0  0  0  0  0  0  0  0  0  0  0
    5.6837   -3.3323   21.8786 H   0  0  0  0  0  0  0  0  0  0  0  0
    4.3584   -4.0247   22.7316 H   0  0  0  0  0  0  0  0  0  0  0  0
   12.2994    1.0643   21.8111 H   0  0  0  0  0  0  0  0  0  0  0  0
  1  2  2  0  0  0  0
  1  7  1  0  0  0  0
  2  8  1  0  0  0  0
  3  5  1  0  0  0  0
  3  8  2  0  0  0  0
  4  6  2  0  0  0  0
  4 20  1  0  0  0  0
  5  6  1  0  0  0  0
  5  7  2  0  0  0  0
  6 14  1  0  0  0  0
  7 20  1  0  0  0  0
  8 21  1  0  0  0  0
  9 11  1  0  0  0  0
  9 13  1  0  0  0  0
 10 12  1  0  0  0  0
 10 13  1  0  0  0  0
 11 15  1  0  0  0  0
 12 15  1  0  0  0  0
 13 19  1  0  0  0  0
 14 15  1  0  0  0  0
 16 21  1  0  0  0  0
 17 21  2  0  0  0  0
 18 21  2  0  0  0  0
  1 22  1  0  0  0  0
  2 23  1  0  0  0  0
  3 24  1  0  0  0  0
  4 25  1  0  0  0  0
  9 26  1  0  0  0  0
  9 27  1  0  0  0  0
 10 28  1  0  0  0  0
 10 29  1  0  0  0  0
 11 30  1  0  0  0  0
 11 31  1  0  0  0  0
 12 32  1  0  0  0  0
 12 33  1  0  0  0  0
 13 34  1  0  0  0  0
 14 35  1  0  0  0  0
 14 36  1  0  0  0  0
 16 37  1  0  0  0  0
 16 38  1  0  0  0  0
 19 39  1  0  0  0  0
M  END
> <Chemgauss4 Score>
-5.27414512634277

> <Number of Confs>
82

$$$$
DAR-DIA-fc9-7
  -OEChem-03242005443D

 35 37  0     1  0  0  0  0  0999 V2000
   13.4352   -0.6722   22.2698 C   0  0  0  0  0  0  0  0  0  0  0  0
   12.5791    0.4290   22.2628 C   0  0  0  0  0  0  0  0  0  0  0  0
   13.0352   -1.8628   22.8766 C   0  0  0  0  0  0  0  0  0  0  0  0
    8.0335   -4.3111   28.5829 C   0  0  0  0  0  0  0  0  0  0  0  0
   11.3230    0.3397   22.8626 C   0  0  0  0  0  0  0  0  0  0  0  0
   11.7790   -1.9521   23.4765 C   0  0  0  0  0  0  0  0  0  0  0  0
    8.3231   -3.4586   27.5234 C   0  0  0  0  0  0  0  0  0  0  0  0
    7.9274   -5.6663   28.3146 C   0  0  0  0  0  0  0  0  0  0  0  0
    8.3686   -5.3500   26.0822 C   0  0  0  0  0  0  0  0  0  0  0  0
   10.9229   -0.8509   23.4695 C   0  0  0  0  0  0  0  0  0  0  0  0
    8.4952   -3.9799   26.2459 C   0  0  0  0  0  0  0  0  0  0  0  0
    9.5182   -1.9221   25.2978 C   0  0  0  0  0  0  0  0  0  0  0  0
    8.4495   -2.6074   22.6323 C   0  0  0  0  0  0  0  0  0  0  0  0
    8.4238   -1.1798   23.1269 C   0  0  0  0  0  0  0  0  0  0  0  0
    8.3817   -3.5983   23.7859 C   0  0  0  0  0  0  0  0  0  0  0  0
    9.5534   -0.9489   24.1240 C   0  0  2  0  0  0  0  0  0  0  0  0
    8.0880   -6.2096   27.0872 N   0  0  0  0  0  0  0  0  0  0  0  0
    8.7983   -3.1148   25.1183 N   0  0  0  0  0  0  0  0  0  0  0  0
   10.1546   -1.6219   26.3134 O   0  0  0  0  0  0  0  0  0  0  0  0
   14.4127   -0.6029   21.8015 H   0  0  0  0  0  0  0  0  0  0  0  0
   12.8900    1.3558   21.7894 H   0  0  0  0  0  0  0  0  0  0  0  0
   13.7010   -2.7207   22.8813 H   0  0  0  0  0  0  0  0  0  0  0  0
    7.8953   -3.9268   29.5871 H   0  0  0  0  0  0  0  0  0  0  0  0
   10.6627    1.2029   22.8525 H   0  0  0  0  0  0  0  0  0  0  0  0
   11.4759   -2.8837   23.9470 H   0  0  0  0  0  0  0  0  0  0  0  0
    8.4123   -2.3906   27.7041 H   0  0  0  0  0  0  0  0  0  0  0  0
    7.7021   -6.3728   29.1066 H   0  0  0  0  0  0  0  0  0  0  0  0
    8.4920   -5.8160   25.1091 H   0  0  0  0  0  0  0  0  0  0  0  0
    7.6106   -2.7877   21.9349 H   0  0  0  0  0  0  0  0  0  0  0  0
    9.3705   -2.7868   22.0499 H   0  0  0  0  0  0  0  0  0  0  0  0
    8.5094   -0.4871   22.2721 H   0  0  0  0  0  0  0  0  0  0  0  0
    7.4491   -0.9679   23.5963 H   0  0  0  0  0  0  0  0  0  0  0  0
    7.3477   -3.9878   23.8690 H   0  0  0  0  0  0  0  0  0  0  0  0
    9.0244   -4.4711   23.5558 H   0  0  0  0  0  0  0  0  0  0  0  0
    9.3757    0.0659   24.6035 H   0  0  0  0  0  0  0  0  0  0  0  0
  1  2  1  0  0  0  0
  1  3  2  0  0  0  0
  2  5  2  0  0  0  0
  3  6  1  0  0  0  0
  4  7  2  0  0  0  0
  4  8  1  0  0  0  0
  5 10  1  0  0  0  0
  6 10  2  0  0  0  0
  7 11  1  0  0  0  0
  8 17  2  0  0  0  0
  9 11  2  0  0  0  0
  9 17  1  0  0  0  0
 10 16  1  1  0  0  0
 11 18  1  0  0  0  0
 12 16  1  0  0  0  0
 12 18  1  0  0  0  0
 12 19  2  0  0  0  0
 13 14  1  0  0  0  0
 13 15  1  0  0  0  0
 14 16  1  0  0  0  0
 15 18  1  0  0  0  0
  1 20  1  0  0  0  0
  2 21  1  0  0  0  0
  3 22  1  0  0  0  0
  4 23  1  0  0  0  0
  5 24  1  0  0  0  0
  6 25  1  0  0  0  0
  7 26  1  0  0  0  0
  8 27  1  0  0  0  0
  9 28  1  0  0  0  0
 13 29  1  0  0  0  0
 13 30  1  0  0  0  0
 14 31  1  0  0  0  0
 14 32  1  0  0  0  0
 15 33  1  0  0  0  0
 15 34  1  0  0  0  0
 16 35  1  0  0  0  0
M  END
> <Chemgauss4 Score>
-5.2729320526123

> <Number of Confs>
20

$$$$
TRY-UNI-1fd-11
  -OEChem-03242005443D

 34 36  0     0  0  0  0  0  0999 V2000
    8.7215   -2.1465   27.9666 C   0  0  0  0  0  0  0  0  0  0  0  0
    7.9230   -2.6887   26.9612 C   0  0  0  0  0  0  0  0  0  0  0  0
   10.2423   -0.2975   23.7110 C   0  0  0  0  0  0  0  0  0  0  0  0
    9.1898   -1.0822   23.2530 C   0  0  0  0  0  0  0  0  0  0  0  0
    9.6332   -2.9706   28.6127 C   0  0  0  0  0  0  0  0  0  0  0  0
   11.7435   -1.7112   22.5260 C   0  0  0  0  0  0  0  0  0  0  0  0
    8.1068   -6.1885   25.9326 C   0  0  0  0  0  0  0  0  0  0  0  0
    8.0870   -4.0495   26.6559 C   0  0  0  0  0  0  0  0  0  0  0  0
    7.5029   -4.9645   25.7405 C   0  0  0  0  0  0  0  0  0  0  0  0
   11.5465   -0.6112   23.3451 C   0  0  0  0  0  0  0  0  0  0  0  0
    9.4923   -2.1610   22.4379 C   0  0  0  0  0  0  0  0  0  0  0  0
    9.0386   -4.7588   27.3829 C   0  0  0  0  0  0  0  0  0  0  0  0
    6.7948   -3.5675   23.7595 C   0  0  0  0  0  0  0  0  0  0  0  0
    6.4410   -4.6693   24.7579 C   0  0  0  0  0  0  0  0  0  0  0  0
    8.3806   -3.0299   21.9247 C   0  0  0  0  0  0  0  0  0  0  0  0
   10.7464   -2.4970   22.0613 N   0  0  0  0  0  0  0  0  0  0  0  0
    9.8336   -4.2851   28.3609 N   0  0  0  0  0  0  0  0  0  0  0  0
    9.0361   -6.0522   26.9311 N   0  0  0  0  0  0  0  0  0  0  0  0
    7.8667   -3.9104   22.9476 N   0  0  0  0  0  0  0  0  0  0  0  0
    6.1789   -2.5063   23.7020 O   0  0  0  0  0  0  0  0  0  0  0  0
   12.8693    0.3345   23.8898 Cl  0  0  0  0  0  0  0  0  0  0  0  0
    8.6314   -1.1002   28.2383 H   0  0  0  0  0  0  0  0  0  0  0  0
    7.2010   -2.0718   26.4361 H   0  0  0  0  0  0  0  0  0  0  0  0
   10.0323    0.5550   24.3516 H   0  0  0  0  0  0  0  0  0  0  0  0
    8.1677   -0.8483   23.5311 H   0  0  0  0  0  0  0  0  0  0  0  0
   10.2648   -2.5647   29.3985 H   0  0  0  0  0  0  0  0  0  0  0  0
   12.7375   -2.0081   22.2050 H   0  0  0  0  0  0  0  0  0  0  0  0
    7.9599   -7.1443   25.4488 H   0  0  0  0  0  0  0  0  0  0  0  0
    6.1775   -5.5734   24.1748 H   0  0  0  0  0  0  0  0  0  0  0  0
    5.5025   -4.3668   25.2622 H   0  0  0  0  0  0  0  0  0  0  0  0
    7.5496   -2.4174   21.5582 H   0  0  0  0  0  0  0  0  0  0  0  0
    8.7206   -3.6504   21.0889 H   0  0  0  0  0  0  0  0  0  0  0  0
    9.6280   -6.7924   27.2818 H   0  0  0  0  0  0  0  0  0  0  0  0
    8.3072   -4.8164   23.0779 H   0  0  0  0  0  0  0  0  0  0  0  0
  1  2  2  0  0  0  0
  1  5  1  0  0  0  0
  2  8  1  0  0  0  0
  3  4  2  0  0  0  0
  3 10  1  0  0  0  0
  4 11  1  0  0  0  0
  5 17  2  0  0  0  0
  6 10  2  0  0  0  0
  6 16  1  0  0  0  0
  7  9  2  0  0  0  0
  7 18  1  0  0  0  0
  8  9  1  0  0  0  0
  8 12  2  0  0  0  0
  9 14  1  0  0  0  0
 10 21  1  0  0  0  0
 11 15  1  0  0  0  0
 11 16  2  0  0  0  0
 12 17  1  0  0  0  0
 12 18  1  0  0  0  0
 13 14  1  0  0  0  0
 13 19  1  0  0  0  0
 13 20  2  0  0  0  0
 15 19  1  0  0  0  0
  1 22  1  0  0  0  0
  2 23  1  0  0  0  0
  3 24  1  0  0  0  0
  4 25  1  0  0  0  0
  5 26  1  0  0  0  0
  6 27  1  0  0  0  0
  7 28  1  0  0  0  0
 14 29  1  0  0  0  0
 14 30  1  0  0  0  0
 15 31  1  0  0  0  0
 15 32  1  0  0  0  0
 18 33  1  0  0  0  0
 19 34  1  0  0  0  0
M  END
> <Chemgauss4 Score>
-5.2722544670105

> <Number of Confs>
200

$$$$
AGN-NEW-891-11
  -OEChem-03242005443D

 40 42  0     0  0  0  0  0  0999 V2000
    6.9692   -6.7459   21.4899 C   0  0  0  0  0  0  0  0  0  0  0  0
    7.6232   -6.1398   22.5567 C   0  0  0  0  0  0  0  0  0  0  0  0
    8.4986   -0.2576   25.0704 C   0  0  0  0  0  0  0  0  0  0  0  0
    8.3603   -1.4958   25.6976 C   0  0  0  0  0  0  0  0  0  0  0  0
   14.2132   -0.0301   22.3013 C   0  0  0  0  0  0  0  0  0  0  0  0
   10.5712   -2.1211   24.9506 C   0  0  0  0  0  0  0  0  0  0  0  0
    5.7822   -6.1813   21.0516 C   0  0  0  0  0  0  0  0  0  0  0  0
   13.4048   -1.0934   21.9548 C   0  0  0  0  0  0  0  0  0  0  0  0
   13.7758    0.7301   23.3667 C   0  0  0  0  0  0  0  0  0  0  0  0
    5.8862   -4.5170   22.6319 C   0  0  0  0  0  0  0  0  0  0  0  0
   10.7094   -0.8829   24.3233 C   0  0  0  0  0  0  0  0  0  0  0  0
    7.0780   -5.0037   23.1443 C   0  0  0  0  0  0  0  0  0  0  0  0
    9.6731    0.0488   24.3832 C   0  0  0  0  0  0  0  0  0  0  0  0
    9.3966   -2.4275   25.6378 C   0  0  0  0  0  0  0  0  0  0  0  0
   11.9377   -0.5841   23.6147 C   0  0  0  0  0  0  0  0  0  0  0  0
    7.7463   -4.3387   24.2764 C   0  0  0  0  0  0  0  0  0  0  0  0
    8.5247   -4.9569   25.1732 C   0  0  0  0  0  0  0  0  0  0  0  0
    9.3361    1.3609   22.4285 C   0  0  0  0  0  0  0  0  0  0  0  0
    5.2218   -5.0786   21.5970 N   0  0  0  0  0  0  0  0  0  0  0  0
   12.2560   -1.4005   22.5922 N   0  0  0  0  0  0  0  0  0  0  0  0
   12.6387    0.4808   24.0487 N   0  0  0  0  0  0  0  0  0  0  0  0
   10.5512   -4.4951   26.7255 O   0  0  0  0  0  0  0  0  0  0  0  0
    8.2566   -3.8238   27.5026 O   0  0  0  0  0  0  0  0  0  0  0  0
    9.7812    1.2668   23.7796 O   0  0  0  0  0  0  0  0  0  0  0  0
    9.2223   -3.9779   26.4215 S   0  0  0  0  0  0  0  0  0  0  0  0
    7.3757   -7.6320   21.0162 H   0  0  0  0  0  0  0  0  0  0  0  0
    8.5563   -6.5638   22.9192 H   0  0  0  0  0  0  0  0  0  0  0  0
    7.6878    0.4641   25.1212 H   0  0  0  0  0  0  0  0  0  0  0  0
    7.4413   -1.7243   26.2306 H   0  0  0  0  0  0  0  0  0  0  0  0
   15.1295    0.1934   21.7717 H   0  0  0  0  0  0  0  0  0  0  0  0
   11.3761   -2.8517   24.9061 H   0  0  0  0  0  0  0  0  0  0  0  0
    5.2335   -6.6172   20.2232 H   0  0  0  0  0  0  0  0  0  0  0  0
   13.6665   -1.7474   21.1298 H   0  0  0  0  0  0  0  0  0  0  0  0
   14.3448    1.5870   23.7115 H   0  0  0  0  0  0  0  0  0  0  0  0
    5.4087   -3.6335   23.0459 H   0  0  0  0  0  0  0  0  0  0  0  0
    7.5869   -3.2646   24.3473 H   0  0  0  0  0  0  0  0  0  0  0  0
    8.7458   -6.0162   25.1554 H   0  0  0  0  0  0  0  0  0  0  0  0
    9.4774    2.3826   22.0679 H   0  0  0  0  0  0  0  0  0  0  0  0
    8.2799    1.0859   22.3719 H   0  0  0  0  0  0  0  0  0  0  0  0
    9.9226    0.6751   21.8125 H   0  0  0  0  0  0  0  0  0  0  0  0
  1  2  2  0  0  0  0
  1  7  1  0  0  0  0
  2 12  1  0  0  0  0
  3  4  2  0  0  0  0
  3 13  1  0  0  0  0
  4 14  1  0  0  0  0
  5  8  1  0  0  0  0
  5  9  2  0  0  0  0
  6 11  1  0  0  0  0
  6 14  2  0  0  0  0
  7 19  2  0  0  0  0
  8 20  2  0  0  0  0
  9 21  1  0  0  0  0
 10 12  2  0  0  0  0
 10 19  1  0  0  0  0
 11 13  2  0  0  0  0
 11 15  1  0  0  0  0
 12 16  1  0  0  0  0
 13 24  1  0  0  0  0
 14 25  1  0  0  0  0
 15 20  1  0  0  0  0
 15 21  2  0  0  0  0
 16 17  2  0  0  0  0
 17 25  1  0  0  0  0
 18 24  1  0  0  0  0
 22 25  2  0  0  0  0
 23 25  2  0  0  0  0
  1 26  1  0  0  0  0
  2 27  1  0  0  0  0
  3 28  1  0  0  0  0
  4 29  1  0  0  0  0
  5 30  1  0  0  0  0
  6 31  1  0  0  0  0
  7 32  1  0  0  0  0
  8 33  1  0  0  0  0
  9 34  1  0  0  0  0
 10 35  1  0  0  0  0
 16 36  1  0  0  0  0
 17 37  1  0  0  0  0
 18 38  1  0  0  0  0
 18 39  1  0  0  0  0
 18 40  1  0  0  0  0
M  END
> <Chemgauss4 Score>
-5.26653289794922

> <Number of Confs>
200

$$$$
BAR-COM-21d-6
  -OEChem-03242005443D

 49 50  0     1  0  0  0  0  0999 V2000
   12.5047   -2.3611   24.6040 C   0  0  0  0  0  0  0  0  0  0  0  0
    5.4367    0.4510   19.3287 C   0  0  0  0  0  0  0  0  0  0  0  0
   11.6709   -3.1893   25.3552 C   0  0  0  0  0  0  0  0  0  0  0  0
   12.0350   -1.7837   23.4243 C   0  0  0  0  0  0  0  0  0  0  0  0
    6.5179   -0.0446   20.0490 C   0  0  0  0  0  0  0  0  0  0  0  0
    9.8977   -2.8629   23.7470 C   0  0  0  0  0  0  0  0  0  0  0  0
    5.6758    0.9410   18.0549 C   0  0  0  0  0  0  0  0  0  0  0  0
    7.9210    0.4764   18.2008 C   0  0  0  0  0  0  0  0  0  0  0  0
   10.3674   -3.4402   24.9267 C   0  0  0  0  0  0  0  0  0  0  0  0
   10.7315   -2.0346   22.9958 C   0  0  0  0  0  0  0  0  0  0  0  0
    7.7872   -0.0352   19.4815 C   0  0  0  0  0  0  0  0  0  0  0  0
    8.9380   -1.0795   21.4825 C   0  0  0  0  0  0  0  0  0  0  0  0
    5.2514   -6.0039   25.1665 C   0  0  0  0  0  0  0  0  0  0  0  0
    8.6090   -5.1030   28.7932 C   0  0  0  0  0  0  0  0  0  0  0  0
    9.4657   -4.3364   25.7398 C   0  0  0  0  0  0  0  0  0  0  0  0
    6.0506   -4.8973   25.8398 C   0  0  0  0  0  0  0  0  0  0  0  0
    8.6682   -3.5371   26.7818 C   0  0  0  0  0  0  0  0  0  0  0  0
    6.9891   -5.4630   26.9126 C   0  0  0  0  0  0  0  0  0  0  0  0
    7.7820   -4.3980   27.7095 C   0  0  1  0  0  0  0  0  0  0  0  0
    6.8945    0.9665   17.4703 N   0  0  0  0  0  0  0  0  0  0  0  0
   10.2619   -1.4563   21.8161 N   0  0  0  0  0  0  0  0  0  0  0  0
    8.9066   -0.5323   20.1897 N   0  0  0  0  0  0  0  0  0  0  0  0
    7.9666   -1.2143   22.2197 O   0  0  0  0  0  0  0  0  0  0  0  0
    6.8534   -3.5294   28.3649 O   0  0  0  0  0  0  0  0  0  0  0  0
   13.5196   -2.1654   24.9378 H   0  0  0  0  0  0  0  0  0  0  0  0
    4.4384    0.4536   19.7512 H   0  0  0  0  0  0  0  0  0  0  0  0
   12.0459   -3.6351   26.2723 H   0  0  0  0  0  0  0  0  0  0  0  0
   12.6937   -1.1400   22.8467 H   0  0  0  0  0  0  0  0  0  0  0  0
    6.3602   -0.4354   21.0508 H   0  0  0  0  0  0  0  0  0  0  0  0
    8.8810   -3.0606   23.4144 H   0  0  0  0  0  0  0  0  0  0  0  0
    4.8660    1.3394   17.4526 H   0  0  0  0  0  0  0  0  0  0  0  0
    8.8864    0.5103   17.7045 H   0  0  0  0  0  0  0  0  0  0  0  0
    5.9153   -6.7450   24.7099 H   0  0  0  0  0  0  0  0  0  0  0  0
    4.6156   -5.5866   24.3793 H   0  0  0  0  0  0  0  0  0  0  0  0
    4.6065   -6.5168   25.8871 H   0  0  0  0  0  0  0  0  0  0  0  0
    7.9772   -5.7117   29.4481 H   0  0  0  0  0  0  0  0  0  0  0  0
    9.1416   -4.3723   29.4134 H   0  0  0  0  0  0  0  0  0  0  0  0
    9.3860   -5.7392   28.3565 H   0  0  0  0  0  0  0  0  0  0  0  0
    8.7897   -4.8629   25.0558 H   0  0  0  0  0  0  0  0  0  0  0  0
   10.0699   -5.1104   26.2284 H   0  0  0  0  0  0  0  0  0  0  0  0
    5.3550   -4.1768   26.2839 H   0  0  0  0  0  0  0  0  0  0  0  0
    6.6246   -4.3698   25.0710 H   0  0  0  0  0  0  0  0  0  0  0  0
    8.0476   -2.7902   26.2698 H   0  0  0  0  0  0  0  0  0  0  0  0
    9.3929   -2.9839   27.3926 H   0  0  0  0  0  0  0  0  0  0  0  0
    7.6887   -6.1679   26.4450 H   0  0  0  0  0  0  0  0  0  0  0  0
    6.3762   -6.0429   27.6159 H   0  0  0  0  0  0  0  0  0  0  0  0
   10.9692   -1.2808   21.0947 H   0  0  0  0  0  0  0  0  0  0  0  0
    9.7943   -0.4852   19.6959 H   0  0  0  0  0  0  0  0  0  0  0  0
    6.3035   -4.0948   28.9265 H   0  0  0  0  0  0  0  0  0  0  0  0
  1  3  2  0  0  0  0
  1  4  1  0  0  0  0
  2  5  2  0  0  0  0
  2  7  1  0  0  0  0
  3  9  1  0  0  0  0
  4 10  2  0  0  0  0
  5 11  1  0  0  0  0
  6  9  2  0  0  0  0
  6 10  1  0  0  0  0
  7 20  2  0  0  0  0
  8 11  2  0  0  0  0
  8 20  1  0  0  0  0
  9 15  1  0  0  0  0
 10 21  1  0  0  0  0
 11 22  1  0  0  0  0
 12 21  1  0  0  0  0
 12 22  1  0  0  0  0
 12 23  2  0  0  0  0
 13 16  1  0  0  0  0
 14 19  1  0  0  0  0
 15 17  1  0  0  0  0
 16 18  1  0  0  0  0
 17 19  1  0  0  0  0
 18 19  1  0  0  0  0
 19 24  1  6  0  0  0
  1 25  1  0  0  0  0
  2 26  1  0  0  0  0
  3 27  1  0  0  0  0
  4 28  1  0  0  0  0
  5 29  1  0  0  0  0
  6 30  1  0  0  0  0
  7 31  1  0  0  0  0
  8 32  1  0  0  0  0
 13 33  1  0  0  0  0
 13 34  1  0  0  0  0
 13 35  1  0  0  0  0
 14 36  1  0  0  0  0
 14 37  1  0  0  0  0
 14 38  1  0  0  0  0
 15 39  1  0  0  0  0
 15 40  1  0  0  0  0
 16 41  1  0  0  0  0
 16 42  1  0  0  0  0
 17 43  1  0  0  0  0
 17 44  1  0  0  0  0
 18 45  1  0  0  0  0
 18 46  1  0  0  0  0
 21 47  1  0  0  0  0
 22 48  1  0  0  0  0
 24 49  1  0  0  0  0
M  END
> <Chemgauss4 Score>
-5.26578187942505

> <Number of Confs>
200

$$$$
GIA-UNK-595-2
  -OEChem-03242005443D

 37 38  0     0  0  0  0  0  0999 V2000
   14.3585   -0.2046   22.7727 C   0  0  0  0  0  0  0  0  0  0  0  0
   14.0625   -1.4220   22.1596 C   0  0  0  0  0  0  0  0  0  0  0  0
   13.3428    0.5387   23.3740 C   0  0  0  0  0  0  0  0  0  0  0  0
   12.7507   -1.8960   22.1476 C   0  0  0  0  0  0  0  0  0  0  0  0
   12.0310    0.0646   23.3621 C   0  0  0  0  0  0  0  0  0  0  0  0
   11.7349   -1.1527   22.7489 C   0  0  0  0  0  0  0  0  0  0  0  0
   10.3545   -1.6517   22.7362 C   0  0  0  0  0  0  0  0  0  0  0  0
    8.2227   -5.4437   27.1207 C   0  0  0  0  0  0  0  0  0  0  0  0
   10.9722   -4.3087   25.0481 C   0  0  0  0  0  0  0  0  0  0  0  0
    8.6247   -4.5172   24.1394 C   0  0  0  0  0  0  0  0  0  0  0  0
   10.8780   -2.7934   24.8655 C   0  0  0  0  0  0  0  0  0  0  0  0
    8.5827   -2.9969   23.9807 C   0  0  0  0  0  0  0  0  0  0  0  0
    9.5924   -4.9435   25.2469 C   0  0  0  0  0  0  0  0  0  0  0  0
    8.1524   -3.6301   28.8257 C   0  0  0  0  0  0  0  0  0  0  0  0
    9.9376   -2.4609   23.7955 N   0  0  0  0  0  0  0  0  0  0  0  0
    7.7774   -4.9308   28.3209 N   0  0  0  0  0  0  0  0  0  0  0  0
    9.6603   -1.3039   21.7822 O   0  0  0  0  0  0  0  0  0  0  0  0
    7.9287   -6.5406   26.6572 O   0  0  0  0  0  0  0  0  0  0  0  0
    9.0538   -4.5442   26.5051 O   0  0  0  0  0  0  0  0  0  0  0  0
   15.3799    0.1645   22.7819 H   0  0  0  0  0  0  0  0  0  0  0  0
   14.8534   -2.0005   21.6912 H   0  0  0  0  0  0  0  0  0  0  0  0
   13.5734    1.4864   23.8517 H   0  0  0  0  0  0  0  0  0  0  0  0
   12.5311   -2.8460   21.6670 H   0  0  0  0  0  0  0  0  0  0  0  0
   11.2476    0.6523   23.8336 H   0  0  0  0  0  0  0  0  0  0  0  0
   11.4641   -4.7617   24.1775 H   0  0  0  0  0  0  0  0  0  0  0  0
   11.6180   -4.5432   25.9061 H   0  0  0  0  0  0  0  0  0  0  0  0
    7.6165   -4.9003   24.3543 H   0  0  0  0  0  0  0  0  0  0  0  0
    8.9209   -4.9840   23.1904 H   0  0  0  0  0  0  0  0  0  0  0  0
   10.5759   -2.3248   25.8075 H   0  0  0  0  0  0  0  0  0  0  0  0
   11.8540   -2.3785   24.5884 H   0  0  0  0  0  0  0  0  0  0  0  0
    7.9981   -2.7219   23.0950 H   0  0  0  0  0  0  0  0  0  0  0  0
    8.0873   -2.5543   24.8481 H   0  0  0  0  0  0  0  0  0  0  0  0
    9.6859   -6.0368   25.2550 H   0  0  0  0  0  0  0  0  0  0  0  0
    9.0625   -3.7219   29.4368 H   0  0  0  0  0  0  0  0  0  0  0  0
    8.3444   -2.9509   27.9820 H   0  0  0  0  0  0  0  0  0  0  0  0
    7.3358   -3.2269   29.4426 H   0  0  0  0  0  0  0  0  0  0  0  0
    7.1504   -5.4995   28.8815 H   0  0  0  0  0  0  0  0  0  0  0  0
  1  2  1  0  0  0  0
  1  3  2  0  0  0  0
  2  4  2  0  0  0  0
  3  5  1  0  0  0  0
  4  6  1  0  0  0  0
  5  6  2  0  0  0  0
  6  7  1  0  0  0  0
  7 15  1  0  0  0  0
  7 17  2  0  0  0  0
  8 16  1  0  0  0  0
  8 18  2  0  0  0  0
  8 19  1  0  0  0  0
  9 11  1  0  0  0  0
  9 13  1  0  0  0  0
 10 12  1  0  0  0  0
 10 13  1  0  0  0  0
 11 15  1  0  0  0  0
 12 15  1  0  0  0  0
 13 19  1  0  0  0  0
 14 16  1  0  0  0  0
  1 20  1  0  0  0  0
  2 21  1  0  0  0  0
  3 22  1  0  0  0  0
  4 23  1  0  0  0  0
  5 24  1  0  0  0  0
  9 25  1  0  0  0  0
  9 26  1  0  0  0  0
 10 27  1  0  0  0  0
 10 28  1  0  0  0  0
 11 29  1  0  0  0  0
 11 30  1  0  0  0  0
 12 31  1  0  0  0  0
 12 32  1  0  0  0  0
 13 33  1  0  0  0  0
 14 34  1  0  0  0  0
 14 35  1  0  0  0  0
 14 36  1  0  0  0  0
 16 37  1  0  0  0  0
M  END
> <Chemgauss4 Score>
-5.26461315155029

> <Number of Confs>
46

$$$$
GIA-UNK-5ec-1
  -OEChem-03242005443D

 32 33  0     0  0  0  0  0  0999 V2000
    8.2729   -4.7576   28.8352 C   0  0  0  0  0  0  0  0  0  0  0  0
    8.3101   -3.4104   28.4758 C   0  0  0  0  0  0  0  0  0  0  0  0
    8.0919   -5.7356   27.8572 C   0  0  0  0  0  0  0  0  0  0  0  0
    8.1662   -3.0410   27.1385 C   0  0  0  0  0  0  0  0  0  0  0  0
    7.9479   -5.3663   26.5198 C   0  0  0  0  0  0  0  0  0  0  0  0
    7.9850   -4.0190   26.1604 C   0  0  0  0  0  0  0  0  0  0  0  0
    7.8345   -3.6328   24.7624 C   0  0  0  0  0  0  0  0  0  0  0  0
   12.0837   -1.0014   22.6001 C   0  0  0  0  0  0  0  0  0  0  0  0
    9.8454   -1.9729   22.2845 C   0  0  0  0  0  0  0  0  0  0  0  0
   11.3158   -2.7070   24.1979 C   0  0  0  0  0  0  0  0  0  0  0  0
    8.9176   -3.1506   22.5784 C   0  0  0  0  0  0  0  0  0  0  0  0
   10.3626   -3.8739   24.4442 C   0  0  0  0  0  0  0  0  0  0  0  0
   11.2734   -2.2762   22.7331 C   0  0  0  0  0  0  0  0  0  0  0  0
    9.0057   -3.5369   23.9888 N   0  0  0  0  0  0  0  0  0  0  0  0
    6.7153   -3.4028   24.3009 O   0  0  0  0  0  0  0  0  0  0  0  0
   11.8229    0.0353   23.1963 O   0  0  0  0  0  0  0  0  0  0  0  0
   13.4534   -1.1216   21.5047 S   0  0  0  0  0  0  0  0  0  0  0  0
    8.3850   -5.0451   29.8765 H   0  0  0  0  0  0  0  0  0  0  0  0
    8.4509   -2.6490   29.2375 H   0  0  0  0  0  0  0  0  0  0  0  0
    8.0632   -6.7846   28.1369 H   0  0  0  0  0  0  0  0  0  0  0  0
    8.1967   -1.9883   26.8695 H   0  0  0  0  0  0  0  0  0  0  0  0
    7.8072   -6.1368   25.7662 H   0  0  0  0  0  0  0  0  0  0  0  0
    9.8451   -1.7898   21.2117 H   0  0  0  0  0  0  0  0  0  0  0  0
    9.4659   -1.0822   22.7779 H   0  0  0  0  0  0  0  0  0  0  0  0
   11.0502   -1.8789   24.8500 H   0  0  0  0  0  0  0  0  0  0  0  0
   12.3277   -3.0221   24.4462 H   0  0  0  0  0  0  0  0  0  0  0  0
    7.8745   -2.8845   22.3749 H   0  0  0  0  0  0  0  0  0  0  0  0
    9.1727   -3.9953   21.9313 H   0  0  0  0  0  0  0  0  0  0  0  0
   10.7428   -4.7666   23.9420 H   0  0  0  0  0  0  0  0  0  0  0  0
   10.2983   -4.1100   25.5121 H   0  0  0  0  0  0  0  0  0  0  0  0
   11.7261   -2.9978   22.1104 H   0  0  0  0  0  0  0  0  0  0  0  0
   13.8885    0.1381   21.6532 H   0  0  0  0  0  0  0  0  0  0  0  0
  1  2  1  0  0  0  0
  1  3  2  0  0  0  0
  2  4  2  0  0  0  0
  3  5  1  0  0  0  0
  4  6  1  0  0  0  0
  5  6  2  0  0  0  0
  6  7  1  0  0  0  0
  7 14  1  0  0  0  0
  7 15  2  0  0  0  0
  8 13  1  0  0  0  0
  8 16  2  0  0  0  0
  8 17  1  0  0  0  0
  9 11  1  0  0  0  0
  9 13  1  0  0  0  0
 10 12  1  0  0  0  0
 10 13  1  0  0  0  0
 11 14  1  0  0  0  0
 12 14  1  0  0  0  0
  1 18  1  0  0  0  0
  2 19  1  0  0  0  0
  3 20  1  0  0  0  0
  4 21  1  0  0  0  0
  5 22  1  0  0  0  0
  9 23  1  0  0  0  0
  9 24  1  0  0  0  0
 10 25  1  0  0  0  0
 10 26  1  0  0  0  0
 11 27  1  0  0  0  0
 11 28  1  0  0  0  0
 12 29  1  0  0  0  0
 12 30  1  0  0  0  0
 13 31  1  0  0  0  0
 17 32  1  0  0  0  0
M  END
> <Chemgauss4 Score>
-5.26096439361572

> <Number of Confs>
29

$$$$
JOH-MEM-5e3-1
  -OEChem-03242005443D

 34 35  0     1  0  0  0  0  0999 V2000
   10.2858   -1.5829   26.3918 C   0  0  0  0  0  0  0  0  0  0  0  0
   10.8896   -0.8728   25.3527 C   0  0  0  0  0  0  0  0  0  0  0  0
   10.6867   -2.7875   23.8532 C   0  0  0  0  0  0  0  0  0  0  0  0
   10.0857   -3.4838   24.8853 C   0  0  0  0  0  0  0  0  0  0  0  0
    9.8984   -2.8812   26.1275 C   0  0  0  0  0  0  0  0  0  0  0  0
   11.0889   -1.4698   24.0943 C   0  0  0  0  0  0  0  0  0  0  0  0
    9.0326   -5.0006   26.3702 C   0  0  0  0  0  0  0  0  0  0  0  0
    6.7899   -2.3211   23.5646 C   0  0  0  0  0  0  0  0  0  0  0  0
    9.5695   -4.8938   24.9296 C   0  0  1  0  0  0  0  0  0  0  0  0
    6.8439   -0.8923   23.9933 C   0  0  0  0  0  0  0  0  0  0  0  0
   11.8594   -1.4106   21.8451 C   0  0  0  0  0  0  0  0  0  0  0  0
    8.4707   -5.1693   23.9174 C   0  0  0  0  0  0  0  0  0  0  0  0
    7.1082   -4.6527   24.3677 C   0  0  0  0  0  0  0  0  0  0  0  0
    9.2814   -3.7742   26.9960 N   0  0  0  0  0  0  0  0  0  0  0  0
    7.1013   -3.2296   24.5647 N   0  0  0  0  0  0  0  0  0  0  0  0
    8.4927   -5.9821   26.8578 O   0  0  0  0  0  0  0  0  0  0  0  0
    6.4866   -2.5943   22.4091 O   0  0  0  0  0  0  0  0  0  0  0  0
   11.6838   -0.7538   23.0984 O   0  0  0  0  0  0  0  0  0  0  0  0
   10.1318   -1.1262   27.3626 H   0  0  0  0  0  0  0  0  0  0  0  0
   11.2084    0.1529   25.5218 H   0  0  0  0  0  0  0  0  0  0  0  0
   10.8443   -3.2495   22.8843 H   0  0  0  0  0  0  0  0  0  0  0  0
   10.4017   -5.5983   24.8214 H   0  0  0  0  0  0  0  0  0  0  0  0
    7.8410   -0.4468   23.8474 H   0  0  0  0  0  0  0  0  0  0  0  0
    6.1532   -0.2545   23.4185 H   0  0  0  0  0  0  0  0  0  0  0  0
    6.5960   -0.7079   25.0508 H   0  0  0  0  0  0  0  0  0  0  0  0
   12.3441   -0.7300   21.1409 H   0  0  0  0  0  0  0  0  0  0  0  0
   10.8865   -1.7219   21.4564 H   0  0  0  0  0  0  0  0  0  0  0  0
   12.4901   -2.2909   21.9904 H   0  0  0  0  0  0  0  0  0  0  0  0
    8.4011   -6.2525   23.7576 H   0  0  0  0  0  0  0  0  0  0  0  0
    8.7425   -4.7182   22.9546 H   0  0  0  0  0  0  0  0  0  0  0  0
    6.3520   -4.8741   23.6079 H   0  0  0  0  0  0  0  0  0  0  0  0
    6.7964   -5.1226   25.3058 H   0  0  0  0  0  0  0  0  0  0  0  0
    9.0427   -3.5641   27.9578 H   0  0  0  0  0  0  0  0  0  0  0  0
    7.3377   -2.8688   25.4885 H   0  0  0  0  0  0  0  0  0  0  0  0
  1  2  2  0  0  0  0
  1  5  1  0  0  0  0
  2  6  1  0  0  0  0
  3  4  1  0  0  0  0
  3  6  2  0  0  0  0
  4  5  2  0  0  0  0
  4  9  1  0  0  0  0
  5 14  1  0  0  0  0
  6 18  1  0  0  0  0
  7  9  1  0  0  0  0
  7 14  1  0  0  0  0
  7 16  2  0  0  0  0
  8 10  1  0  0  0  0
  8 15  1  0  0  0  0
  8 17  2  0  0  0  0
  9 12  1  6  0  0  0
 11 18  1  0  0  0  0
 12 13  1  0  0  0  0
 13 15  1  0  0  0  0
  1 19  1  0  0  0  0
  2 20  1  0  0  0  0
  3 21  1  0  0  0  0
  9 22  1  0  0  0  0
 10 23  1  0  0  0  0
 10 24  1  0  0  0  0
 10 25  1  0  0  0  0
 11 26  1  0  0  0  0
 11 27  1  0  0  0  0
 11 28  1  0  0  0  0
 12 29  1  0  0  0  0
 12 30  1  0  0  0  0
 13 31  1  0  0  0  0
 13 32  1  0  0  0  0
 14 33  1  0  0  0  0
 15 34  1  0  0  0  0
M  END
> <Chemgauss4 Score>
-5.25706958770752

> <Number of Confs>
48

$$$$
ADA-UNI-f8e-11
  -OEChem-03242005443D

 39 40  0     1  0  0  0  0  0999 V2000
   12.6940   -1.3634   22.1339 C   0  0  0  0  0  0  0  0  0  0  0  0
    8.9345   -4.2159   28.2805 C   0  0  0  0  0  0  0  0  0  0  0  0
   11.4234   -1.9152   21.9712 C   0  0  0  0  0  0  0  0  0  0  0  0
    9.0239   -3.3387   27.2054 C   0  0  0  0  0  0  0  0  0  0  0  0
   12.8954   -0.3360   23.0557 C   0  0  0  0  0  0  0  0  0  0  0  0
   10.5553   -0.4122   23.6518 C   0  0  0  0  0  0  0  0  0  0  0  0
    8.6827   -5.5510   28.0090 C   0  0  0  0  0  0  0  0  0  0  0  0
    8.6127   -5.1698   25.7445 C   0  0  0  0  0  0  0  0  0  0  0  0
   10.3540   -1.4396   22.7301 C   0  0  0  0  0  0  0  0  0  0  0  0
    8.8610   -3.8168   25.9099 C   0  0  0  0  0  0  0  0  0  0  0  0
   11.8260    0.1396   23.8146 C   0  0  0  0  0  0  0  0  0  0  0  0
    8.8065   -3.2772   23.4495 C   0  0  0  0  0  0  0  0  0  0  0  0
    6.7034    2.2243   21.3189 C   0  0  0  0  0  0  0  0  0  0  0  0
    7.8363   -1.0247   22.8247 C   0  0  0  0  0  0  0  0  0  0  0  0
    7.8299    0.1827   21.8876 C   0  0  0  0  0  0  0  0  0  0  0  0
    8.9697   -2.0405   22.5513 C   0  0  1  0  0  0  0  0  0  0  0  0
    8.5189   -6.0524   26.7643 N   0  0  0  0  0  0  0  0  0  0  0  0
    8.9462   -2.9485   24.7959 N   0  0  0  0  0  0  0  0  0  0  0  0
    6.7016    1.0822   22.2104 N   0  0  0  0  0  0  0  0  0  0  0  0
    8.5948   -4.3911   22.9784 O   0  0  0  0  0  0  0  0  0  0  0  0
   12.0748    1.4080   24.9508 Cl  0  0  0  0  0  0  0  0  0  0  0  0
   13.5264   -1.7339   21.5427 H   0  0  0  0  0  0  0  0  0  0  0  0
    9.0581   -3.8653   29.2989 H   0  0  0  0  0  0  0  0  0  0  0  0
   11.2756   -2.7154   21.2506 H   0  0  0  0  0  0  0  0  0  0  0  0
    9.2206   -2.2856   27.3882 H   0  0  0  0  0  0  0  0  0  0  0  0
   13.8911    0.0849   23.1717 H   0  0  0  0  0  0  0  0  0  0  0  0
    9.7184   -0.0452   24.2415 H   0  0  0  0  0  0  0  0  0  0  0  0
    8.6029   -6.2753   28.8130 H   0  0  0  0  0  0  0  0  0  0  0  0
    8.4768   -5.6023   24.7577 H   0  0  0  0  0  0  0  0  0  0  0  0
    6.5868    1.8800   20.2807 H   0  0  0  0  0  0  0  0  0  0  0  0
    5.8700    2.8936   21.5789 H   0  0  0  0  0  0  0  0  0  0  0  0
    7.6548    2.7670   21.4204 H   0  0  0  0  0  0  0  0  0  0  0  0
    7.9242   -0.6679   23.8600 H   0  0  0  0  0  0  0  0  0  0  0  0
    6.8584   -1.5183   22.7578 H   0  0  0  0  0  0  0  0  0  0  0  0
    7.7104   -0.1535   20.8522 H   0  0  0  0  0  0  0  0  0  0  0  0
    8.7651    0.7470   21.9478 H   0  0  0  0  0  0  0  0  0  0  0  0
    8.8581   -2.3914   21.5160 H   0  0  0  0  0  0  0  0  0  0  0  0
    9.1311   -1.9693   25.0025 H   0  0  0  0  0  0  0  0  0  0  0  0
    6.8085    1.3872   23.1701 H   0  0  0  0  0  0  0  0  0  0  0  0
  1  3  2  0  0  0  0
  1  5  1  0  0  0  0
  2  4  2  0  0  0  0
  2  7  1  0  0  0  0
  3  9  1  0  0  0  0
  4 10  1  0  0  0  0
  5 11  2  0  0  0  0
  6  9  2  0  0  0  0
  6 11  1  0  0  0  0
  7 17  2  0  0  0  0
  8 10  2  0  0  0  0
  8 17  1  0  0  0  0
  9 16  1  0  0  0  0
 10 18  1  0  0  0  0
 11 21  1  0  0  0  0
 12 16  1  0  0  0  0
 12 18  1  0  0  0  0
 12 20  2  0  0  0  0
 13 19  1  0  0  0  0
 14 15  1  0  0  0  0
 14 16  1  6  0  0  0
 15 19  1  0  0  0  0
  1 22  1  0  0  0  0
  2 23  1  0  0  0  0
  3 24  1  0  0  0  0
  4 25  1  0  0  0  0
  5 26  1  0  0  0  0
  6 27  1  0  0  0  0
  7 28  1  0  0  0  0
  8 29  1  0  0  0  0
 13 30  1  0  0  0  0
 13 31  1  0  0  0  0
 13 32  1  0  0  0  0
 14 33  1  0  0  0  0
 14 34  1  0  0  0  0
 15 35  1  0  0  0  0
 15 36  1  0  0  0  0
 16 37  1  0  0  0  0
 18 38  1  0  0  0  0
 19 39  1  0  0  0  0
M  END
> <Chemgauss4 Score>
-5.25646352767944

> <Number of Confs>
200

$$$$
DAR-DIA-23a-19
  -OEChem-03242005443D

 35 37  0     0  0  0  0  0  0999 V2000
    8.5001    0.1267   20.6773 C   0  0  0  0  0  0  0  0  0  0  0  0
    5.6732   -5.8557   25.5682 C   0  0  0  0  0  0  0  0  0  0  0  0
    6.5234   -5.4888   24.5276 C   0  0  0  0  0  0  0  0  0  0  0  0
   12.1777   -0.2139   21.1413 C   0  0  0  0  0  0  0  0  0  0  0  0
   10.9429    0.2338   20.6720 C   0  0  0  0  0  0  0  0  0  0  0  0
    6.1351   -5.8453   26.8841 C   0  0  0  0  0  0  0  0  0  0  0  0
    7.8394   -5.1098   24.7983 C   0  0  0  0  0  0  0  0  0  0  0  0
   12.2345   -1.2286   22.0968 C   0  0  0  0  0  0  0  0  0  0  0  0
    9.8215   -1.3476   22.1137 C   0  0  0  0  0  0  0  0  0  0  0  0
    7.9717   -5.4372   28.4659 C   0  0  0  0  0  0  0  0  0  0  0  0
   10.0352   -4.7282   27.7488 C   0  0  0  0  0  0  0  0  0  0  0  0
    9.7648   -0.3330   21.1582 C   0  0  0  0  0  0  0  0  0  0  0  0
    7.4574   -5.4656   27.1681 C   0  0  0  0  0  0  0  0  0  0  0  0
    8.3213   -5.0935   26.1174 C   0  0  0  0  0  0  0  0  0  0  0  0
    9.6351   -4.7184   26.4213 C   0  0  0  0  0  0  0  0  0  0  0  0
   11.0563   -1.7954   22.5830 C   0  0  0  0  0  0  0  0  0  0  0  0
   10.1788   -3.1133   24.5421 C   0  0  0  0  0  0  0  0  0  0  0  0
   10.6233   -4.3087   25.3801 C   0  0  0  0  0  0  0  0  0  0  0  0
    7.4730    0.5000   20.2868 N   0  0  0  0  0  0  0  0  0  0  0  0
    9.2370   -5.0782   28.7798 N   0  0  0  0  0  0  0  0  0  0  0  0
   11.1144   -2.8258   23.5514 N   0  0  0  0  0  0  0  0  0  0  0  0
    9.1256   -2.5241   24.7628 O   0  0  0  0  0  0  0  0  0  0  0  0
    4.6498   -6.1500   25.3547 H   0  0  0  0  0  0  0  0  0  0  0  0
    6.1619   -5.4973   23.5033 H   0  0  0  0  0  0  0  0  0  0  0  0
   13.0952    0.2268   20.7621 H   0  0  0  0  0  0  0  0  0  0  0  0
   10.9153    1.0260   19.9277 H   0  0  0  0  0  0  0  0  0  0  0  0
    5.4574   -6.1345   27.6840 H   0  0  0  0  0  0  0  0  0  0  0  0
    8.4736   -4.8303   23.9603 H   0  0  0  0  0  0  0  0  0  0  0  0
   13.2025   -1.5697   22.4553 H   0  0  0  0  0  0  0  0  0  0  0  0
    8.9043   -1.7918   22.4956 H   0  0  0  0  0  0  0  0  0  0  0  0
    7.3596   -5.7121   29.3207 H   0  0  0  0  0  0  0  0  0  0  0  0
   11.0440   -4.4450   28.0343 H   0  0  0  0  0  0  0  0  0  0  0  0
   11.5889   -4.0576   25.8481 H   0  0  0  0  0  0  0  0  0  0  0  0
   10.8273   -5.1494   24.6974 H   0  0  0  0  0  0  0  0  0  0  0  0
   11.9354   -3.4266   23.5203 H   0  0  0  0  0  0  0  0  0  0  0  0
  1 12  1  0  0  0  0
  1 19  3  0  0  0  0
  2  3  1  0  0  0  0
  2  6  2  0  0  0  0
  3  7  2  0  0  0  0
  4  5  2  0  0  0  0
  4  8  1  0  0  0  0
  5 12  1  0  0  0  0
  6 13  1  0  0  0  0
  7 14  1  0  0  0  0
  8 16  2  0  0  0  0
  9 12  2  0  0  0  0
  9 16  1  0  0  0  0
 10 13  2  0  0  0  0
 10 20  1  0  0  0  0
 11 15  1  0  0  0  0
 11 20  2  0  0  0  0
 13 14  1  0  0  0  0
 14 15  2  0  0  0  0
 15 18  1  0  0  0  0
 16 21  1  0  0  0  0
 17 18  1  0  0  0  0
 17 21  1  0  0  0  0
 17 22  2  0  0  0  0
  2 23  1  0  0  0  0
  3 24  1  0  0  0  0
  4 25  1  0  0  0  0
  5 26  1  0  0  0  0
  6 27  1  0  0  0  0
  7 28  1  0  0  0  0
  8 29  1  0  0  0  0
  9 30  1  0  0  0  0
 10 31  1  0  0  0  0
 11 32  1  0  0  0  0
 18 33  1  0  0  0  0
 18 34  1  0  0  0  0
 21 35  1  0  0  0  0
M  END
> <Chemgauss4 Score>
-5.25336980819702

> <Number of Confs>
71

$$$$
NAU-LAT-ec9-2
  -OEChem-03242005443D

 28 30  0     0  0  0  0  0  0999 V2000
   11.3687   -0.7673   24.6777 C   0  0  0  0  0  0  0  0  0  0  0  0
   11.6596   -2.2709   22.8233 C   0  0  0  0  0  0  0  0  0  0  0  0
   10.0016   -2.9428   26.0311 C   0  0  0  0  0  0  0  0  0  0  0  0
    9.3370   -3.7164   23.8108 C   0  0  0  0  0  0  0  0  0  0  0  0
   12.2753    0.0809   24.0625 C   0  0  0  0  0  0  0  0  0  0  0  0
   12.5530   -1.3554   22.2910 C   0  0  0  0  0  0  0  0  0  0  0  0
   11.0603   -1.9636   24.0398 C   0  0  0  0  0  0  0  0  0  0  0  0
   10.1203   -2.8865   24.6402 C   0  0  0  0  0  0  0  0  0  0  0  0
    9.0898   -3.8413   26.5396 C   0  0  0  0  0  0  0  0  0  0  0  0
    8.4183   -4.6204   24.3551 C   0  0  0  0  0  0  0  0  0  0  0  0
    8.3130   -4.6639   25.7296 C   0  0  0  0  0  0  0  0  0  0  0  0
    8.7207   -4.1499   27.9192 C   0  0  0  0  0  0  0  0  0  0  0  0
    7.6501   -5.2354   27.8464 C   0  0  0  0  0  0  0  0  0  0  0  0
    7.5982   -5.4901   23.4693 C   0  0  0  0  0  0  0  0  0  0  0  0
   12.8776   -0.1833   22.8813 N   0  0  0  0  0  0  0  0  0  0  0  0
    7.4740   -5.4763   26.4959 N   0  0  0  0  0  0  0  0  0  0  0  0
    9.1436   -3.6745   28.9446 O   0  0  0  0  0  0  0  0  0  0  0  0
    7.1277   -5.7185   28.8266 O   0  0  0  0  0  0  0  0  0  0  0  0
    7.8416   -5.3049   22.1365 F   0  0  0  0  0  0  0  0  0  0  0  0
    7.7900   -6.8274   23.6804 F   0  0  0  0  0  0  0  0  0  0  0  0
    6.2560   -5.2871   23.6246 F   0  0  0  0  0  0  0  0  0  0  0  0
   10.9225   -0.4931   25.6283 H   0  0  0  0  0  0  0  0  0  0  0  0
   11.4430   -3.1946   22.2963 H   0  0  0  0  0  0  0  0  0  0  0  0
   10.5958   -2.3132   26.6843 H   0  0  0  0  0  0  0  0  0  0  0  0
    9.4454   -3.6553   22.7287 H   0  0  0  0  0  0  0  0  0  0  0  0
   12.5509    1.0254   24.5202 H   0  0  0  0  0  0  0  0  0  0  0  0
   13.0464   -1.5475   21.3440 H   0  0  0  0  0  0  0  0  0  0  0  0
    6.8232   -6.1519   26.1134 H   0  0  0  0  0  0  0  0  0  0  0  0
  1  5  2  0  0  0  0
  1  7  1  0  0  0  0
  2  6  1  0  0  0  0
  2  7  2  0  0  0  0
  3  8  1  0  0  0  0
  3  9  2  0  0  0  0
  4  8  2  0  0  0  0
  4 10  1  0  0  0  0
  5 15  1  0  0  0  0
  6 15  2  0  0  0  0
  7  8  1  0  0  0  0
  9 11  1  0  0  0  0
  9 12  1  0  0  0  0
 10 11  2  0  0  0  0
 10 14  1  0  0  0  0
 11 16  1  0  0  0  0
 12 13  1  0  0  0  0
 12 17  2  0  0  0  0
 13 16  1  0  0  0  0
 13 18  2  0  0  0  0
 14 19  1  0  0  0  0
 14 20  1  0  0  0  0
 14 21  1  0  0  0  0
  1 22  1  0  0  0  0
  2 23  1  0  0  0  0
  3 24  1  0  0  0  0
  4 25  1  0  0  0  0
  5 26  1  0  0  0  0
  6 27  1  0  0  0  0
 16 28  1  0  0  0  0
M  END
> <Chemgauss4 Score>
-5.25276327133179

> <Number of Confs>
1

$$$$
HAR-NEW-972-1
  -OEChem-03242005443D

 45 47  0     1  0  0  0  0  0999 V2000
   10.0144   -2.6890   25.3120 C   0  0  0  0  0  0  0  0  0  0  0  0
   10.7331   -1.6836   24.6202 C   0  0  0  0  0  0  0  0  0  0  0  0
   10.1001   -3.8435   24.5615 C   0  0  0  0  0  0  0  0  0  0  0  0
   11.2367   -2.2623   23.4726 C   0  0  0  0  0  0  0  0  0  0  0  0
    8.3449   -4.7141   28.2958 C   0  0  0  0  0  0  0  0  0  0  0  0
   10.9814   -0.2588   24.9796 C   0  0  0  0  0  0  0  0  0  0  0  0
   12.0363   -1.5836   22.4207 C   0  0  0  0  0  0  0  0  0  0  0  0
   12.5489   -0.2308   22.9520 C   0  0  0  0  0  0  0  0  0  0  0  0
    7.0098   -4.8253   24.8428 C   0  0  0  0  0  0  0  0  0  0  0  0
    8.1841   -5.4260   24.0775 C   0  0  0  0  0  0  0  0  0  0  0  0
    6.9533   -5.3469   26.2735 C   0  0  0  0  0  0  0  0  0  0  0  0
    9.4223   -5.6559   26.2853 C   0  0  0  0  0  0  0  0  0  0  0  0
    9.5231   -5.2315   24.8076 C   0  0  2  0  0  0  0  0  0  0  0  0
   11.4935    0.5613   23.7669 C   0  0  1  0  0  0  0  0  0  0  0  0
    7.0607   -4.4057   29.0236 C   0  0  0  0  0  0  0  0  0  0  0  0
   10.3340    1.0269   22.8796 C   0  0  0  0  0  0  0  0  0  0  0  0
   10.8467   -3.5718   23.4419 N   0  0  0  0  0  0  0  0  0  0  0  0
    8.2277   -5.1580   26.9750 N   0  0  0  0  0  0  0  0  0  0  0  0
   10.7519    2.1277   22.0784 N   0  0  0  0  0  0  0  0  0  0  0  0
    9.4202   -4.5572   28.8803 O   0  0  0  0  0  0  0  0  0  0  0  0
    6.7264   -2.6989   28.7539 Cl  0  0  0  0  0  0  0  0  0  0  0  0
    9.4902   -2.5846   26.2523 H   0  0  0  0  0  0  0  0  0  0  0  0
   10.0410    0.1723   25.3538 H   0  0  0  0  0  0  0  0  0  0  0  0
   11.7104   -0.1981   25.8000 H   0  0  0  0  0  0  0  0  0  0  0  0
   12.8897   -2.2179   22.1544 H   0  0  0  0  0  0  0  0  0  0  0  0
   11.4418   -1.4252   21.5149 H   0  0  0  0  0  0  0  0  0  0  0  0
   13.4491   -0.4067   23.5645 H   0  0  0  0  0  0  0  0  0  0  0  0
   12.8805    0.3884   22.0991 H   0  0  0  0  0  0  0  0  0  0  0  0
    7.0955   -3.7327   24.8511 H   0  0  0  0  0  0  0  0  0  0  0  0
    6.0721   -5.0690   24.3278 H   0  0  0  0  0  0  0  0  0  0  0  0
    7.9995   -6.4998   23.9065 H   0  0  0  0  0  0  0  0  0  0  0  0
    8.2338   -4.9671   23.0744 H   0  0  0  0  0  0  0  0  0  0  0  0
    6.1858   -4.8087   26.8482 H   0  0  0  0  0  0  0  0  0  0  0  0
    6.6647   -6.4061   26.2698 H   0  0  0  0  0  0  0  0  0  0  0  0
    9.4983   -6.7593   26.3544 H   0  0  0  0  0  0  0  0  0  0  0  0
   10.2979   -5.2787   26.8575 H   0  0  0  0  0  0  0  0  0  0  0  0
   10.2587   -5.9519   24.3092 H   0  0  0  0  0  0  0  0  0  0  0  0
   11.9970    1.4688   24.1600 H   0  0  0  0  0  0  0  0  0  0  0  0
    7.2024   -4.5945   30.0816 H   0  0  0  0  0  0  0  0  0  0  0  0
    6.2655   -5.0117   28.6050 H   0  0  0  0  0  0  0  0  0  0  0  0
   10.0478    0.1835   22.2535 H   0  0  0  0  0  0  0  0  0  0  0  0
    9.5198    1.3204   23.5401 H   0  0  0  0  0  0  0  0  0  0  0  0
   11.0741   -4.2353   22.7137 H   0  0  0  0  0  0  0  0  0  0  0  0
   10.1663    2.9251   22.2521 H   0  0  0  0  0  0  0  0  0  0  0  0
   11.7021    2.3718   22.2938 H   0  0  0  0  0  0  0  0  0  0  0  0
  1  2  1  0  0  0  0
  1  3  2  0  0  0  0
  2  4  2  0  0  0  0
  2  6  1  0  0  0  0
  3 13  1  1  0  0  0
  3 17  1  0  0  0  0
  4  7  1  0  0  0  0
  4 17  1  0  0  0  0
  5 15  1  0  0  0  0
  5 18  1  0  0  0  0
  5 20  2  0  0  0  0
  6 14  1  0  0  0  0
  7  8  1  0  0  0  0
  8 14  1  0  0  0  0
  9 10  1  0  0  0  0
  9 11  1  0  0  0  0
 10 13  1  0  0  0  0
 11 18  1  0  0  0  0
 12 13  1  0  0  0  0
 12 18  1  0  0  0  0
 14 16  1  1  0  0  0
 15 21  1  0  0  0  0
 16 19  1  0  0  0  0
  1 22  1  0  0  0  0
  6 23  1  0  0  0  0
  6 24  1  0  0  0  0
  7 25  1  0  0  0  0
  7 26  1  0  0  0  0
  8 27  1  0  0  0  0
  8 28  1  0  0  0  0
  9 29  1  0  0  0  0
  9 30  1  0  0  0  0
 10 31  1  0  0  0  0
 10 32  1  0  0  0  0
 11 33  1  0  0  0  0
 11 34  1  0  0  0  0
 12 35  1  0  0  0  0
 12 36  1  0  0  0  0
 13 37  1  0  0  0  0
 14 38  1  0  0  0  0
 15 39  1  0  0  0  0
 15 40  1  0  0  0  0
 16 41  1  0  0  0  0
 16 42  1  0  0  0  0
 17 43  1  0  0  0  0
 19 44  1  0  0  0  0
 19 45  1  0  0  0  0
M  END
> <Chemgauss4 Score>
-5.24597072601318

> <Number of Confs>
200

$$$$
JOH-MSK-a63-3
  -OEChem-03242005443D

 54 56  0     1  0  0  0  0  0999 V2000
    7.5738   -3.2036   28.5287 C   0  0  0  0  0  0  0  0  0  0  0  0
    8.3899   -2.5784   27.5790 C   0  0  0  0  0  0  0  0  0  0  0  0
    7.1575   -5.4968   29.7001 C   0  0  0  0  0  0  0  0  0  0  0  0
    9.6163   -4.6409   27.1967 C   0  0  0  0  0  0  0  0  0  0  0  0
    7.7950   -6.7066   29.5487 C   0  0  0  0  0  0  0  0  0  0  0  0
    7.7783   -4.5670   28.8197 C   0  0  0  0  0  0  0  0  0  0  0  0
    8.7928   -5.2529   28.1483 C   0  0  0  0  0  0  0  0  0  0  0  0
    9.3948   -3.2879   26.9244 C   0  0  0  0  0  0  0  0  0  0  0  0
   12.1066   -1.2204   22.4421 C   0  0  0  0  0  0  0  0  0  0  0  0
    5.9926   -5.1334   25.2561 C   0  0  0  0  0  0  0  0  0  0  0  0
    9.5644   -4.1267   24.1349 C   0  0  1  0  0  0  0  0  0  0  0  0
    9.8953   -2.3695   22.3692 C   0  0  1  0  0  0  0  0  0  0  0  0
   10.6897   -3.4492   24.9359 C   0  0  1  0  0  0  0  0  0  0  0  0
   10.9707   -1.7407   23.2674 C   0  0  1  0  0  0  0  0  0  0  0  0
    8.8429   -3.1408   23.1926 C   0  0  1  0  0  0  0  0  0  0  0  0
    5.1769   -4.3891   26.2606 C   0  0  0  0  0  0  0  0  0  0  0  0
   11.5468   -0.0719   24.8173 C   0  0  0  0  0  0  0  0  0  0  0  0
    7.8364   -3.8566   22.2832 C   0  0  0  0  0  0  0  0  0  0  0  0
    7.0595   -4.9354   23.0189 C   0  0  0  0  0  0  0  0  0  0  0  0
    8.7800   -6.5494   28.6108 N   0  0  0  0  0  0  0  0  0  0  0  0
    6.2862   -4.4104   24.1100 N   0  0  0  0  0  0  0  0  0  0  0  0
   13.2676   -1.5907   22.5333 O   0  0  0  0  0  0  0  0  0  0  0  0
    6.3396   -6.2846   25.4931 O   0  0  0  0  0  0  0  0  0  0  0  0
   11.5921   -2.7229   24.0943 O   0  0  0  0  0  0  0  0  0  0  0  0
   11.6733   -0.2738   21.5741 O   0  0  0  0  0  0  0  0  0  0  0  0
   10.1345   -5.1858   23.3659 O   0  0  0  0  0  0  0  0  0  0  0  0
    9.2768   -1.3780   21.5537 O   0  0  0  0  0  0  0  0  0  0  0  0
    8.1029   -2.2269   24.0089 O   0  0  0  0  0  0  0  0  0  0  0  0
   10.1787   -2.6513   25.9997 O   0  0  0  0  0  0  0  0  0  0  0  0
   10.5194   -0.6083   23.9940 O   0  0  0  0  0  0  0  0  0  0  0  0
    6.7941   -2.6386   29.0316 H   0  0  0  0  0  0  0  0  0  0  0  0
    8.2315   -1.5262   27.3550 H   0  0  0  0  0  0  0  0  0  0  0  0
    6.3329   -5.3029   30.3723 H   0  0  0  0  0  0  0  0  0  0  0  0
   10.3978   -5.1973   26.6892 H   0  0  0  0  0  0  0  0  0  0  0  0
    7.6357   -7.6640   30.0244 H   0  0  0  0  0  0  0  0  0  0  0  0
    8.8409   -4.5617   24.8366 H   0  0  0  0  0  0  0  0  0  0  0  0
   10.3927   -3.0897   21.6852 H   0  0  0  0  0  0  0  0  0  0  0  0
   11.3072   -4.2455   25.4027 H   0  0  0  0  0  0  0  0  0  0  0  0
    4.0943   -4.5251   26.1071 H   0  0  0  0  0  0  0  0  0  0  0  0
    5.3693   -4.7265   27.2917 H   0  0  0  0  0  0  0  0  0  0  0  0
    5.3322   -3.2985   26.2790 H   0  0  0  0  0  0  0  0  0  0  0  0
   11.1640    0.7960   25.3598 H   0  0  0  0  0  0  0  0  0  0  0  0
   12.3977    0.2194   24.1963 H   0  0  0  0  0  0  0  0  0  0  0  0
   11.8641   -0.8348   25.5321 H   0  0  0  0  0  0  0  0  0  0  0  0
    8.3891   -4.3084   21.4563 H   0  0  0  0  0  0  0  0  0  0  0  0
    7.1565   -3.1121   21.8622 H   0  0  0  0  0  0  0  0  0  0  0  0
    6.3568   -5.4157   22.3308 H   0  0  0  0  0  0  0  0  0  0  0  0
    7.7246   -5.7067   23.4200 H   0  0  0  0  0  0  0  0  0  0  0  0
    9.4073   -7.2792   28.3020 H   0  0  0  0  0  0  0  0  0  0  0  0
    5.9348   -3.4560   24.0377 H   0  0  0  0  0  0  0  0  0  0  0  0
   12.4042    0.0815   21.0247 H   0  0  0  0  0  0  0  0  0  0  0  0
   10.5374   -5.7985   23.9996 H   0  0  0  0  0  0  0  0  0  0  0  0
    9.9811   -0.9872   21.0142 H   0  0  0  0  0  0  0  0  0  0  0  0
    7.4789   -2.7646   24.5170 H   0  0  0  0  0  0  0  0  0  0  0  0
  1  2  2  0  0  0  0
  1  6  1  0  0  0  0
  2  8  1  0  0  0  0
  3  5  2  0  0  0  0
  3  6  1  0  0  0  0
  4  7  1  0  0  0  0
  4  8  2  0  0  0  0
  5 20  1  0  0  0  0
  6  7  2  0  0  0  0
  7 20  1  0  0  0  0
  8 29  1  0  0  0  0
  9 14  1  1  0  0  0
  9 22  2  0  0  0  0
  9 25  1  0  0  0  0
 10 16  1  0  0  0  0
 10 21  1  0  0  0  0
 10 23  2  0  0  0  0
 11 13  1  0  0  0  0
 11 15  1  0  0  0  0
 11 26  1  6  0  0  0
 12 14  1  0  0  0  0
 12 15  1  0  0  0  0
 12 27  1  1  0  0  0
 13 24  1  0  0  0  0
 13 29  1  1  0  0  0
 14 24  1  0  0  0  0
 14 30  1  0  0  0  0
 15 18  1  0  0  0  0
 15 28  1  1  0  0  0
 17 30  1  0  0  0  0
 18 19  1  0  0  0  0
 19 21  1  0  0  0  0
  1 31  1  0  0  0  0
  2 32  1  0  0  0  0
  3 33  1  0  0  0  0
  4 34  1  0  0  0  0
  5 35  1  0  0  0  0
 11 36  1  0  0  0  0
 12 37  1  0  0  0  0
 13 38  1  0  0  0  0
 16 39  1  0  0  0  0
 16 40  1  0  0  0  0
 16 41  1  0  0  0  0
 17 42  1  0  0  0  0
 17 43  1  0  0  0  0
 17 44  1  0  0  0  0
 18 45  1  0  0  0  0
 18 46  1  0  0  0  0
 19 47  1  0  0  0  0
 19 48  1  0  0  0  0
 20 49  1  0  0  0  0
 21 50  1  0  0  0  0
 25 51  1  0  0  0  0
 26 52  1  0  0  0  0
 27 53  1  0  0  0  0
 28 54  1  0  0  0  0
M  END
> <Chemgauss4 Score>
-5.24312162399292

> <Number of Confs>
152

$$$$
KIM-UNI-60f-8
  -OEChem-03242005443D

 40 42  0     1  0  0  0  0  0999 V2000
   12.2497   -0.5644   22.4338 C   0  0  0  0  0  0  0  0  0  0  0  0
   13.1466    0.0551   23.2892 C   0  0  0  0  0  0  0  0  0  0  0  0
   11.8872   -0.4731   25.1366 C   0  0  0  0  0  0  0  0  0  0  0  0
   11.1234   -1.1592   22.9914 C   0  0  0  0  0  0  0  0  0  0  0  0
   10.9311   -1.1171   24.3678 C   0  0  0  0  0  0  0  0  0  0  0  0
    7.4525   -2.8099   26.0580 C   0  0  0  0  0  0  0  0  0  0  0  0
    7.4300   -1.5294   25.6890 C   0  0  0  0  0  0  0  0  0  0  0  0
    8.6454   -3.6307   25.9567 C   0  0  0  0  0  0  0  0  0  0  0  0
    9.7660   -3.0604   25.4410 C   0  0  0  0  0  0  0  0  0  0  0  0
    8.6371   -0.8976   25.1103 C   0  0  0  0  0  0  0  0  0  0  0  0
    7.5608   -5.1514   28.5990 C   0  0  0  0  0  0  0  0  0  0  0  0
   11.0626   -3.8536   25.4424 C   0  0  0  0  0  0  0  0  0  0  0  0
   11.0547   -5.0046   26.4463 C   0  0  0  0  0  0  0  0  0  0  0  0
    9.7860   -5.8299   26.3089 C   0  0  0  0  0  0  0  0  0  0  0  0
   10.1396   -1.8336   22.0924 C   0  0  0  0  0  0  0  0  0  0  0  0
    7.4787   -5.5414   27.1412 C   0  0  0  0  0  0  0  0  0  0  0  0
   12.9938    0.1163   24.6310 N   0  0  0  0  0  0  0  0  0  0  0  0
    9.7803   -1.7189   24.9943 N   0  0  0  0  0  0  0  0  0  0  0  0
    8.6068   -4.9634   26.4116 N   0  0  3  0  0  0  0  0  0  0  0  0
    8.2667   -6.0686   29.3476 N   0  0  0  0  0  0  0  0  0  0  0  0
    8.5398    0.2721   24.7362 O   0  0  0  0  0  0  0  0  0  0  0  0
    7.0927   -4.1131   29.0582 O   0  0  0  0  0  0  0  0  0  0  0  0
   12.4290   -0.5795   21.3642 H   0  0  0  0  0  0  0  0  0  0  0  0
   14.0409    0.5340   22.9042 H   0  0  0  0  0  0  0  0  0  0  0  0
   11.7933   -0.4072   26.2166 H   0  0  0  0  0  0  0  0  0  0  0  0
    6.5428   -3.2342   26.4681 H   0  0  0  0  0  0  0  0  0  0  0  0
    6.5332   -0.9280   25.7842 H   0  0  0  0  0  0  0  0  0  0  0  0
   11.2377   -4.2411   24.4311 H   0  0  0  0  0  0  0  0  0  0  0  0
   11.9124   -3.2096   25.6971 H   0  0  0  0  0  0  0  0  0  0  0  0
   11.9339   -5.6395   26.2881 H   0  0  0  0  0  0  0  0  0  0  0  0
   11.1292   -4.6084   27.4675 H   0  0  0  0  0  0  0  0  0  0  0  0
    9.7680   -6.3468   25.3418 H   0  0  0  0  0  0  0  0  0  0  0  0
    9.7806   -6.5947   27.0944 H   0  0  0  0  0  0  0  0  0  0  0  0
   10.4052   -2.8891   21.9626 H   0  0  0  0  0  0  0  0  0  0  0  0
    9.1239   -1.7765   22.5027 H   0  0  0  0  0  0  0  0  0  0  0  0
   10.1125   -1.3557   21.1053 H   0  0  0  0  0  0  0  0  0  0  0  0
    6.5559   -5.1685   26.6886 H   0  0  0  0  0  0  0  0  0  0  0  0
    7.5255   -6.6300   27.0507 H   0  0  0  0  0  0  0  0  0  0  0  0
    8.6662   -6.8959   28.9171 H   0  0  0  0  0  0  0  0  0  0  0  0
    8.4158   -5.9567   30.3454 H   0  0  0  0  0  0  0  0  0  0  0  0
  1  2  2  0  0  0  0
  1  4  1  0  0  0  0
  2 17  1  0  0  0  0
  3  5  1  0  0  0  0
  3 17  2  0  0  0  0
  4  5  2  0  0  0  0
  4 15  1  0  0  0  0
  5 18  1  0  0  0  0
  6  7  2  0  0  0  0
  6  8  1  0  0  0  0
  7 10  1  0  0  0  0
  8  9  2  0  0  0  0
  8 19  1  0  0  0  0
  9 12  1  0  0  0  0
  9 18  1  0  0  0  0
 10 18  1  0  0  0  0
 10 21  2  0  0  0  0
 11 16  1  0  0  0  0
 11 20  1  0  0  0  0
 11 22  2  0  0  0  0
 12 13  1  0  0  0  0
 13 14  1  0  0  0  0
 14 19  1  0  0  0  0
 16 19  1  1  0  0  0
  1 23  1  0  0  0  0
  2 24  1  0  0  0  0
  3 25  1  0  0  0  0
  6 26  1  0  0  0  0
  7 27  1  0  0  0  0
 12 28  1  0  0  0  0
 12 29  1  0  0  0  0
 13 30  1  0  0  0  0
 13 31  1  0  0  0  0
 14 32  1  0  0  0  0
 14 33  1  0  0  0  0
 15 34  1  0  0  0  0
 15 35  1  0  0  0  0
 15 36  1  0  0  0  0
 16 37  1  0  0  0  0
 16 38  1  0  0  0  0
 20 39  1  0  0  0  0
 20 40  1  0  0  0  0
M  END
> <Chemgauss4 Score>
-5.2406210899353

> <Number of Confs>
21

$$$$
GIA-UNK-995-9
  -OEChem-03242005443D

 37 37  0     1  0  0  0  0  0999 V2000
   10.3947   -1.1029   23.6340 C   0  0  0  0  0  0  0  0  0  0  0  0
    8.5014   -5.2143   25.9945 C   0  0  0  0  0  0  0  0  0  0  0  0
   10.7254   -3.5659   23.7587 C   0  0  0  0  0  0  0  0  0  0  0  0
    8.3900   -2.5942   23.5044 C   0  0  0  0  0  0  0  0  0  0  0  0
   10.4072   -3.8354   25.2284 C   0  0  0  0  0  0  0  0  0  0  0  0
    8.1376   -2.9116   24.9790 C   0  0  0  0  0  0  0  0  0  0  0  0
    9.8768   -2.4337   23.1715 C   0  0  0  0  0  0  0  0  0  0  0  0
    5.8517   -5.7093   24.7230 C   0  0  0  0  0  0  0  0  0  0  0  0
    7.5278   -5.4984   28.2225 C   0  0  0  0  0  0  0  0  0  0  0  0
    6.1548   -6.0376   26.1793 C   0  0  0  0  0  0  0  0  0  0  0  0
   12.6097    0.5023   23.8297 C   0  0  0  0  0  0  0  0  0  0  0  0
    7.2184   -5.1188   26.7811 C   0  0  2  0  0  0  0  0  0  0  0  0
    8.9712   -4.0340   25.4200 N   0  0  0  0  0  0  0  0  0  0  0  0
    9.9684   -0.5291   24.6289 O   0  0  0  0  0  0  0  0  0  0  0  0
    9.0663   -6.3064   25.8932 O   0  0  0  0  0  0  0  0  0  0  0  0
   12.6611   -0.1861   25.0013 F   0  0  0  0  0  0  0  0  0  0  0  0
   11.6738   -0.4463   22.6133 S   0  0  0  0  0  0  0  0  0  0  0  0
   11.7930   -3.3361   23.6577 H   0  0  0  0  0  0  0  0  0  0  0  0
   10.5422   -4.4830   23.1840 H   0  0  0  0  0  0  0  0  0  0  0  0
    7.9776   -3.4094   22.8960 H   0  0  0  0  0  0  0  0  0  0  0  0
    7.8390   -1.6857   23.2329 H   0  0  0  0  0  0  0  0  0  0  0  0
   10.9714   -4.7085   25.5716 H   0  0  0  0  0  0  0  0  0  0  0  0
   10.7096   -2.9880   25.8545 H   0  0  0  0  0  0  0  0  0  0  0  0
    8.3913   -2.0523   25.6103 H   0  0  0  0  0  0  0  0  0  0  0  0
    7.0742   -3.1084   25.1267 H   0  0  0  0  0  0  0  0  0  0  0  0
    9.9973   -2.4349   22.0810 H   0  0  0  0  0  0  0  0  0  0  0  0
    5.5363   -4.6667   24.6138 H   0  0  0  0  0  0  0  0  0  0  0  0
    6.7257   -5.8739   24.0854 H   0  0  0  0  0  0  0  0  0  0  0  0
    5.0426   -6.3477   24.3541 H   0  0  0  0  0  0  0  0  0  0  0  0
    7.8593   -6.5401   28.2837 H   0  0  0  0  0  0  0  0  0  0  0  0
    8.3148   -4.8637   28.6455 H   0  0  0  0  0  0  0  0  0  0  0  0
    6.6412   -5.3880   28.8568 H   0  0  0  0  0  0  0  0  0  0  0  0
    6.4664   -7.0872   26.2487 H   0  0  0  0  0  0  0  0  0  0  0  0
    5.2262   -5.9401   26.7547 H   0  0  0  0  0  0  0  0  0  0  0  0
   12.1291    1.4643   24.0256 H   0  0  0  0  0  0  0  0  0  0  0  0
   13.6359    0.6646   23.4898 H   0  0  0  0  0  0  0  0  0  0  0  0
    6.8900   -4.0764   26.7449 H   0  0  0  0  0  0  0  0  0  0  0  0
  1  7  1  0  0  0  0
  1 14  2  0  0  0  0
  1 17  1  0  0  0  0
  2 12  1  0  0  0  0
  2 13  1  0  0  0  0
  2 15  2  0  0  0  0
  3  5  1  0  0  0  0
  3  7  1  0  0  0  0
  4  6  1  0  0  0  0
  4  7  1  0  0  0  0
  5 13  1  0  0  0  0
  6 13  1  0  0  0  0
  8 10  1  0  0  0  0
  9 12  1  1  0  0  0
 10 12  1  0  0  0  0
 11 16  1  0  0  0  0
 11 17  1  0  0  0  0
  3 18  1  0  0  0  0
  3 19  1  0  0  0  0
  4 20  1  0  0  0  0
  4 21  1  0  0  0  0
  5 22  1  0  0  0  0
  5 23  1  0  0  0  0
  6 24  1  0  0  0  0
  6 25  1  0  0  0  0
  7 26  1  0  0  0  0
  8 27  1  0  0  0  0
  8 28  1  0  0  0  0
  8 29  1  0  0  0  0
  9 30  1  0  0  0  0
  9 31  1  0  0  0  0
  9 32  1  0  0  0  0
 10 33  1  0  0  0  0
 10 34  1  0  0  0  0
 11 35  1  0  0  0  0
 11 36  1  0  0  0  0
 12 37  1  0  0  0  0
M  END
> <Chemgauss4 Score>
-5.23766613006592

> <Number of Confs>
200

$$$$
KIM-UNI-7d1-4
  -OEChem-03242005443D

 40 42  0     1  0  0  0  0  0999 V2000
    6.8531   -6.0445   26.1642 C   0  0  0  0  0  0  0  0  0  0  0  0
    5.9137   -5.7705   25.1713 C   0  0  0  0  0  0  0  0  0  0  0  0
    6.8463   -3.5624   24.9111 C   0  0  0  0  0  0  0  0  0  0  0  0
    7.8197   -3.8336   25.8888 C   0  0  0  0  0  0  0  0  0  0  0  0
    7.7987   -5.0812   26.5521 C   0  0  0  0  0  0  0  0  0  0  0  0
    5.9050   -4.5267   24.5514 C   0  0  0  0  0  0  0  0  0  0  0  0
   12.6622   -0.8417   22.7791 C   0  0  0  0  0  0  0  0  0  0  0  0
   10.0340   -3.4175   27.0273 C   0  0  0  0  0  0  0  0  0  0  0  0
    9.5491   -4.3559   28.1235 C   0  0  0  0  0  0  0  0  0  0  0  0
   10.9155   -0.1856   24.5037 C   0  0  0  0  0  0  0  0  0  0  0  0
   10.5460   -2.1007   23.0004 C   0  0  0  0  0  0  0  0  0  0  0  0
   10.3626   -1.0207   25.6601 C   0  0  0  0  0  0  0  0  0  0  0  0
   10.0065   -2.9005   24.1856 C   0  0  0  0  0  0  0  0  0  0  0  0
    8.8426   -2.7812   26.2930 C   0  0  1  0  0  0  0  0  0  0  0  0
   13.4728    0.3572   23.2027 C   0  0  0  0  0  0  0  0  0  0  0  0
    8.7071   -5.3886   27.5584 N   0  0  0  0  0  0  0  0  0  0  0  0
   11.4529   -1.0427   23.4429 N   0  0  0  0  0  0  0  0  0  0  0  0
    9.3870   -2.0089   25.1769 N   0  0  0  0  0  0  0  0  0  0  0  0
   13.0936   -1.5782   21.8884 O   0  0  0  0  0  0  0  0  0  0  0  0
    4.7320   -4.1737   23.3422 Cl  0  0  0  0  0  0  0  0  0  0  0  0
    6.8460   -7.0241   26.6382 H   0  0  0  0  0  0  0  0  0  0  0  0
    5.1959   -6.5374   24.8944 H   0  0  0  0  0  0  0  0  0  0  0  0
    6.8294   -2.5830   24.4323 H   0  0  0  0  0  0  0  0  0  0  0  0
   10.6506   -2.6301   27.4741 H   0  0  0  0  0  0  0  0  0  0  0  0
   10.6745   -3.9580   26.3252 H   0  0  0  0  0  0  0  0  0  0  0  0
   10.3926   -4.8169   28.6469 H   0  0  0  0  0  0  0  0  0  0  0  0
    8.9771   -3.7933   28.8671 H   0  0  0  0  0  0  0  0  0  0  0  0
   10.1191    0.4196   24.0530 H   0  0  0  0  0  0  0  0  0  0  0  0
   11.6685    0.5054   24.8877 H   0  0  0  0  0  0  0  0  0  0  0  0
   11.0491   -2.7739   22.2986 H   0  0  0  0  0  0  0  0  0  0  0  0
    9.7253   -1.6167   22.4566 H   0  0  0  0  0  0  0  0  0  0  0  0
   11.1911   -1.5113   26.1882 H   0  0  0  0  0  0  0  0  0  0  0  0
    9.8784   -0.3413   26.3720 H   0  0  0  0  0  0  0  0  0  0  0  0
    9.2596   -3.6097   23.8085 H   0  0  0  0  0  0  0  0  0  0  0  0
   10.8179   -3.4881   24.6354 H   0  0  0  0  0  0  0  0  0  0  0  0
    8.3858   -2.0702   26.9939 H   0  0  0  0  0  0  0  0  0  0  0  0
   14.1439    0.0666   24.0041 H   0  0  0  0  0  0  0  0  0  0  0  0
   12.8008    1.1372   23.5461 H   0  0  0  0  0  0  0  0  0  0  0  0
   14.0437    0.7179   22.3532 H   0  0  0  0  0  0  0  0  0  0  0  0
    8.9117   -6.3558   27.7589 H   0  0  0  0  0  0  0  0  0  0  0  0
  1  2  2  0  0  0  0
  1  5  1  0  0  0  0
  2  6  1  0  0  0  0
  3  4  1  0  0  0  0
  3  6  2  0  0  0  0
  4  5  2  0  0  0  0
  4 14  1  0  0  0  0
  5 16  1  0  0  0  0
  6 20  1  0  0  0  0
  7 15  1  0  0  0  0
  7 17  1  0  0  0  0
  7 19  2  0  0  0  0
  8  9  1  0  0  0  0
  8 14  1  0  0  0  0
  9 16  1  0  0  0  0
 10 12  1  0  0  0  0
 10 17  1  0  0  0  0
 11 13  1  0  0  0  0
 11 17  1  0  0  0  0
 12 18  1  0  0  0  0
 13 18  1  0  0  0  0
 14 18  1  1  0  0  0
  1 21  1  0  0  0  0
  2 22  1  0  0  0  0
  3 23  1  0  0  0  0
  8 24  1  0  0  0  0
  8 25  1  0  0  0  0
  9 26  1  0  0  0  0
  9 27  1  0  0  0  0
 10 28  1  0  0  0  0
 10 29  1  0  0  0  0
 11 30  1  0  0  0  0
 11 31  1  0  0  0  0
 12 32  1  0  0  0  0
 12 33  1  0  0  0  0
 13 34  1  0  0  0  0
 13 35  1  0  0  0  0
 14 36  1  0  0  0  0
 15 37  1  0  0  0  0
 15 38  1  0  0  0  0
 15 39  1  0  0  0  0
 16 40  1  0  0  0  0
M  END
> <Chemgauss4 Score>
-5.23730802536011

> <Number of Confs>
7

$$$$
DAR-DIA-23a-18
  -OEChem-03242005443D

 34 36  0     0  0  0  0  0  0999 V2000
    9.6079    1.5032   23.9444 C   0  0  0  0  0  0  0  0  0  0  0  0
   11.5419   -1.2901   22.4235 C   0  0  0  0  0  0  0  0  0  0  0  0
    6.7723   -5.3400   24.3141 C   0  0  0  0  0  0  0  0  0  0  0  0
   10.9666   -0.0337   22.6140 C   0  0  0  0  0  0  0  0  0  0  0  0
    7.9447   -5.2848   25.0555 C   0  0  0  0  0  0  0  0  0  0  0  0
   11.3468   -2.2971   23.3689 C   0  0  0  0  0  0  0  0  0  0  0  0
   10.0013   -0.7912   24.6952 C   0  0  0  0  0  0  0  0  0  0  0  0
    5.6035   -4.9430   24.9338 C   0  0  0  0  0  0  0  0  0  0  0  0
    8.9556   -4.3139   28.4687 C   0  0  0  0  0  0  0  0  0  0  0  0
    6.6897   -4.0205   28.2387 C   0  0  0  0  0  0  0  0  0  0  0  0
   10.1964    0.2157   23.7498 C   0  0  0  0  0  0  0  0  0  0  0  0
    7.9165   -4.8382   26.3836 C   0  0  0  0  0  0  0  0  0  0  0  0
    9.0747   -4.7665   27.1672 C   0  0  0  0  0  0  0  0  0  0  0  0
    6.6762   -4.4558   26.9241 C   0  0  0  0  0  0  0  0  0  0  0  0
   10.5765   -2.0476   24.5047 C   0  0  0  0  0  0  0  0  0  0  0  0
   10.8728   -4.3711   25.4312 C   0  0  0  0  0  0  0  0  0  0  0  0
   10.4242   -5.1548   26.6615 C   0  0  0  0  0  0  0  0  0  0  0  0
    9.1299    2.5488   24.1025 N   0  0  0  0  0  0  0  0  0  0  0  0
    7.7881   -3.9377   29.0266 N   0  0  0  0  0  0  0  0  0  0  0  0
    5.5330   -4.5061   26.2120 N   0  0  0  0  0  0  0  0  0  0  0  0
   10.3777   -3.0699   25.4630 N   0  0  0  0  0  0  0  0  0  0  0  0
   11.5756   -4.8776   24.5624 O   0  0  0  0  0  0  0  0  0  0  0  0
   12.1409   -1.4846   21.5386 H   0  0  0  0  0  0  0  0  0  0  0  0
    6.7750   -5.6826   23.2859 H   0  0  0  0  0  0  0  0  0  0  0  0
   11.1286    0.7409   21.8683 H   0  0  0  0  0  0  0  0  0  0  0  0
    8.8715   -5.5947   24.5794 H   0  0  0  0  0  0  0  0  0  0  0  0
   11.7999   -3.2724   23.2100 H   0  0  0  0  0  0  0  0  0  0  0  0
    9.4014   -0.5999   25.5828 H   0  0  0  0  0  0  0  0  0  0  0  0
    4.6571   -4.9648   24.4033 H   0  0  0  0  0  0  0  0  0  0  0  0
    9.8191   -4.2373   29.1220 H   0  0  0  0  0  0  0  0  0  0  0  0
    5.7697   -3.7082   28.7262 H   0  0  0  0  0  0  0  0  0  0  0  0
   11.1820   -5.0160   27.4497 H   0  0  0  0  0  0  0  0  0  0  0  0
   10.4423   -6.2277   26.4099 H   0  0  0  0  0  0  0  0  0  0  0  0
    9.8064   -2.8256   26.2693 H   0  0  0  0  0  0  0  0  0  0  0  0
  1 11  1  0  0  0  0
  1 18  3  0  0  0  0
  2  4  2  0  0  0  0
  2  6  1  0  0  0  0
  3  5  2  0  0  0  0
  3  8  1  0  0  0  0
  4 11  1  0  0  0  0
  5 12  1  0  0  0  0
  6 15  2  0  0  0  0
  7 11  2  0  0  0  0
  7 15  1  0  0  0  0
  8 20  2  0  0  0  0
  9 13  1  0  0  0  0
  9 19  2  0  0  0  0
 10 14  2  0  0  0  0
 10 19  1  0  0  0  0
 12 13  2  0  0  0  0
 12 14  1  0  0  0  0
 13 17  1  0  0  0  0
 14 20  1  0  0  0  0
 15 21  1  0  0  0  0
 16 17  1  0  0  0  0
 16 21  1  0  0  0  0
 16 22  2  0  0  0  0
  2 23  1  0  0  0  0
  3 24  1  0  0  0  0
  4 25  1  0  0  0  0
  5 26  1  0  0  0  0
  6 27  1  0  0  0  0
  7 28  1  0  0  0  0
  8 29  1  0  0  0  0
  9 30  1  0  0  0  0
 10 31  1  0  0  0  0
 17 32  1  0  0  0  0
 17 33  1  0  0  0  0
 21 34  1  0  0  0  0
M  END
> <Chemgauss4 Score>
-5.23719596862793

> <Number of Confs>
72

$$$$
DAV-AUT-7eb-1
  -OEChem-03242005443D

 40 42  0     1  0  0  0  0  0999 V2000
    8.5996   -2.7151   23.1216 C   0  0  0  0  0  0  0  0  0  0  0  0
    7.3719   -3.3806   23.1127 C   0  0  0  0  0  0  0  0  0  0  0  0
    9.4101   -4.0857   24.9788 C   0  0  0  0  0  0  0  0  0  0  0  0
    8.1924   -4.7342   24.9585 C   0  0  0  0  0  0  0  0  0  0  0  0
    9.6078   -3.0630   24.0450 C   0  0  0  0  0  0  0  0  0  0  0  0
    7.2023   -4.3781   24.0461 C   0  0  0  0  0  0  0  0  0  0  0  0
    7.7105   -5.8404   25.8130 C   0  0  0  0  0  0  0  0  0  0  0  0
   11.0177    0.7126   23.1380 C   0  0  0  0  0  0  0  0  0  0  0  0
   12.3831    0.1566   22.7629 C   0  0  0  0  0  0  0  0  0  0  0  0
   12.4353   -1.3303   22.4187 C   0  0  0  0  0  0  0  0  0  0  0  0
   10.9284   -2.3164   24.0214 C   0  0  2  0  0  0  0  0  0  0  0  0
   10.9818   -1.0544   24.9268 C   0  0  2  0  0  0  0  0  0  0  0  0
   10.4792   -1.2996   26.3539 C   0  0  0  0  0  0  0  0  0  0  0  0
    9.1100    0.6454   24.7012 C   0  0  0  0  0  0  0  0  0  0  0  0
    4.5569   -4.3033   24.9065 C   0  0  0  0  0  0  0  0  0  0  0  0
    6.3825   -6.2278   25.4540 N   0  0  0  0  0  0  0  0  0  0  0  0
   10.3930    0.1195   24.2441 N   0  0  0  0  0  0  0  0  0  0  0  0
    8.4043   -6.3207   26.6965 O   0  0  0  0  0  0  0  0  0  0  0  0
   10.5513    1.6582   22.4985 O   0  0  0  0  0  0  0  0  0  0  0  0
    5.3905   -5.8753   22.9640 O   0  0  0  0  0  0  0  0  0  0  0  0
   11.2150   -2.0177   22.6470 O   0  0  0  0  0  0  0  0  0  0  0  0
    5.7957   -5.3964   24.2691 S   0  0  2  0  0  0  0  0  0  0  0  0
    8.7749   -1.9175   22.4031 H   0  0  0  0  0  0  0  0  0  0  0  0
    6.5970   -3.1166   22.4034 H   0  0  0  0  0  0  0  0  0  0  0  0
   10.1841   -4.3573   25.6882 H   0  0  0  0  0  0  0  0  0  0  0  0
   12.8199    0.7791   21.9631 H   0  0  0  0  0  0  0  0  0  0  0  0
   13.0363    0.3204   23.6426 H   0  0  0  0  0  0  0  0  0  0  0  0
   12.6458   -1.4266   21.3385 H   0  0  0  0  0  0  0  0  0  0  0  0
   13.2710   -1.8429   22.9349 H   0  0  0  0  0  0  0  0  0  0  0  0
   11.6887   -3.0647   24.3792 H   0  0  0  0  0  0  0  0  0  0  0  0
   12.0611   -0.8252   25.0266 H   0  0  0  0  0  0  0  0  0  0  0  0
    9.4176   -1.5321   26.3308 H   0  0  0  0  0  0  0  0  0  0  0  0
   10.6403   -0.4081   26.9544 H   0  0  0  0  0  0  0  0  0  0  0  0
   11.0218   -2.1332   26.7924 H   0  0  0  0  0  0  0  0  0  0  0  0
    8.2929    0.1204   24.1846 H   0  0  0  0  0  0  0  0  0  0  0  0
    9.0164    0.4913   25.7864 H   0  0  0  0  0  0  0  0  0  0  0  0
    9.0539    1.7209   24.4774 H   0  0  0  0  0  0  0  0  0  0  0  0
    3.6432   -4.8767   25.0709 H   0  0  0  0  0  0  0  0  0  0  0  0
    4.9189   -3.8831   25.8461 H   0  0  0  0  0  0  0  0  0  0  0  0
    4.3857   -3.5127   24.1745 H   0  0  0  0  0  0  0  0  0  0  0  0
  1  2  2  0  0  0  0
  1  5  1  0  0  0  0
  2  6  1  0  0  0  0
  3  4  1  0  0  0  0
  3  5  2  0  0  0  0
  4  6  2  0  0  0  0
  4  7  1  0  0  0  0
  5 11  1  0  0  0  0
  6 22  1  0  0  0  0
  7 16  1  0  0  0  0
  7 18  2  0  0  0  0
  8  9  1  0  0  0  0
  8 17  1  0  0  0  0
  8 19  2  0  0  0  0
  9 10  1  0  0  0  0
 10 21  1  0  0  0  0
 11 12  1  0  0  0  0
 11 21  1  0  0  0  0
 12 13  1  0  0  0  0
 12 17  1  0  0  0  0
 14 17  1  0  0  0  0
 15 22  1  1  0  0  0
 16 22  2  0  0  0  0
 20 22  2  0  0  0  0
  1 23  1  0  0  0  0
  2 24  1  0  0  0  0
  3 25  1  0  0  0  0
  9 26  1  0  0  0  0
  9 27  1  0  0  0  0
 10 28  1  0  0  0  0
 10 29  1  0  0  0  0
 11 30  1  6  0  0  0
 12 31  1  1  0  0  0
 13 32  1  0  0  0  0
 13 33  1  0  0  0  0
 13 34  1  0  0  0  0
 14 35  1  0  0  0  0
 14 36  1  0  0  0  0
 14 37  1  0  0  0  0
 15 38  1  0  0  0  0
 15 39  1  0  0  0  0
 15 40  1  0  0  0  0
M  END
> <Chemgauss4 Score>
-5.23469018936157

> <Number of Confs>
6

$$$$
CHR-SOS-709-11
  -OEChem-03242005443D

 26 27  0     0  0  0  0  0  0999 V2000
   12.0484   -1.2115   22.7781 C   0  0  0  0  0  0  0  0  0  0  0  0
   11.1749   -2.1362   23.3394 C   0  0  0  0  0  0  0  0  0  0  0  0
    7.5168   -5.6078   27.5996 C   0  0  0  0  0  0  0  0  0  0  0  0
    6.3219   -6.0178   27.0084 C   0  0  0  0  0  0  0  0  0  0  0  0
    7.0625   -5.1218   24.8904 C   0  0  0  0  0  0  0  0  0  0  0  0
   12.1911    0.0130   23.4107 C   0  0  0  0  0  0  0  0  0  0  0  0
   10.6935   -0.5615   25.0555 C   0  0  0  0  0  0  0  0  0  0  0  0
    8.2574   -4.7117   25.4817 C   0  0  0  0  0  0  0  0  0  0  0  0
   10.4805   -1.8128   24.4998 C   0  0  0  0  0  0  0  0  0  0  0  0
    8.4846   -4.9547   26.8363 C   0  0  0  0  0  0  0  0  0  0  0  0
    6.0947   -5.7749   25.6537 C   0  0  0  0  0  0  0  0  0  0  0  0
    9.2537   -4.0293   24.6677 C   0  0  0  0  0  0  0  0  0  0  0  0
   11.5338    0.3630   24.5390 N   0  0  0  0  0  0  0  0  0  0  0  0
    9.5828   -2.7345   25.0953 N   0  0  0  0  0  0  0  0  0  0  0  0
    9.7371   -4.5552   23.6568 O   0  0  0  0  0  0  0  0  0  0  0  0
    9.6447   -4.5598   27.4328 O   0  0  0  0  0  0  0  0  0  0  0  0
    4.6213   -6.2827   24.9237 Cl  0  0  0  0  0  0  0  0  0  0  0  0
   12.6001   -1.4420   21.8739 H   0  0  0  0  0  0  0  0  0  0  0  0
   11.0428   -3.1050   22.8648 H   0  0  0  0  0  0  0  0  0  0  0  0
    7.6880   -5.7993   28.6555 H   0  0  0  0  0  0  0  0  0  0  0  0
    5.5776   -6.5268   27.6152 H   0  0  0  0  0  0  0  0  0  0  0  0
    6.8870   -4.9304   23.8338 H   0  0  0  0  0  0  0  0  0  0  0  0
   12.8596    0.7689   23.0121 H   0  0  0  0  0  0  0  0  0  0  0  0
   10.1806   -0.2513   25.9611 H   0  0  0  0  0  0  0  0  0  0  0  0
    9.1176   -2.4159   25.9417 H   0  0  0  0  0  0  0  0  0  0  0  0
   10.2207   -4.1219   26.7869 H   0  0  0  0  0  0  0  0  0  0  0  0
  1  2  2  0  0  0  0
  1  6  1  0  0  0  0
  2  9  1  0  0  0  0
  3  4  2  0  0  0  0
  3 10  1  0  0  0  0
  4 11  1  0  0  0  0
  5  8  1  0  0  0  0
  5 11  2  0  0  0  0
  6 13  2  0  0  0  0
  7  9  2  0  0  0  0
  7 13  1  0  0  0  0
  8 10  2  0  0  0  0
  8 12  1  0  0  0  0
  9 14  1  0  0  0  0
 10 16  1  0  0  0  0
 11 17  1  0  0  0  0
 12 14  1  0  0  0  0
 12 15  2  0  0  0  0
  1 18  1  0  0  0  0
  2 19  1  0  0  0  0
  3 20  1  0  0  0  0
  4 21  1  0  0  0  0
  5 22  1  0  0  0  0
  6 23  1  0  0  0  0
  7 24  1  0  0  0  0
 14 25  1  0  0  0  0
 16 26  1  0  0  0  0
M  END
> <Chemgauss4 Score>
-5.2307300567627

> <Number of Confs>
10

$$$$
DAV-AUT-fa2-4
  -OEChem-03242005443D

 45 47  0     1  0  0  0  0  0999 V2000
    6.6333   -3.8354   23.3889 C   0  0  0  0  0  0  0  0  0  0  0  0
    6.1212   -2.9255   22.4689 C   0  0  0  0  0  0  0  0  0  0  0  0
    8.2144   -1.7365   22.5168 C   0  0  0  0  0  0  0  0  0  0  0  0
    7.9382   -3.6991   23.9047 C   0  0  0  0  0  0  0  0  0  0  0  0
    8.7729   -2.6473   23.4399 C   0  0  0  0  0  0  0  0  0  0  0  0
    6.9092   -1.8703   22.0392 C   0  0  0  0  0  0  0  0  0  0  0  0
   12.1736   -2.0803   22.6850 C   0  0  0  0  0  0  0  0  0  0  0  0
   11.4003   -0.5387   24.5086 C   0  0  0  0  0  0  0  0  0  0  0  0
   10.7031   -3.6251   24.6078 C   0  0  0  0  0  0  0  0  0  0  0  0
   13.1497   -0.9865   22.2711 C   0  0  0  0  0  0  0  0  0  0  0  0
   12.4185    0.4695   23.9914 C   0  0  0  0  0  0  0  0  0  0  0  0
    8.4569   -4.7219   24.9086 C   0  0  1  0  0  0  0  0  0  0  0  0
   10.9558   -1.4794   23.3877 C   0  0  0  0  0  0  0  0  0  0  0  0
    9.7255   -4.2200   25.5954 C   0  0  0  0  0  0  0  0  0  0  0  0
    7.4371   -5.1332   25.9796 C   0  0  0  0  0  0  0  0  0  0  0  0
    7.5809    0.4625   20.6149 C   0  0  0  0  0  0  0  0  0  0  0  0
    6.0615   -1.4755   19.5685 N   0  0  0  0  0  0  0  0  0  0  0  0
   10.0883   -2.5152   23.8906 N   0  0  1  0  0  0  0  0  0  0  0  0
    5.2338    0.0559   21.5850 O   0  0  0  0  0  0  0  0  0  0  0  0
   13.5322   -0.1963   23.3967 O   0  0  0  0  0  0  0  0  0  0  0  0
    9.4213   -3.2909   26.5379 F   0  0  0  0  0  0  0  0  0  0  0  0
   10.3275   -5.2479   26.2474 F   0  0  0  0  0  0  0  0  0  0  0  0
    6.2717   -0.7106   20.9007 S   0  0  1  0  0  0  0  0  0  0  0  0
    6.0045   -4.6660   23.7109 H   0  0  0  0  0  0  0  0  0  0  0  0
    5.1074   -3.0532   22.0978 H   0  0  0  0  0  0  0  0  0  0  0  0
    8.8013   -0.8959   22.1514 H   0  0  0  0  0  0  0  0  0  0  0  0
   11.8241   -2.5928   21.7835 H   0  0  0  0  0  0  0  0  0  0  0  0
   12.6692   -2.8236   23.3129 H   0  0  0  0  0  0  0  0  0  0  0  0
   11.8009   -1.0924   25.3588 H   0  0  0  0  0  0  0  0  0  0  0  0
   10.5196    0.0076   24.8569 H   0  0  0  0  0  0  0  0  0  0  0  0
   11.6127   -3.2873   25.1106 H   0  0  0  0  0  0  0  0  0  0  0  0
   10.9997   -4.4071   23.9027 H   0  0  0  0  0  0  0  0  0  0  0  0
   14.0456   -1.4005   21.7931 H   0  0  0  0  0  0  0  0  0  0  0  0
   12.6718   -0.3194   21.5458 H   0  0  0  0  0  0  0  0  0  0  0  0
   11.9593    1.0989   23.2227 H   0  0  0  0  0  0  0  0  0  0  0  0
   12.7730    1.1319   24.7893 H   0  0  0  0  0  0  0  0  0  0  0  0
    8.7565   -5.6448   24.3611 H   0  0  0  0  0  0  0  0  0  0  0  0
   10.3766   -0.8905   22.6433 H   0  0  0  0  0  0  0  0  0  0  0  0
    7.1200   -4.2553   26.5369 H   0  0  0  0  0  0  0  0  0  0  0  0
    7.8925   -5.8475   26.6608 H   0  0  0  0  0  0  0  0  0  0  0  0
    6.5728   -5.5894   25.5033 H   0  0  0  0  0  0  0  0  0  0  0  0
    7.2243    1.2103   19.9048 H   0  0  0  0  0  0  0  0  0  0  0  0
    7.8378    0.9305   21.5664 H   0  0  0  0  0  0  0  0  0  0  0  0
    8.4399   -0.0728   20.2074 H   0  0  0  0  0  0  0  0  0  0  0  0
    5.6860   -0.8921   18.8149 H   0  0  0  0  0  0  0  0  0  0  0  0
  1  2  2  0  0  0  0
  1  4  1  0  0  0  0
  2  6  1  0  0  0  0
  3  5  1  0  0  0  0
  3  6  2  0  0  0  0
  4  5  2  0  0  0  0
  4 12  1  0  0  0  0
  5 18  1  0  0  0  0
  6 23  1  0  0  0  0
  7 10  1  0  0  0  0
  7 13  1  0  0  0  0
  8 11  1  0  0  0  0
  8 13  1  0  0  0  0
  9 14  1  0  0  0  0
  9 18  1  0  0  0  0
 10 20  1  0  0  0  0
 11 20  1  0  0  0  0
 12 14  1  0  0  0  0
 12 15  1  0  0  0  0
 13 18  1  6  0  0  0
 14 21  1  0  0  0  0
 14 22  1  0  0  0  0
 16 23  1  6  0  0  0
 17 23  2  0  0  0  0
 19 23  2  0  0  0  0
  1 24  1  0  0  0  0
  2 25  1  0  0  0  0
  3 26  1  0  0  0  0
  7 27  1  0  0  0  0
  7 28  1  0  0  0  0
  8 29  1  0  0  0  0
  8 30  1  0  0  0  0
  9 31  1  0  0  0  0
  9 32  1  0  0  0  0
 10 33  1  0  0  0  0
 10 34  1  0  0  0  0
 11 35  1  0  0  0  0
 11 36  1  0  0  0  0
 12 37  1  1  0  0  0
 13 38  1  0  0  0  0
 15 39  1  0  0  0  0
 15 40  1  0  0  0  0
 15 41  1  0  0  0  0
 16 42  1  0  0  0  0
 16 43  1  0  0  0  0
 16 44  1  0  0  0  0
 17 45  1  0  0  0  0
M  END
> <Chemgauss4 Score>
-5.22739696502686

> <Number of Confs>
13

$$$$
DAR-DIA-23a-11
  -OEChem-03242005443D

 32 34  0     0  0  0  0  0  0999 V2000
   10.8039    2.1790   23.0676 C   0  0  0  0  0  0  0  0  0  0  0  0
   13.2314   -0.0417   21.3265 C   0  0  0  0  0  0  0  0  0  0  0  0
    8.3635   -3.2784   28.5542 C   0  0  0  0  0  0  0  0  0  0  0  0
   12.5393    1.1026   21.7230 C   0  0  0  0  0  0  0  0  0  0  0  0
    9.0995   -3.3365   27.3721 C   0  0  0  0  0  0  0  0  0  0  0  0
   12.8960   -1.2825   21.8685 C   0  0  0  0  0  0  0  0  0  0  0  0
   11.1766   -0.2346   23.2036 C   0  0  0  0  0  0  0  0  0  0  0  0
    7.6733   -4.4100   28.9675 C   0  0  0  0  0  0  0  0  0  0  0  0
    9.3069   -6.3320   25.2926 C   0  0  0  0  0  0  0  0  0  0  0  0
   11.5120    1.0062   22.6615 C   0  0  0  0  0  0  0  0  0  0  0  0
    9.1014   -4.5467   26.6597 C   0  0  0  0  0  0  0  0  0  0  0  0
   11.8686   -1.3789   22.8071 C   0  0  0  0  0  0  0  0  0  0  0  0
    9.6935   -5.0195   25.4588 C   0  0  0  0  0  0  0  0  0  0  0  0
    8.3651   -5.6026   27.1891 C   0  0  0  0  0  0  0  0  0  0  0  0
   10.5326   -2.9270   24.3028 C   0  0  0  0  0  0  0  0  0  0  0  0
   10.2287    3.1315   23.3974 N   0  0  0  0  0  0  0  0  0  0  0  0
    7.6391   -5.5995   28.3230 N   0  0  0  0  0  0  0  0  0  0  0  0
    8.5013   -6.6749   26.3473 N   0  0  0  0  0  0  0  0  0  0  0  0
   11.5279   -2.6378   23.3556 N   0  0  0  0  0  0  0  0  0  0  0  0
   10.5089   -4.3247   24.5943 N   0  0  0  0  0  0  0  0  0  0  0  0
    9.7813   -2.1041   24.8163 O   0  0  0  0  0  0  0  0  0  0  0  0
   14.0308    0.0332   20.5950 H   0  0  0  0  0  0  0  0  0  0  0  0
    8.3315   -2.3655   29.1397 H   0  0  0  0  0  0  0  0  0  0  0  0
   12.8131    2.0625   21.2919 H   0  0  0  0  0  0  0  0  0  0  0  0
    9.6501   -2.4698   27.0210 H   0  0  0  0  0  0  0  0  0  0  0  0
   13.4421   -2.1676   21.5520 H   0  0  0  0  0  0  0  0  0  0  0  0
   10.3759   -0.3134   23.9365 H   0  0  0  0  0  0  0  0  0  0  0  0
    7.0944   -4.3823   29.8870 H   0  0  0  0  0  0  0  0  0  0  0  0
    9.5307   -7.0545   24.5195 H   0  0  0  0  0  0  0  0  0  0  0  0
    8.0729   -7.5799   26.4842 H   0  0  0  0  0  0  0  0  0  0  0  0
   12.0706   -3.4308   23.0230 H   0  0  0  0  0  0  0  0  0  0  0  0
   11.2154   -4.8651   24.0671 H   0  0  0  0  0  0  0  0  0  0  0  0
  1 10  1  0  0  0  0
  1 16  3  0  0  0  0
  2  4  2  0  0  0  0
  2  6  1  0  0  0  0
  3  5  2  0  0  0  0
  3  8  1  0  0  0  0
  4 10  1  0  0  0  0
  5 11  1  0  0  0  0
  6 12  2  0  0  0  0
  7 10  2  0  0  0  0
  7 12  1  0  0  0  0
  8 17  2  0  0  0  0
  9 13  2  0  0  0  0
  9 18  1  0  0  0  0
 11 13  1  0  0  0  0
 11 14  2  0  0  0  0
 12 19  1  0  0  0  0
 13 20  1  0  0  0  0
 14 17  1  0  0  0  0
 14 18  1  0  0  0  0
 15 19  1  0  0  0  0
 15 20  1  0  0  0  0
 15 21  2  0  0  0  0
  2 22  1  0  0  0  0
  3 23  1  0  0  0  0
  4 24  1  0  0  0  0
  5 25  1  0  0  0  0
  6 26  1  0  0  0  0
  7 27  1  0  0  0  0
  8 28  1  0  0  0  0
  9 29  1  0  0  0  0
 18 30  1  0  0  0  0
 19 31  1  0  0  0  0
 20 32  1  0  0  0  0
M  END
> <Chemgauss4 Score>
-5.22562980651855

> <Number of Confs>
10

$$$$
KIM-UNI-60f-2
  -OEChem-03242005443D

 26 27  0     0  0  0  0  0  0999 V2000
   11.5779   -0.9695   23.9976 C   0  0  0  0  0  0  0  0  0  0  0  0
   11.8688   -1.6756   22.8415 C   0  0  0  0  0  0  0  0  0  0  0  0
   10.7276   -3.5282   23.5790 C   0  0  0  0  0  0  0  0  0  0  0  0
   10.8206   -1.6051   24.9752 C   0  0  0  0  0  0  0  0  0  0  0  0
   10.3834   -2.9090   24.7697 C   0  0  0  0  0  0  0  0  0  0  0  0
    8.3390   -3.0655   26.1304 C   0  0  0  0  0  0  0  0  0  0  0  0
   10.1238   -4.8174   26.3075 C   0  0  0  0  0  0  0  0  0  0  0  0
    7.7120   -3.7298   27.3335 C   0  0  0  0  0  0  0  0  0  0  0  0
    7.8337   -5.2243   27.1851 C   0  0  0  0  0  0  0  0  0  0  0  0
   10.4927   -0.8675   26.2319 C   0  0  0  0  0  0  0  0  0  0  0  0
   11.4618   -2.9431   22.6061 N   0  0  0  0  0  0  0  0  0  0  0  0
    9.2247   -5.5720   27.0489 N   0  0  0  0  0  0  0  0  0  0  0  0
    9.5923   -3.6142   25.7562 N   0  0  0  0  0  0  0  0  0  0  0  0
    7.7492   -2.1412   25.5700 O   0  0  0  0  0  0  0  0  0  0  0  0
   11.2992   -5.1818   26.2117 O   0  0  0  0  0  0  0  0  0  0  0  0
   11.9344    0.0467   24.1271 H   0  0  0  0  0  0  0  0  0  0  0  0
   12.4565   -1.2249   22.0485 H   0  0  0  0  0  0  0  0  0  0  0  0
   10.4157   -4.5452   23.3601 H   0  0  0  0  0  0  0  0  0  0  0  0
    8.2377   -3.3998   28.2356 H   0  0  0  0  0  0  0  0  0  0  0  0
    6.6662   -3.4120   27.4098 H   0  0  0  0  0  0  0  0  0  0  0  0
    7.4458   -5.7500   28.0644 H   0  0  0  0  0  0  0  0  0  0  0  0
    7.3034   -5.5811   26.2974 H   0  0  0  0  0  0  0  0  0  0  0  0
    9.5487   -0.3225   26.1170 H   0  0  0  0  0  0  0  0  0  0  0  0
   10.3986   -1.5547   27.0817 H   0  0  0  0  0  0  0  0  0  0  0  0
   11.2821   -0.1498   26.4875 H   0  0  0  0  0  0  0  0  0  0  0  0
    9.5633   -6.4072   27.5165 H   0  0  0  0  0  0  0  0  0  0  0  0
  1  2  2  0  0  0  0
  1  4  1  0  0  0  0
  2 11  1  0  0  0  0
  3  5  1  0  0  0  0
  3 11  2  0  0  0  0
  4  5  2  0  0  0  0
  4 10  1  0  0  0  0
  5 13  1  0  0  0  0
  6  8  1  0  0  0  0
  6 13  1  0  0  0  0
  6 14  2  0  0  0  0
  7 12  1  0  0  0  0
  7 13  1  0  0  0  0
  7 15  2  0  0  0  0
  8  9  1  0  0  0  0
  9 12  1  0  0  0  0
  1 16  1  0  0  0  0
  2 17  1  0  0  0  0
  3 18  1  0  0  0  0
  8 19  1  0  0  0  0
  8 20  1  0  0  0  0
  9 21  1  0  0  0  0
  9 22  1  0  0  0  0
 10 23  1  0  0  0  0
 10 24  1  0  0  0  0
 10 25  1  0  0  0  0
 12 26  1  0  0  0  0
M  END
> <Chemgauss4 Score>
-5.225182056427

> <Number of Confs>
4

$$$$
DUN-NEW-f8c-2
  -OEChem-03242005443D

 50 52  0     1  0  0  0  0  0999 V2000
    5.2846   -5.3060   22.5032 C   0  0  0  0  0  0  0  0  0  0  0  0
    5.4850   -6.3207   23.4391 C   0  0  0  0  0  0  0  0  0  0  0  0
    5.8228   -4.0380   22.7232 C   0  0  0  0  0  0  0  0  0  0  0  0
    6.2236   -6.0674   24.5950 C   0  0  0  0  0  0  0  0  0  0  0  0
    6.5614   -3.7848   23.8791 C   0  0  0  0  0  0  0  0  0  0  0  0
    6.7618   -4.7995   24.8150 C   0  0  0  0  0  0  0  0  0  0  0  0
    9.7672   -5.1993   25.3853 C   0  0  0  0  0  0  0  0  0  0  0  0
   12.3522   -0.6711   23.4659 C   0  0  0  0  0  0  0  0  0  0  0  0
    7.8327   -4.0080   28.2207 C   0  0  0  0  0  0  0  0  0  0  0  0
    9.1040   -4.6553   27.6976 C   0  0  0  0  0  0  0  0  0  0  0  0
    7.1104   -3.5621   26.9553 C   0  0  0  0  0  0  0  0  0  0  0  0
   10.7358   -2.5742   22.9950 C   0  0  0  0  0  0  0  0  0  0  0  0
   10.5838   -1.2783   25.0835 C   0  0  0  0  0  0  0  0  0  0  0  0
    9.2113   -2.5186   22.8807 C   0  0  0  0  0  0  0  0  0  0  0  0
    9.0640   -1.2422   24.9262 C   0  0  0  0  0  0  0  0  0  0  0  0
    8.6681   -5.3266   26.3913 C   0  0  1  0  0  0  0  0  0  0  0  0
    7.1289   -2.4109   24.0900 C   0  0  0  0  0  0  0  0  0  0  0  0
   13.0653   -1.0123   22.1819 C   0  0  0  0  0  0  0  0  0  0  0  0
    7.4903   -4.5666   25.9648 N   0  0  3  0  0  0  0  0  0  0  0  0
   11.2469   -1.4555   23.7925 N   0  0  0  0  0  0  0  0  0  0  0  0
    8.5862   -2.4332   24.2088 N   0  0  0  0  0  0  0  0  0  0  0  0
    9.4691   -5.7579   24.1648 N   0  0  0  0  0  0  0  0  0  0  0  0
   10.8245   -4.6288   25.6421 O   0  0  0  0  0  0  0  0  0  0  0  0
   12.7634    0.2663   24.1544 O   0  0  0  0  0  0  0  0  0  0  0  0
   14.3776    0.1479   22.0109 Cl  0  0  0  0  0  0  0  0  0  0  0  0
    4.7095   -5.5033   21.6033 H   0  0  0  0  0  0  0  0  0  0  0  0
    5.0660   -7.3079   23.2676 H   0  0  0  0  0  0  0  0  0  0  0  0
    5.6609   -3.2543   21.9878 H   0  0  0  0  0  0  0  0  0  0  0  0
    6.3732   -6.8660   25.3172 H   0  0  0  0  0  0  0  0  0  0  0  0
    7.2328   -4.6980   28.8215 H   0  0  0  0  0  0  0  0  0  0  0  0
    8.0767   -3.1377   28.8415 H   0  0  0  0  0  0  0  0  0  0  0  0
    9.9044   -3.9200   27.5610 H   0  0  0  0  0  0  0  0  0  0  0  0
    9.4511   -5.4164   28.4082 H   0  0  0  0  0  0  0  0  0  0  0  0
    6.0247   -3.5693   27.1185 H   0  0  0  0  0  0  0  0  0  0  0  0
    7.4113   -2.5557   26.6425 H   0  0  0  0  0  0  0  0  0  0  0  0
   11.0488   -3.4963   23.5003 H   0  0  0  0  0  0  0  0  0  0  0  0
   11.1706   -2.5907   21.9937 H   0  0  0  0  0  0  0  0  0  0  0  0
   10.9267   -0.3607   25.5726 H   0  0  0  0  0  0  0  0  0  0  0  0
   10.8854   -2.1194   25.7200 H   0  0  0  0  0  0  0  0  0  0  0  0
    8.9206   -1.6654   22.2533 H   0  0  0  0  0  0  0  0  0  0  0  0
    8.8728   -3.4288   22.3711 H   0  0  0  0  0  0  0  0  0  0  0  0
    8.6170   -1.2094   25.9271 H   0  0  0  0  0  0  0  0  0  0  0  0
    8.7679   -0.3220   24.4052 H   0  0  0  0  0  0  0  0  0  0  0  0
    8.4768   -6.3949   26.5610 H   0  0  0  0  0  0  0  0  0  0  0  0
    6.8687   -1.7531   23.2536 H   0  0  0  0  0  0  0  0  0  0  0  0
    6.7258   -1.9547   25.0002 H   0  0  0  0  0  0  0  0  0  0  0  0
   12.3699   -0.9121   21.3563 H   0  0  0  0  0  0  0  0  0  0  0  0
   13.4643   -2.0173   22.2580 H   0  0  0  0  0  0  0  0  0  0  0  0
    8.5635   -6.1980   24.0388 H   0  0  0  0  0  0  0  0  0  0  0  0
   10.1185   -5.7478   23.3850 H   0  0  0  0  0  0  0  0  0  0  0  0
  1  2  1  0  0  0  0
  1  3  2  0  0  0  0
  2  4  2  0  0  0  0
  3  5  1  0  0  0  0
  4  6  1  0  0  0  0
  5  6  2  0  0  0  0
  5 17  1  0  0  0  0
  6 19  1  6  0  0  0
  7 16  1  6  0  0  0
  7 22  1  0  0  0  0
  7 23  2  0  0  0  0
  8 18  1  0  0  0  0
  8 20  1  0  0  0  0
  8 24  2  0  0  0  0
  9 10  1  0  0  0  0
  9 11  1  0  0  0  0
 10 16  1  0  0  0  0
 11 19  1  0  0  0  0
 12 14  1  0  0  0  0
 12 20  1  0  0  0  0
 13 15  1  0  0  0  0
 13 20  1  0  0  0  0
 14 21  1  0  0  0  0
 15 21  1  0  0  0  0
 16 19  1  0  0  0  0
 17 21  1  0  0  0  0
 18 25  1  0  0  0  0
  1 26  1  0  0  0  0
  2 27  1  0  0  0  0
  3 28  1  0  0  0  0
  4 29  1  0  0  0  0
  9 30  1  0  0  0  0
  9 31  1  0  0  0  0
 10 32  1  0  0  0  0
 10 33  1  0  0  0  0
 11 34  1  0  0  0  0
 11 35  1  0  0  0  0
 12 36  1  0  0  0  0
 12 37  1  0  0  0  0
 13 38  1  0  0  0  0
 13 39  1  0  0  0  0
 14 40  1  0  0  0  0
 14 41  1  0  0  0  0
 15 42  1  0  0  0  0
 15 43  1  0  0  0  0
 16 44  1  0  0  0  0
 17 45  1  0  0  0  0
 17 46  1  0  0  0  0
 18 47  1  0  0  0  0
 18 48  1  0  0  0  0
 22 49  1  0  0  0  0
 22 50  1  0  0  0  0
M  END
> <Chemgauss4 Score>
-5.22319030761719

> <Number of Confs>
200

$$$$
KIM-UNI-60f-7
  -OEChem-03242005443D

 41 43  0     1  0  0  0  0  0999 V2000
   12.2421   -0.3454   22.3358 C   0  0  0  0  0  0  0  0  0  0  0  0
   13.0819    0.2252   23.2787 C   0  0  0  0  0  0  0  0  0  0  0  0
   11.6714   -0.3332   25.0040 C   0  0  0  0  0  0  0  0  0  0  0  0
   11.0637   -0.9319   22.7840 C   0  0  0  0  0  0  0  0  0  0  0  0
   10.7654   -0.9298   24.1420 C   0  0  0  0  0  0  0  0  0  0  0  0
    7.1315   -2.5959   25.4993 C   0  0  0  0  0  0  0  0  0  0  0  0
    7.1641   -1.3039   25.1735 C   0  0  0  0  0  0  0  0  0  0  0  0
    8.3117   -3.4403   25.4628 C   0  0  0  0  0  0  0  0  0  0  0  0
    9.4805   -2.8795   25.0551 C   0  0  0  0  0  0  0  0  0  0  0  0
    8.4254   -0.6818   24.7118 C   0  0  0  0  0  0  0  0  0  0  0  0
    7.0351   -4.9683   27.9460 C   0  0  0  0  0  0  0  0  0  0  0  0
   10.7566   -3.7021   25.1298 C   0  0  0  0  0  0  0  0  0  0  0  0
   10.6467   -4.8844   26.0903 C   0  0  0  0  0  0  0  0  0  0  0  0
    9.3760   -5.6754   25.8271 C   0  0  0  0  0  0  0  0  0  0  0  0
   10.1396   -1.5539   21.7892 C   0  0  0  0  0  0  0  0  0  0  0  0
    7.0172   -5.3609   26.4877 C   0  0  0  0  0  0  0  0  0  0  0  0
   12.8260    0.2465   24.6059 N   0  0  0  0  0  0  0  0  0  0  0  0
    6.4610   -5.7620   28.7974 N   0  0  0  0  0  0  0  0  0  0  0  0
    9.5572   -1.5250   24.6567 N   0  0  0  0  0  0  0  0  0  0  0  0
    8.2104   -4.7858   25.8676 N   0  0  3  0  0  0  0  0  0  0  0  0
    7.6713   -3.8021   28.2820 N   0  0  0  0  0  0  0  0  0  0  0  0
    8.3815    0.5014   24.3714 O   0  0  0  0  0  0  0  0  0  0  0  0
   12.5040   -0.3300   21.2834 H   0  0  0  0  0  0  0  0  0  0  0  0
   14.0131    0.6957   22.9806 H   0  0  0  0  0  0  0  0  0  0  0  0
   11.4949   -0.3002   26.0751 H   0  0  0  0  0  0  0  0  0  0  0  0
    6.1840   -3.0122   25.8231 H   0  0  0  0  0  0  0  0  0  0  0  0
    6.2751   -0.6855   25.2195 H   0  0  0  0  0  0  0  0  0  0  0  0
   11.0022   -4.0605   24.1224 H   0  0  0  0  0  0  0  0  0  0  0  0
   11.5969   -3.0863   25.4713 H   0  0  0  0  0  0  0  0  0  0  0  0
   11.5224   -5.5339   25.9791 H   0  0  0  0  0  0  0  0  0  0  0  0
   10.6493   -4.5232   27.1271 H   0  0  0  0  0  0  0  0  0  0  0  0
    9.4231   -6.1601   24.8445 H   0  0  0  0  0  0  0  0  0  0  0  0
    9.2936   -6.4648   26.5833 H   0  0  0  0  0  0  0  0  0  0  0  0
   10.3929   -2.6105   21.6444 H   0  0  0  0  0  0  0  0  0  0  0  0
    9.0963   -1.4868   22.1213 H   0  0  0  0  0  0  0  0  0  0  0  0
   10.1994   -1.0439   20.8197 H   0  0  0  0  0  0  0  0  0  0  0  0
    6.1328   -4.9596   25.9861 H   0  0  0  0  0  0  0  0  0  0  0  0
    7.0532   -6.4470   26.3716 H   0  0  0  0  0  0  0  0  0  0  0  0
    6.0738   -6.5652   28.2897 H   0  0  0  0  0  0  0  0  0  0  0  0
    8.1128   -3.2229   27.5760 H   0  0  0  0  0  0  0  0  0  0  0  0
    7.7205   -3.4769   29.2417 H   0  0  0  0  0  0  0  0  0  0  0  0
  1  2  2  0  0  0  0
  1  4  1  0  0  0  0
  2 17  1  0  0  0  0
  3  5  1  0  0  0  0
  3 17  2  0  0  0  0
  4  5  2  0  0  0  0
  4 15  1  0  0  0  0
  5 19  1  0  0  0  0
  6  7  2  0  0  0  0
  6  8  1  0  0  0  0
  7 10  1  0  0  0  0
  8  9  2  0  0  0  0
  8 20  1  0  0  0  0
  9 12  1  0  0  0  0
  9 19  1  0  0  0  0
 10 19  1  0  0  0  0
 10 22  2  0  0  0  0
 11 16  1  0  0  0  0
 11 18  2  0  0  0  0
 11 21  1  0  0  0  0
 12 13  1  0  0  0  0
 13 14  1  0  0  0  0
 14 20  1  0  0  0  0
 16 20  1  1  0  0  0
  1 23  1  0  0  0  0
  2 24  1  0  0  0  0
  3 25  1  0  0  0  0
  6 26  1  0  0  0  0
  7 27  1  0  0  0  0
 12 28  1  0  0  0  0
 12 29  1  0  0  0  0
 13 30  1  0  0  0  0
 13 31  1  0  0  0  0
 14 32  1  0  0  0  0
 14 33  1  0  0  0  0
 15 34  1  0  0  0  0
 15 35  1  0  0  0  0
 15 36  1  0  0  0  0
 16 37  1  0  0  0  0
 16 38  1  0  0  0  0
 18 39  1  0  0  0  0
 21 40  1  0  0  0  0
 21 41  1  0  0  0  0
M  END
> <Chemgauss4 Score>
-5.22088003158569

> <Number of Confs>
13

$$$$
AGN-NEW-c19-2
  -OEChem-03242005443D

 67 70  0     0  0  0  0  0  0999 V2000
   12.3222    2.0050   25.7857 C   0  0  0  0  0  0  0  0  0  0  0  0
   12.5366    1.2191   24.9036 C   0  0  0  0  0  0  0  0  0  0  0  0
   13.9508   -0.4253   21.9050 C   0  0  0  0  0  0  0  0  0  0  0  0
   13.7612    0.5302   22.8971 C   0  0  0  0  0  0  0  0  0  0  0  0
   13.1754   -1.5794   21.9018 C   0  0  0  0  0  0  0  0  0  0  0  0
    7.4327   -6.0696   27.4854 C   0  0  0  0  0  0  0  0  0  0  0  0
    6.8827   -0.8020   22.3095 C   0  0  0  0  0  0  0  0  0  0  0  0
    9.1464   -1.5692   22.0416 C   0  0  0  0  0  0  0  0  0  0  0  0
    7.2762   -5.5260   28.7502 C   0  0  0  0  0  0  0  0  0  0  0  0
    6.8924   -1.3814   23.5680 C   0  0  0  0  0  0  0  0  0  0  0  0
   12.7910    0.2861   23.8557 C   0  0  0  0  0  0  0  0  0  0  0  0
    8.0234   -5.2791   26.5058 C   0  0  0  0  0  0  0  0  0  0  0  0
    8.0351   -0.9021   21.5380 C   0  0  0  0  0  0  0  0  0  0  0  0
    8.4336   -3.9875   26.8166 C   0  0  0  0  0  0  0  0  0  0  0  0
   12.2316   -1.7292   22.9051 C   0  0  0  0  0  0  0  0  0  0  0  0
    8.2321   -3.5370   28.1113 C   0  0  0  0  0  0  0  0  0  0  0  0
    9.0548   -2.1141   23.3122 C   0  0  0  0  0  0  0  0  0  0  0  0
   10.2183   -3.4034   25.1252 C   0  0  0  0  0  0  0  0  0  0  0  0
    5.8602   -5.6092   24.6079 C   0  0  0  0  0  0  0  0  0  0  0  0
    7.4688   -5.8282   22.8295 C   0  0  0  0  0  0  0  0  0  0  0  0
    4.8644   -5.0435   23.5993 C   0  0  0  0  0  0  0  0  0  0  0  0
    6.4356   -5.2563   21.8630 C   0  0  0  0  0  0  0  0  0  0  0  0
    8.6514   -2.1586   28.5087 C   0  0  0  0  0  0  0  0  0  0  0  0
    6.9225    0.3691   19.7198 C   0  0  0  0  0  0  0  0  0  0  0  0
    9.2795   -0.4169   19.4460 C   0  0  0  0  0  0  0  0  0  0  0  0
    8.2044   -5.8451   25.1270 C   0  0  0  0  0  0  0  0  0  0  0  0
   11.3740   -2.9613   22.9296 C   0  0  0  0  0  0  0  0  0  0  0  0
    7.6620   -4.2756   29.0896 N   0  0  0  0  0  0  0  0  0  0  0  0
    7.9525   -2.0372   24.0911 N   0  0  0  0  0  0  0  0  0  0  0  0
   12.0186   -0.8230   23.8854 N   0  0  0  0  0  0  0  0  0  0  0  0
    7.2322   -5.3016   24.1808 N   0  0  0  0  0  0  0  0  0  0  0  0
    9.0296   -3.1718   25.8518 N   0  0  0  0  0  0  0  0  0  0  0  0
    8.0768   -0.3287   20.2510 N   0  0  0  0  0  0  0  0  0  0  0  0
   10.2185   -2.8100   23.8276 N   0  0  0  0  0  0  0  0  0  0  0  0
   11.1605   -4.0634   25.5662 O   0  0  0  0  0  0  0  0  0  0  0  0
    5.1146   -5.5791   22.2992 O   0  0  0  0  0  0  0  0  0  0  0  0
   12.1322    2.7024   26.5678 H   0  0  0  0  0  0  0  0  0  0  0  0
   14.7013   -0.2708   21.1355 H   0  0  0  0  0  0  0  0  0  0  0  0
   14.3605    1.4349   22.9058 H   0  0  0  0  0  0  0  0  0  0  0  0
   13.3128   -2.3320   21.1328 H   0  0  0  0  0  0  0  0  0  0  0  0
    7.1014   -7.0810   27.2756 H   0  0  0  0  0  0  0  0  0  0  0  0
    5.9986   -0.2888   21.9464 H   0  0  0  0  0  0  0  0  0  0  0  0
   10.0558   -1.6579   21.4544 H   0  0  0  0  0  0  0  0  0  0  0  0
    6.8206   -6.1012   29.5496 H   0  0  0  0  0  0  0  0  0  0  0  0
    6.0178   -1.3335   24.2084 H   0  0  0  0  0  0  0  0  0  0  0  0
    5.6604   -5.1684   25.5913 H   0  0  0  0  0  0  0  0  0  0  0  0
    5.7213   -6.6953   24.6871 H   0  0  0  0  0  0  0  0  0  0  0  0
    7.4002   -6.9239   22.8307 H   0  0  0  0  0  0  0  0  0  0  0  0
    8.4708   -5.5505   22.4831 H   0  0  0  0  0  0  0  0  0  0  0  0
    3.8456   -5.3243   23.8850 H   0  0  0  0  0  0  0  0  0  0  0  0
    4.9082   -3.9484   23.5589 H   0  0  0  0  0  0  0  0  0  0  0  0
    6.5322   -4.1682   21.7630 H   0  0  0  0  0  0  0  0  0  0  0  0
    6.5731   -5.6930   20.8687 H   0  0  0  0  0  0  0  0  0  0  0  0
    7.8324   -1.4503   28.3405 H   0  0  0  0  0  0  0  0  0  0  0  0
    8.9351   -2.1214   29.5673 H   0  0  0  0  0  0  0  0  0  0  0  0
    9.5239   -1.8291   27.9316 H   0  0  0  0  0  0  0  0  0  0  0  0
    7.1511    0.7417   18.7104 H   0  0  0  0  0  0  0  0  0  0  0  0
    6.0674   -0.3211   19.6708 H   0  0  0  0  0  0  0  0  0  0  0  0
    6.6726    1.2164   20.3754 H   0  0  0  0  0  0  0  0  0  0  0  0
    9.1141    0.0871   18.4824 H   0  0  0  0  0  0  0  0  0  0  0  0
   10.1117    0.0696   19.9760 H   0  0  0  0  0  0  0  0  0  0  0  0
    9.5255   -1.4743   19.2692 H   0  0  0  0  0  0  0  0  0  0  0  0
    9.2069   -5.6214   24.7464 H   0  0  0  0  0  0  0  0  0  0  0  0
    8.0939   -6.9346   25.1318 H   0  0  0  0  0  0  0  0  0  0  0  0
   10.9946   -3.1877   21.9272 H   0  0  0  0  0  0  0  0  0  0  0  0
   11.9468   -3.8323   23.2649 H   0  0  0  0  0  0  0  0  0  0  0  0
    8.5428   -2.2945   25.6452 H   0  0  0  0  0  0  0  0  0  0  0  0
  1  2  3  0  0  0  0
  2 11  1  0  0  0  0
  3  4  2  0  0  0  0
  3  5  1  0  0  0  0
  4 11  1  0  0  0  0
  5 15  2  0  0  0  0
  6  9  1  0  0  0  0
  6 12  2  0  0  0  0
  7 10  2  0  0  0  0
  7 13  1  0  0  0  0
  8 13  2  0  0  0  0
  8 17  1  0  0  0  0
  9 28  2  0  0  0  0
 10 29  1  0  0  0  0
 11 30  2  0  0  0  0
 12 14  1  0  0  0  0
 12 26  1  0  0  0  0
 13 33  1  0  0  0  0
 14 16  2  0  0  0  0
 14 32  1  0  0  0  0
 15 27  1  0  0  0  0
 15 30  1  0  0  0  0
 16 23  1  0  0  0  0
 16 28  1  0  0  0  0
 17 29  2  0  0  0  0
 17 34  1  0  0  0  0
 18 32  1  0  0  0  0
 18 34  1  0  0  0  0
 18 35  2  0  0  0  0
 19 21  1  0  0  0  0
 19 31  1  0  0  0  0
 20 22  1  0  0  0  0
 20 31  1  0  0  0  0
 21 36  1  0  0  0  0
 22 36  1  0  0  0  0
 24 33  1  0  0  0  0
 25 33  1  0  0  0  0
 26 31  1  0  0  0  0
 27 34  1  0  0  0  0
  1 37  1  0  0  0  0
  3 38  1  0  0  0  0
  4 39  1  0  0  0  0
  5 40  1  0  0  0  0
  6 41  1  0  0  0  0
  7 42  1  0  0  0  0
  8 43  1  0  0  0  0
  9 44  1  0  0  0  0
 10 45  1  0  0  0  0
 19 46  1  0  0  0  0
 19 47  1  0  0  0  0
 20 48  1  0  0  0  0
 20 49  1  0  0  0  0
 21 50  1  0  0  0  0
 21 51  1  0  0  0  0
 22 52  1  0  0  0  0
 22 53  1  0  0  0  0
 23 54  1  0  0  0  0
 23 55  1  0  0  0  0
 23 56  1  0  0  0  0
 24 57  1  0  0  0  0
 24 58  1  0  0  0  0
 24 59  1  0  0  0  0
 25 60  1  0  0  0  0
 25 61  1  0  0  0  0
 25 62  1  0  0  0  0
 26 63  1  0  0  0  0
 26 64  1  0  0  0  0
 27 65  1  0  0  0  0
 27 66  1  0  0  0  0
 32 67  1  0  0  0  0
M  END
> <Chemgauss4 Score>
-5.21840286254883

> <Number of Confs>
200

$$$$
AVI-UNI-cf0-1
  -OEChem-03242005443D

 44 48  0     1  0  0  0  0  0999 V2000
    7.3171   -6.2933   21.5242 C   0  0  0  0  0  0  0  0  0  0  0  0
    7.9827   -5.2278   22.1273 C   0  0  0  0  0  0  0  0  0  0  0  0
    5.9977   -6.1193   21.1274 C   0  0  0  0  0  0  0  0  0  0  0  0
    6.3902   -2.0160   22.6954 C   0  0  0  0  0  0  0  0  0  0  0  0
    7.2742   -4.0294   22.2997 C   0  0  0  0  0  0  0  0  0  0  0  0
    7.5455   -2.7478   22.8412 C   0  0  0  0  0  0  0  0  0  0  0  0
    5.9538   -3.9901   21.8555 C   0  0  0  0  0  0  0  0  0  0  0  0
   10.5891   -2.2394   25.0665 C   0  0  0  0  0  0  0  0  0  0  0  0
    7.5632   -3.9859   25.7458 C   0  0  0  0  0  0  0  0  0  0  0  0
    8.7967   -2.2484   23.4494 C   0  0  0  0  0  0  0  0  0  0  0  0
    9.3576   -2.8136   24.5456 C   0  0  0  0  0  0  0  0  0  0  0  0
    8.7682   -3.9632   25.2157 C   0  0  0  0  0  0  0  0  0  0  0  0
   11.1842   -1.1754   24.5081 C   0  0  0  0  0  0  0  0  0  0  0  0
    7.5125   -5.3468   26.2587 C   0  0  0  0  0  0  0  0  0  0  0  0
    9.4617   -1.0622   22.7879 C   0  0  0  0  0  0  0  0  0  0  0  0
   12.4450   -0.5994   25.1058 C   0  0  0  0  0  0  0  0  0  0  0  0
    8.7886   -6.0662   25.9653 C   0  0  0  0  0  0  0  0  0  0  0  0
   11.3414    0.5071   22.6983 C   0  0  0  0  0  0  0  0  0  0  0  0
   12.5095    1.1248   23.4620 C   0  0  0  0  0  0  0  0  0  0  0  0
   14.0577   -0.7485   23.2908 C   0  0  0  0  0  0  0  0  0  0  0  0
    5.2670   -4.9892   21.2687 N   0  0  0  0  0  0  0  0  0  0  0  0
   10.6385   -0.5844   23.3783 N   0  0  0  0  0  0  0  0  0  0  0  0
   13.3116    0.1366   24.1820 N   0  0  2  0  0  0  0  0  0  0  0  0
    6.5511   -5.8176   26.8446 O   0  0  0  0  0  0  0  0  0  0  0  0
    8.9601   -0.5764   21.7719 O   0  0  0  0  0  0  0  0  0  0  0  0
    5.4207   -2.7581   22.1003 O   0  0  0  0  0  0  0  0  0  0  0  0
    9.5711   -5.0820   25.2721 O   0  0  0  0  0  0  0  0  0  0  0  0
    7.8207   -7.2414   21.3682 H   0  0  0  0  0  0  0  0  0  0  0  0
    9.0140   -5.3316   22.4484 H   0  0  0  0  0  0  0  0  0  0  0  0
    5.4651   -6.9412   20.6562 H   0  0  0  0  0  0  0  0  0  0  0  0
    6.1060   -1.0046   22.9500 H   0  0  0  0  0  0  0  0  0  0  0  0
   11.0348   -2.7183   25.9346 H   0  0  0  0  0  0  0  0  0  0  0  0
    6.7977   -3.2346   25.8064 H   0  0  0  0  0  0  0  0  0  0  0  0
   12.1684    0.0775   25.9377 H   0  0  0  0  0  0  0  0  0  0  0  0
   13.0082   -1.4332   25.5723 H   0  0  0  0  0  0  0  0  0  0  0  0
    9.2995   -6.3530   26.8874 H   0  0  0  0  0  0  0  0  0  0  0  0
    8.6157   -6.9216   25.3080 H   0  0  0  0  0  0  0  0  0  0  0  0
   10.5859    1.2780   22.4930 H   0  0  0  0  0  0  0  0  0  0  0  0
   11.6900    0.1471   21.7219 H   0  0  0  0  0  0  0  0  0  0  0  0
   13.1425    1.7171   22.7607 H   0  0  0  0  0  0  0  0  0  0  0  0
   12.0947    1.8720   24.1746 H   0  0  0  0  0  0  0  0  0  0  0  0
   14.6899   -0.1471   22.6209 H   0  0  0  0  0  0  0  0  0  0  0  0
   14.6917   -1.4203   23.8879 H   0  0  0  0  0  0  0  0  0  0  0  0
   13.3532   -1.3448   22.6924 H   0  0  0  0  0  0  0  0  0  0  0  0
  1  2  2  0  0  0  0
  1  3  1  0  0  0  0
  2  5  1  0  0  0  0
  3 21  2  0  0  0  0
  4  6  2  0  0  0  0
  4 26  1  0  0  0  0
  5  6  1  0  0  0  0
  5  7  2  0  0  0  0
  6 10  1  0  0  0  0
  7 21  1  0  0  0  0
  7 26  1  0  0  0  0
  8 11  1  0  0  0  0
  8 13  2  0  0  0  0
  9 12  2  0  0  0  0
  9 14  1  0  0  0  0
 10 11  2  0  0  0  0
 10 15  1  0  0  0  0
 11 12  1  0  0  0  0
 12 27  1  0  0  0  0
 13 16  1  0  0  0  0
 13 22  1  0  0  0  0
 14 17  1  0  0  0  0
 14 24  2  0  0  0  0
 15 22  1  0  0  0  0
 15 25  2  0  0  0  0
 16 23  1  0  0  0  0
 17 27  1  0  0  0  0
 18 19  1  0  0  0  0
 18 22  1  0  0  0  0
 19 23  1  0  0  0  0
 20 23  1  6  0  0  0
  1 28  1  0  0  0  0
  2 29  1  0  0  0  0
  3 30  1  0  0  0  0
  4 31  1  0  0  0  0
  8 32  1  0  0  0  0
  9 33  1  0  0  0  0
 16 34  1  0  0  0  0
 16 35  1  0  0  0  0
 17 36  1  0  0  0  0
 17 37  1  0  0  0  0
 18 38  1  0  0  0  0
 18 39  1  0  0  0  0
 19 40  1  0  0  0  0
 19 41  1  0  0  0  0
 20 42  1  0  0  0  0
 20 43  1  0  0  0  0
 20 44  1  0  0  0  0
M  END
> <Chemgauss4 Score>
-5.21598482131958

> <Number of Confs>
27

$$$$
DAN-LON-a5f-10
  -OEChem-03242005443D

 38 39  0     1  0  0  0  0  0999 V2000
   10.9369    0.0274   24.3810 C   0  0  0  0  0  0  0  0  0  0  0  0
    9.9684   -0.9715   24.2814 C   0  0  0  0  0  0  0  0  0  0  0  0
   12.0572   -0.0020   23.5504 C   0  0  0  0  0  0  0  0  0  0  0  0
   11.2406   -2.0293   22.5207 C   0  0  0  0  0  0  0  0  0  0  0  0
   10.1203   -1.9998   23.3513 C   0  0  0  0  0  0  0  0  0  0  0  0
   12.2090   -1.0304   22.6203 C   0  0  0  0  0  0  0  0  0  0  0  0
    9.7014   -5.3161   25.1272 C   0  0  0  0  0  0  0  0  0  0  0  0
    6.3135   -3.6666   27.9303 C   0  0  0  0  0  0  0  0  0  0  0  0
    6.5666   -4.5874   25.6550 C   0  0  0  0  0  0  0  0  0  0  0  0
    7.1321   -3.9984   24.3590 C   0  0  0  0  0  0  0  0  0  0  0  0
    8.6113   -3.9213   26.9089 C   0  0  0  0  0  0  0  0  0  0  0  0
    9.2909   -3.9307   25.5333 C   0  0  2  0  0  0  0  0  0  0  0  0
    9.0780   -3.0753   23.2455 C   0  0  0  0  0  0  0  0  0  0  0  0
    6.9855   -3.0379   29.1268 C   0  0  0  0  0  0  0  0  0  0  0  0
    7.1439   -3.9859   26.8525 N   0  0  0  0  0  0  0  0  0  0  0  0
    8.4230   -3.3277   24.5230 N   0  0  1  0  0  0  0  0  0  0  0  0
   10.9433   -5.6840   25.5882 N   0  0  0  0  0  0  0  0  0  0  0  0
    8.9714   -6.0436   24.4584 O   0  0  0  0  0  0  0  0  0  0  0  0
    5.0954   -3.8587   27.9501 O   0  0  0  0  0  0  0  0  0  0  0  0
   13.5920   -1.0668   21.5967 Cl  0  0  0  0  0  0  0  0  0  0  0  0
    6.9784   -1.2994   28.8526 Cl  0  0  0  0  0  0  0  0  0  0  0  0
   10.8184    0.8279   25.1055 H   0  0  0  0  0  0  0  0  0  0  0  0
    9.0988   -0.9406   24.9326 H   0  0  0  0  0  0  0  0  0  0  0  0
   12.8042    0.7830   23.6393 H   0  0  0  0  0  0  0  0  0  0  0  0
   11.3541   -2.8329   21.7968 H   0  0  0  0  0  0  0  0  0  0  0  0
    5.4781   -4.4148   25.7047 H   0  0  0  0  0  0  0  0  0  0  0  0
    6.7035   -5.6774   25.6376 H   0  0  0  0  0  0  0  0  0  0  0  0
    7.1957   -4.7969   23.5914 H   0  0  0  0  0  0  0  0  0  0  0  0
    6.3888   -3.2755   23.9682 H   0  0  0  0  0  0  0  0  0  0  0  0
    9.0001   -4.7452   27.5307 H   0  0  0  0  0  0  0  0  0  0  0  0
    8.8591   -2.9879   27.4438 H   0  0  0  0  0  0  0  0  0  0  0  0
   10.2130   -3.3323   25.6099 H   0  0  0  0  0  0  0  0  0  0  0  0
    8.3062   -2.7950   22.5204 H   0  0  0  0  0  0  0  0  0  0  0  0
    9.5189   -4.0175   22.9033 H   0  0  0  0  0  0  0  0  0  0  0  0
    8.0050   -3.4009   29.1882 H   0  0  0  0  0  0  0  0  0  0  0  0
    6.4142   -3.2770   30.0164 H   0  0  0  0  0  0  0  0  0  0  0  0
   11.4716   -5.0214   26.1463 H   0  0  0  0  0  0  0  0  0  0  0  0
   11.3529   -6.5918   25.3928 H   0  0  0  0  0  0  0  0  0  0  0  0
  1  2  2  0  0  0  0
  1  3  1  0  0  0  0
  2  5  1  0  0  0  0
  3  6  2  0  0  0  0
  4  5  2  0  0  0  0
  4  6  1  0  0  0  0
  5 13  1  0  0  0  0
  6 20  1  0  0  0  0
  7 12  1  1  0  0  0
  7 17  1  0  0  0  0
  7 18  2  0  0  0  0
  8 14  1  0  0  0  0
  8 15  1  0  0  0  0
  8 19  2  0  0  0  0
  9 10  1  0  0  0  0
  9 15  1  0  0  0  0
 10 16  1  0  0  0  0
 11 12  1  0  0  0  0
 11 15  1  0  0  0  0
 12 16  1  0  0  0  0
 13 16  1  6  0  0  0
 14 21  1  0  0  0  0
  1 22  1  0  0  0  0
  2 23  1  0  0  0  0
  3 24  1  0  0  0  0
  4 25  1  0  0  0  0
  9 26  1  0  0  0  0
  9 27  1  0  0  0  0
 10 28  1  0  0  0  0
 10 29  1  0  0  0  0
 11 30  1  0  0  0  0
 11 31  1  0  0  0  0
 12 32  1  0  0  0  0
 13 33  1  0  0  0  0
 13 34  1  0  0  0  0
 14 35  1  0  0  0  0
 14 36  1  0  0  0  0
 17 37  1  0  0  0  0
 17 38  1  0  0  0  0
M  END
> <Chemgauss4 Score>
-5.21210908889771

> <Number of Confs>
185

$$$$
TRY-UNI-714-4
  -OEChem-03242005443D

 37 38  0     0  0  0  0  0  0999 V2000
    8.6008   -4.5495   28.4843 C   0  0  0  0  0  0  0  0  0  0  0  0
    8.2061   -5.8292   28.1288 C   0  0  0  0  0  0  0  0  0  0  0  0
    8.1712   -5.2944   25.8948 C   0  0  0  0  0  0  0  0  0  0  0  0
    8.7810   -3.6181   27.4678 C   0  0  0  0  0  0  0  0  0  0  0  0
    8.5641   -3.9895   26.1456 C   0  0  0  0  0  0  0  0  0  0  0  0
    8.5515   -3.3208   23.7177 C   0  0  0  0  0  0  0  0  0  0  0  0
   12.9543   -0.8456   22.1019 C   0  0  0  0  0  0  0  0  0  0  0  0
   12.7238   -2.1342   22.8852 C   0  0  0  0  0  0  0  0  0  0  0  0
   11.9428    0.2310   22.4827 C   0  0  0  0  0  0  0  0  0  0  0  0
   11.2893   -2.6356   22.7353 C   0  0  0  0  0  0  0  0  0  0  0  0
   10.5069   -0.2665   22.3324 C   0  0  0  0  0  0  0  0  0  0  0  0
   10.2687   -1.5581   23.1261 C   0  0  0  0  0  0  0  0  0  0  0  0
    9.2058   -2.2308   27.8226 C   0  0  0  0  0  0  0  0  0  0  0  0
    8.8428   -2.0646   22.9171 C   0  0  0  0  0  0  0  0  0  0  0  0
    7.9859   -6.2271   26.8557 N   0  0  0  0  0  0  0  0  0  0  0  0
    8.7344   -3.0785   25.0762 N   0  0  0  0  0  0  0  0  0  0  0  0
    8.2068   -4.3718   23.1876 O   0  0  0  0  0  0  0  0  0  0  0  0
    8.7616   -4.2917   29.5256 H   0  0  0  0  0  0  0  0  0  0  0  0
    8.0517   -6.5927   28.8842 H   0  0  0  0  0  0  0  0  0  0  0  0
    7.9869   -5.6445   24.8834 H   0  0  0  0  0  0  0  0  0  0  0  0
   13.9703   -0.4787   22.2865 H   0  0  0  0  0  0  0  0  0  0  0  0
   12.8782   -1.0535   21.0275 H   0  0  0  0  0  0  0  0  0  0  0  0
   13.4220   -2.9048   22.5391 H   0  0  0  0  0  0  0  0  0  0  0  0
   12.9403   -1.9605   23.9464 H   0  0  0  0  0  0  0  0  0  0  0  0
   12.1140    0.5425   23.5206 H   0  0  0  0  0  0  0  0  0  0  0  0
   12.0940    1.1165   21.8549 H   0  0  0  0  0  0  0  0  0  0  0  0
   11.1237   -2.9474   21.6959 H   0  0  0  0  0  0  0  0  0  0  0  0
   11.1504   -3.5267   23.3592 H   0  0  0  0  0  0  0  0  0  0  0  0
    9.8161    0.5145   22.6721 H   0  0  0  0  0  0  0  0  0  0  0  0
   10.2946   -0.4371   21.2691 H   0  0  0  0  0  0  0  0  0  0  0  0
   10.3942   -1.3349   24.1941 H   0  0  0  0  0  0  0  0  0  0  0  0
   10.2995   -2.1588   27.8304 H   0  0  0  0  0  0  0  0  0  0  0  0
    8.8123   -1.5002   27.1053 H   0  0  0  0  0  0  0  0  0  0  0  0
    8.8292   -1.9419   28.8117 H   0  0  0  0  0  0  0  0  0  0  0  0
    8.6929   -2.2784   21.8557 H   0  0  0  0  0  0  0  0  0  0  0  0
    8.1397   -1.2829   23.2160 H   0  0  0  0  0  0  0  0  0  0  0  0
    9.0243   -2.1407   25.3458 H   0  0  0  0  0  0  0  0  0  0  0  0
  1  2  2  0  0  0  0
  1  4  1  0  0  0  0
  2 15  1  0  0  0  0
  3  5  1  0  0  0  0
  3 15  2  0  0  0  0
  4  5  2  0  0  0  0
  4 13  1  0  0  0  0
  5 16  1  0  0  0  0
  6 14  1  0  0  0  0
  6 16  1  0  0  0  0
  6 17  2  0  0  0  0
  7  8  1  0  0  0  0
  7  9  1  0  0  0  0
  8 10  1  0  0  0  0
  9 11  1  0  0  0  0
 10 12  1  0  0  0  0
 11 12  1  0  0  0  0
 12 14  1  0  0  0  0
  1 18  1  0  0  0  0
  2 19  1  0  0  0  0
  3 20  1  0  0  0  0
  7 21  1  0  0  0  0
  7 22  1  0  0  0  0
  8 23  1  0  0  0  0
  8 24  1  0  0  0  0
  9 25  1  0  0  0  0
  9 26  1  0  0  0  0
 10 27  1  0  0  0  0
 10 28  1  0  0  0  0
 11 29  1  0  0  0  0
 11 30  1  0  0  0  0
 12 31  1  0  0  0  0
 13 32  1  0  0  0  0
 13 33  1  0  0  0  0
 13 34  1  0  0  0  0
 14 35  1  0  0  0  0
 14 36  1  0  0  0  0
 16 37  1  0  0  0  0
M  END
> <Chemgauss4 Score>
-5.21119546890259

> <Number of Confs>
36

$$$$
JOH-MEM-5e3-3
  -OEChem-03242005443D

 53 55  0     1  0  0  0  0  0999 V2000
   10.4555   -2.2634   25.2206 C   0  0  0  0  0  0  0  0  0  0  0  0
   11.3005   -1.1567   25.3429 C   0  0  0  0  0  0  0  0  0  0  0  0
   10.9815   -0.5818   23.0053 C   0  0  0  0  0  0  0  0  0  0  0  0
    8.7218   -3.3489   22.2319 C   0  0  0  0  0  0  0  0  0  0  0  0
   10.1262   -1.6919   22.8578 C   0  0  0  0  0  0  0  0  0  0  0  0
    9.3866   -2.2361   21.7707 C   0  0  0  0  0  0  0  0  0  0  0  0
    9.8834   -2.5054   23.9666 C   0  0  0  0  0  0  0  0  0  0  0  0
   11.5608   -0.3275   24.2537 C   0  0  0  0  0  0  0  0  0  0  0  0
    5.9896   -5.6678   25.7844 C   0  0  0  0  0  0  0  0  0  0  0  0
    6.7514    1.0385   20.7978 C   0  0  0  0  0  0  0  0  0  0  0  0
    7.1284   -4.9118   26.4032 C   0  0  1  0  0  0  0  0  0  0  0  0
    8.1699   -5.8241   27.0443 C   0  0  1  0  0  0  0  0  0  0  0  0
    9.0615   -6.4979   26.0023 C   0  0  1  0  0  0  0  0  0  0  0  0
    9.6302   -5.4749   25.0183 C   0  0  2  0  0  0  0  0  0  0  0  0
    8.4937   -4.6210   24.4333 C   0  0  2  0  0  0  0  0  0  0  0  0
    6.7540    2.1646   21.7777 C   0  0  0  0  0  0  0  0  0  0  0  0
   12.6153    1.5548   23.2532 C   0  0  0  0  0  0  0  0  0  0  0  0
    9.3362   -1.7110   20.3912 C   0  0  0  0  0  0  0  0  0  0  0  0
    8.0380   -0.9551   20.0544 C   0  0  0  0  0  0  0  0  0  0  0  0
    9.0275   -3.5031   23.5575 N   0  0  0  0  0  0  0  0  0  0  0  0
    7.8440    0.1925   20.8996 N   0  0  0  0  0  0  0  0  0  0  0  0
    5.6695   -5.6142   24.6063 O   0  0  0  0  0  0  0  0  0  0  0  0
    5.8265    0.9333   20.0007 O   0  0  0  0  0  0  0  0  0  0  0  0
    7.7003   -4.0166   25.4592 O   0  0  0  0  0  0  0  0  0  0  0  0
    5.3552   -6.4232   26.7140 O   0  0  0  0  0  0  0  0  0  0  0  0
    8.9707   -5.0059   27.9042 O   0  0  0  0  0  0  0  0  0  0  0  0
   10.1168   -7.1816   26.6742 O   0  0  0  0  0  0  0  0  0  0  0  0
   10.2762   -6.1673   23.9501 O   0  0  0  0  0  0  0  0  0  0  0  0
   12.3885    0.7447   24.4046 O   0  0  0  0  0  0  0  0  0  0  0  0
   10.2565   -2.9057   26.0720 H   0  0  0  0  0  0  0  0  0  0  0  0
   11.7569   -0.9450   26.3072 H   0  0  0  0  0  0  0  0  0  0  0  0
   11.1910    0.0708   22.1620 H   0  0  0  0  0  0  0  0  0  0  0  0
    8.0620   -4.0430   21.7283 H   0  0  0  0  0  0  0  0  0  0  0  0
    6.6788   -4.2765   27.1836 H   0  0  0  0  0  0  0  0  0  0  0  0
    7.6976   -6.5801   27.6827 H   0  0  0  0  0  0  0  0  0  0  0  0
    8.4867   -7.2572   25.4599 H   0  0  0  0  0  0  0  0  0  0  0  0
   10.3840   -4.8501   25.5139 H   0  0  0  0  0  0  0  0  0  0  0  0
    7.8549   -5.2039   23.7449 H   0  0  0  0  0  0  0  0  0  0  0  0
    7.2644    3.0600   21.3879 H   0  0  0  0  0  0  0  0  0  0  0  0
    5.7366    2.4991   22.0366 H   0  0  0  0  0  0  0  0  0  0  0  0
    7.2421    1.9494   22.7417 H   0  0  0  0  0  0  0  0  0  0  0  0
   13.2919    2.3735   23.5103 H   0  0  0  0  0  0  0  0  0  0  0  0
   11.6633    1.9538   22.8941 H   0  0  0  0  0  0  0  0  0  0  0  0
   13.0694    0.9417   22.4712 H   0  0  0  0  0  0  0  0  0  0  0  0
    9.4440   -2.5404   19.6646 H   0  0  0  0  0  0  0  0  0  0  0  0
   10.1977   -1.0452   20.1816 H   0  0  0  0  0  0  0  0  0  0  0  0
    8.0535   -0.5885   19.0231 H   0  0  0  0  0  0  0  0  0  0  0  0
    7.1641   -1.6041   20.1729 H   0  0  0  0  0  0  0  0  0  0  0  0
    8.5462    0.3936   21.6098 H   0  0  0  0  0  0  0  0  0  0  0  0
    4.6051   -6.9246   26.3289 H   0  0  0  0  0  0  0  0  0  0  0  0
    8.3649   -4.6272   28.5572 H   0  0  0  0  0  0  0  0  0  0  0  0
    9.6969   -7.8363   27.2532 H   0  0  0  0  0  0  0  0  0  0  0  0
    9.5978   -6.7176   23.5303 H   0  0  0  0  0  0  0  0  0  0  0  0
  1  2  2  0  0  0  0
  1  7  1  0  0  0  0
  2  8  1  0  0  0  0
  3  5  1  0  0  0  0
  3  8  2  0  0  0  0
  4  6  2  0  0  0  0
  4 20  1  0  0  0  0
  5  6  1  0  0  0  0
  5  7  2  0  0  0  0
  6 18  1  0  0  0  0
  7 20  1  0  0  0  0
  8 29  1  0  0  0  0
  9 11  1  1  0  0  0
  9 22  2  0  0  0  0
  9 25  1  0  0  0  0
 10 16  1  0  0  0  0
 10 21  1  0  0  0  0
 10 23  2  0  0  0  0
 11 12  1  0  0  0  0
 11 24  1  0  0  0  0
 12 13  1  0  0  0  0
 12 26  1  6  0  0  0
 13 14  1  0  0  0  0
 13 27  1  6  0  0  0
 14 15  1  0  0  0  0
 14 28  1  1  0  0  0
 15 20  1  1  0  0  0
 15 24  1  0  0  0  0
 17 29  1  0  0  0  0
 18 19  1  0  0  0  0
 19 21  1  0  0  0  0
  1 30  1  0  0  0  0
  2 31  1  0  0  0  0
  3 32  1  0  0  0  0
  4 33  1  0  0  0  0
 11 34  1  0  0  0  0
 12 35  1  0  0  0  0
 13 36  1  0  0  0  0
 14 37  1  0  0  0  0
 15 38  1  0  0  0  0
 16 39  1  0  0  0  0
 16 40  1  0  0  0  0
 16 41  1  0  0  0  0
 17 42  1  0  0  0  0
 17 43  1  0  0  0  0
 17 44  1  0  0  0  0
 18 45  1  0  0  0  0
 18 46  1  0  0  0  0
 19 47  1  0  0  0  0
 19 48  1  0  0  0  0
 21 49  1  0  0  0  0
 25 50  1  0  0  0  0
 26 51  1  0  0  0  0
 27 52  1  0  0  0  0
 28 53  1  0  0  0  0
M  END
> <Chemgauss4 Score>
-5.20731592178345

> <Number of Confs>
200

$$$$
DUN-NEW-d83-1
  -OEChem-03242005443D

 40 42  0     1  0  0  0  0  0999 V2000
    7.8785   -5.4905   29.0149 C   0  0  0  0  0  0  0  0  0  0  0  0
    7.1633   -6.0061   27.9341 C   0  0  0  0  0  0  0  0  0  0  0  0
    8.7379   -4.4075   28.8296 C   0  0  0  0  0  0  0  0  0  0  0  0
   13.0145   -1.2075   23.1050 C   0  0  0  0  0  0  0  0  0  0  0  0
    7.3075   -5.4389   26.6679 C   0  0  0  0  0  0  0  0  0  0  0  0
    8.8822   -3.8403   27.5635 C   0  0  0  0  0  0  0  0  0  0  0  0
   11.8392   -1.8632   22.7558 C   0  0  0  0  0  0  0  0  0  0  0  0
   12.9097   -0.0232   23.8164 C   0  0  0  0  0  0  0  0  0  0  0  0
   10.6149   -0.1328   23.8344 C   0  0  0  0  0  0  0  0  0  0  0  0
    8.1670   -4.3560   26.4826 C   0  0  0  0  0  0  0  0  0  0  0  0
   10.6122   -1.3222   23.1236 C   0  0  0  0  0  0  0  0  0  0  0  0
    7.1391   -4.9549   23.2424 C   0  0  0  0  0  0  0  0  0  0  0  0
    8.6552   -2.2379   25.0849 C   0  0  0  0  0  0  0  0  0  0  0  0
    7.0425   -2.4845   23.4243 C   0  0  0  0  0  0  0  0  0  0  0  0
    8.3249   -3.7373   25.1026 C   0  0  2  0  0  0  0  0  0  0  0  0
    7.0757   -3.8043   24.2025 C   0  0  2  0  0  0  0  0  0  0  0  0
    9.3256   -2.0065   22.7622 C   0  0  0  0  0  0  0  0  0  0  0  0
   11.7360    0.5331   24.1914 N   0  0  0  0  0  0  0  0  0  0  0  0
    8.2770   -1.7570   23.7500 N   0  0  2  0  0  0  0  0  0  0  0  0
    5.9058   -5.4041   22.8330 N   0  0  0  0  0  0  0  0  0  0  0  0
    8.2065   -5.4257   22.8573 O   0  0  0  0  0  0  0  0  0  0  0  0
    7.7651   -5.9314   30.0009 H   0  0  0  0  0  0  0  0  0  0  0  0
    6.4932   -6.8486   28.0783 H   0  0  0  0  0  0  0  0  0  0  0  0
    9.2941   -4.0051   29.6710 H   0  0  0  0  0  0  0  0  0  0  0  0
   13.9821   -1.6108   22.8291 H   0  0  0  0  0  0  0  0  0  0  0  0
    6.7464   -5.8474   25.8316 H   0  0  0  0  0  0  0  0  0  0  0  0
    9.5542   -2.9969   27.4285 H   0  0  0  0  0  0  0  0  0  0  0  0
   11.8888   -2.7943   22.1979 H   0  0  0  0  0  0  0  0  0  0  0  0
   13.7971    0.5266   24.1123 H   0  0  0  0  0  0  0  0  0  0  0  0
    9.6880    0.3369   24.1488 H   0  0  0  0  0  0  0  0  0  0  0  0
    8.1410   -1.6659   25.8758 H   0  0  0  0  0  0  0  0  0  0  0  0
    9.7413   -2.1127   25.2456 H   0  0  0  0  0  0  0  0  0  0  0  0
    6.9563   -2.6701   22.3263 H   0  0  0  0  0  0  0  0  0  0  0  0
    6.1431   -1.8880   23.6997 H   0  0  0  0  0  0  0  0  0  0  0  0
    9.1871   -4.2871   24.6121 H   0  0  0  0  0  0  0  0  0  0  0  0
    6.1481   -3.9145   24.7890 H   0  0  0  0  0  0  0  0  0  0  0  0
    8.9626   -1.6573   21.7894 H   0  0  0  0  0  0  0  0  0  0  0  0
    9.4643   -3.0902   22.6876 H   0  0  0  0  0  0  0  0  0  0  0  0
    5.0760   -4.9451   23.1939 H   0  0  0  0  0  0  0  0  0  0  0  0
    5.7922   -6.1763   22.1843 H   0  0  0  0  0  0  0  0  0  0  0  0
  1  2  1  0  0  0  0
  1  3  2  0  0  0  0
  2  5  2  0  0  0  0
  3  6  1  0  0  0  0
  4  7  2  0  0  0  0
  4  8  1  0  0  0  0
  5 10  1  0  0  0  0
  6 10  2  0  0  0  0
  7 11  1  0  0  0  0
  8 18  2  0  0  0  0
  9 11  2  0  0  0  0
  9 18  1  0  0  0  0
 10 15  1  0  0  0  0
 11 17  1  0  0  0  0
 12 16  1  0  0  0  0
 12 20  1  0  0  0  0
 12 21  2  0  0  0  0
 13 15  1  0  0  0  0
 13 19  1  0  0  0  0
 14 16  1  0  0  0  0
 14 19  1  0  0  0  0
 15 16  1  0  0  0  0
 17 19  1  6  0  0  0
  1 22  1  0  0  0  0
  2 23  1  0  0  0  0
  3 24  1  0  0  0  0
  4 25  1  0  0  0  0
  5 26  1  0  0  0  0
  6 27  1  0  0  0  0
  7 28  1  0  0  0  0
  8 29  1  0  0  0  0
  9 30  1  0  0  0  0
 13 31  1  0  0  0  0
 13 32  1  0  0  0  0
 14 33  1  0  0  0  0
 14 34  1  0  0  0  0
 15 35  1  6  0  0  0
 16 36  1  6  0  0  0
 17 37  1  0  0  0  0
 17 38  1  0  0  0  0
 20 39  1  0  0  0  0
 20 40  1  0  0  0  0
M  END
> <Chemgauss4 Score>
-5.20648002624512

> <Number of Confs>
124

$$$$
DAR-DIA-43a-5
  -OEChem-03242005443D

 40 42  0     1  0  0  0  0  0999 V2000
    5.0575   -3.2953   25.9225 C   0  0  0  0  0  0  0  0  0  0  0  0
   13.2431   -1.0692   22.2176 C   0  0  0  0  0  0  0  0  0  0  0  0
    6.4076   -2.9576   25.8298 C   0  0  0  0  0  0  0  0  0  0  0  0
   11.8874   -1.1760   22.5073 C   0  0  0  0  0  0  0  0  0  0  0  0
    4.6200   -4.1487   26.9355 C   0  0  0  0  0  0  0  0  0  0  0  0
    6.8829   -4.3267   27.7629 C   0  0  0  0  0  0  0  0  0  0  0  0
   14.0320   -0.3183   23.0741 C   0  0  0  0  0  0  0  0  0  0  0  0
   12.2422    0.1892   24.4221 C   0  0  0  0  0  0  0  0  0  0  0  0
    7.3203   -3.4733   26.7499 C   0  0  0  0  0  0  0  0  0  0  0  0
   11.3694   -0.5378   23.6287 C   0  0  0  0  0  0  0  0  0  0  0  0
    5.5327   -4.6644   27.8556 C   0  0  0  0  0  0  0  0  0  0  0  0
    9.0095   -1.7395   26.0573 C   0  0  0  0  0  0  0  0  0  0  0  0
    9.5912   -1.7904   24.8517 C   0  0  0  0  0  0  0  0  0  0  0  0
    9.1473   -5.3731   25.5002 C   0  0  0  0  0  0  0  0  0  0  0  0
    8.7877   -3.1067   26.6478 C   0  0  2  0  0  0  0  0  0  0  0  0
    9.8569   -3.2054   24.4292 C   0  0  2  0  0  0  0  0  0  0  0  0
    9.6752   -3.9896   25.7381 C   0  0  2  0  0  0  0  0  0  0  0  0
    9.9039   -0.6350   23.9703 C   0  0  0  0  0  0  0  0  0  0  0  0
   13.5649    0.3159   24.1728 N   0  0  0  0  0  0  0  0  0  0  0  0
    9.5564   -6.2916   26.4379 N   0  0  0  0  0  0  0  0  0  0  0  0
    8.4049   -5.6353   24.5571 O   0  0  0  0  0  0  0  0  0  0  0  0
   11.1793   -3.3696   23.9373 O   0  0  0  0  0  0  0  0  0  0  0  0
    4.9926   -5.7182   29.1044 Cl  0  0  0  0  0  0  0  0  0  0  0  0
    4.3471   -2.8937   25.2057 H   0  0  0  0  0  0  0  0  0  0  0  0
   13.6688   -1.5584   21.3490 H   0  0  0  0  0  0  0  0  0  0  0  0
    6.7396   -2.2920   25.0372 H   0  0  0  0  0  0  0  0  0  0  0  0
   11.2427   -1.7582   21.8544 H   0  0  0  0  0  0  0  0  0  0  0  0
    3.5648   -4.4036   26.9954 H   0  0  0  0  0  0  0  0  0  0  0  0
    7.5984   -4.7257   28.4782 H   0  0  0  0  0  0  0  0  0  0  0  0
   15.0955   -0.2040   22.8916 H   0  0  0  0  0  0  0  0  0  0  0  0
   11.8957    0.7086   25.3102 H   0  0  0  0  0  0  0  0  0  0  0  0
    8.7091   -0.8248   26.5507 H   0  0  0  0  0  0  0  0  0  0  0  0
    9.2055   -3.1305   27.6877 H   0  0  0  0  0  0  0  0  0  0  0  0
    9.1487   -3.5118   23.6427 H   0  0  0  0  0  0  0  0  0  0  0  0
   10.6578   -4.1183   26.2258 H   0  0  0  0  0  0  0  0  0  0  0  0
    9.5835    0.2967   24.4559 H   0  0  0  0  0  0  0  0  0  0  0  0
    9.3111   -0.7070   23.0489 H   0  0  0  0  0  0  0  0  0  0  0  0
   10.1605   -5.9816   27.1920 H   0  0  0  0  0  0  0  0  0  0  0  0
    9.2785   -7.2672   26.4062 H   0  0  0  0  0  0  0  0  0  0  0  0
   11.7813   -3.1257   24.6596 H   0  0  0  0  0  0  0  0  0  0  0  0
  1  3  2  0  0  0  0
  1  5  1  0  0  0  0
  2  4  2  0  0  0  0
  2  7  1  0  0  0  0
  3  9  1  0  0  0  0
  4 10  1  0  0  0  0
  5 11  2  0  0  0  0
  6  9  2  0  0  0  0
  6 11  1  0  0  0  0
  7 19  2  0  0  0  0
  8 10  2  0  0  0  0
  8 19  1  0  0  0  0
  9 15  1  0  0  0  0
 10 18  1  0  0  0  0
 11 23  1  0  0  0  0
 12 13  2  0  0  0  0
 12 15  1  0  0  0  0
 13 16  1  0  0  0  0
 13 18  1  0  0  0  0
 14 17  1  0  0  0  0
 14 20  1  0  0  0  0
 14 21  2  0  0  0  0
 15 17  1  0  0  0  0
 16 17  1  0  0  0  0
 16 22  1  6  0  0  0
  1 24  1  0  0  0  0
  2 25  1  0  0  0  0
  3 26  1  0  0  0  0
  4 27  1  0  0  0  0
  5 28  1  0  0  0  0
  6 29  1  0  0  0  0
  7 30  1  0  0  0  0
  8 31  1  0  0  0  0
 12 32  1  0  0  0  0
 15 33  1  6  0  0  0
 16 34  1  0  0  0  0
 17 35  1  1  0  0  0
 18 36  1  0  0  0  0
 18 37  1  0  0  0  0
 20 38  1  0  0  0  0
 20 39  1  0  0  0  0
 22 40  1  0  0  0  0
M  END
> <Chemgauss4 Score>
-5.20160961151123

> <Number of Confs>
197

$$$$
HEI-REL-0c9-6
  -OEChem-03242005443D

 53 56  0     1  0  0  0  0  0999 V2000
   12.5520   -1.0303   22.1050 C   0  0  0  0  0  0  0  0  0  0  0  0
   11.6738    0.0235   22.3409 C   0  0  0  0  0  0  0  0  0  0  0  0
   12.4237   -2.2184   22.8236 C   0  0  0  0  0  0  0  0  0  0  0  0
   10.6679   -0.1091   23.2973 C   0  0  0  0  0  0  0  0  0  0  0  0
    6.0638   -1.8842   20.5954 C   0  0  0  0  0  0  0  0  0  0  0  0
    5.6414   -0.7149   19.9735 C   0  0  0  0  0  0  0  0  0  0  0  0
    6.4543    0.5551   21.8595 C   0  0  0  0  0  0  0  0  0  0  0  0
   11.4139   -2.3662   23.7866 C   0  0  0  0  0  0  0  0  0  0  0  0
   10.5315   -1.2986   24.0294 C   0  0  0  0  0  0  0  0  0  0  0  0
    6.6955   -1.8368   21.8497 C   0  0  0  0  0  0  0  0  0  0  0  0
    6.8884   -0.6103   22.5230 C   0  0  0  0  0  0  0  0  0  0  0  0
    5.8412    0.5057   20.6036 C   0  0  0  0  0  0  0  0  0  0  0  0
    9.6320   -4.9320   25.9485 C   0  0  0  0  0  0  0  0  0  0  0  0
    7.1200   -3.1239   22.5015 C   0  0  0  0  0  0  0  0  0  0  0  0
   11.3121   -3.6694   24.5404 C   0  0  0  0  0  0  0  0  0  0  0  0
    8.3542   -2.8707   23.3479 C   0  0  0  0  0  0  0  0  0  0  0  0
    9.8050   -2.4731   26.1171 C   0  0  0  0  0  0  0  0  0  0  0  0
    9.4303   -1.4293   25.0590 C   0  0  2  0  0  0  0  0  0  0  0  0
    8.0978   -1.7695   24.3856 C   0  0  1  0  0  0  0  0  0  0  0  0
    9.0657   -4.9193   27.3473 C   0  0  0  0  0  0  0  0  0  0  0  0
    7.2404    0.5931   24.6379 C   0  0  0  0  0  0  0  0  0  0  0  0
    7.4846   -0.5686   23.7863 N   0  0  3  0  0  0  0  0  0  0  0  0
   10.2030   -3.7381   25.5005 N   0  0  0  0  0  0  0  0  0  0  0  0
    3.7332    2.1255   20.4096 N   0  0  0  0  0  0  0  0  0  0  0  0
    9.5749   -5.9679   25.2817 O   0  0  0  0  0  0  0  0  0  0  0  0
    6.1272    3.0801   20.3538 O   0  0  0  0  0  0  0  0  0  0  0  0
    5.2832    1.7523   18.3860 O   0  0  0  0  0  0  0  0  0  0  0  0
    5.3315    1.9824   19.8230 S   0  0  0  0  0  0  0  0  0  0  0  0
   13.3367   -0.9278   21.3611 H   0  0  0  0  0  0  0  0  0  0  0  0
   11.7718    0.9487   21.7808 H   0  0  0  0  0  0  0  0  0  0  0  0
   13.1162   -3.0337   22.6282 H   0  0  0  0  0  0  0  0  0  0  0  0
    9.9889    0.7221   23.4707 H   0  0  0  0  0  0  0  0  0  0  0  0
    5.8967   -2.8372   20.1011 H   0  0  0  0  0  0  0  0  0  0  0  0
    5.1597   -0.7680   19.0012 H   0  0  0  0  0  0  0  0  0  0  0  0
    6.5950    1.5332   22.3136 H   0  0  0  0  0  0  0  0  0  0  0  0
    6.3255   -3.5048   23.1407 H   0  0  0  0  0  0  0  0  0  0  0  0
    7.3288   -3.8612   21.7289 H   0  0  0  0  0  0  0  0  0  0  0  0
   11.2178   -4.4844   23.8166 H   0  0  0  0  0  0  0  0  0  0  0  0
   12.2320   -3.8240   25.1171 H   0  0  0  0  0  0  0  0  0  0  0  0
    8.6347   -3.7899   23.8741 H   0  0  0  0  0  0  0  0  0  0  0  0
    9.1983   -2.6028   22.7066 H   0  0  0  0  0  0  0  0  0  0  0  0
   10.6635   -2.1277   26.7079 H   0  0  0  0  0  0  0  0  0  0  0  0
    8.9763   -2.6209   26.8179 H   0  0  0  0  0  0  0  0  0  0  0  0
    9.3211   -0.4672   25.5772 H   0  0  0  0  0  0  0  0  0  0  0  0
    7.4493   -2.1951   25.1439 H   0  0  0  0  0  0  0  0  0  0  0  0
    8.0239   -4.6206   27.3044 H   0  0  0  0  0  0  0  0  0  0  0  0
    9.6294   -4.2161   27.9513 H   0  0  0  0  0  0  0  0  0  0  0  0
    9.1503   -5.9138   27.7724 H   0  0  0  0  0  0  0  0  0  0  0  0
    7.7777    0.4700   25.5898 H   0  0  0  0  0  0  0  0  0  0  0  0
    7.5975    1.5013   24.1302 H   0  0  0  0  0  0  0  0  0  0  0  0
    6.1619    0.6831   24.8347 H   0  0  0  0  0  0  0  0  0  0  0  0
    3.5367    2.8627   21.0976 H   0  0  0  0  0  0  0  0  0  0  0  0
    2.9618    1.9537   19.7533 H   0  0  0  0  0  0  0  0  0  0  0  0
  1  2  1  0  0  0  0
  1  3  2  0  0  0  0
  2  4  2  0  0  0  0
  3  8  1  0  0  0  0
  4  9  1  0  0  0  0
  5  6  2  0  0  0  0
  5 10  1  0  0  0  0
  6 12  1  0  0  0  0
  7 11  1  0  0  0  0
  7 12  2  0  0  0  0
  8  9  2  0  0  0  0
  8 15  1  0  0  0  0
  9 18  1  0  0  0  0
 10 11  2  0  0  0  0
 10 14  1  0  0  0  0
 11 22  1  0  0  0  0
 12 28  1  0  0  0  0
 13 20  1  0  0  0  0
 13 23  1  0  0  0  0
 13 25  2  0  0  0  0
 14 16  1  0  0  0  0
 15 23  1  0  0  0  0
 16 19  1  1  0  0  0
 17 18  1  1  0  0  0
 17 23  1  0  0  0  0
 18 19  1  0  0  0  0
 19 22  1  0  0  0  0
 21 22  1  6  0  0  0
 24 28  1  0  0  0  0
 26 28  2  0  0  0  0
 27 28  2  0  0  0  0
  1 29  1  0  0  0  0
  2 30  1  0  0  0  0
  3 31  1  0  0  0  0
  4 32  1  0  0  0  0
  5 33  1  0  0  0  0
  6 34  1  0  0  0  0
  7 35  1  0  0  0  0
 14 36  1  0  0  0  0
 14 37  1  0  0  0  0
 15 38  1  0  0  0  0
 15 39  1  0  0  0  0
 16 40  1  0  0  0  0
 16 41  1  0  0  0  0
 17 42  1  0  0  0  0
 17 43  1  0  0  0  0
 18 44  1  0  0  0  0
 19 45  1  0  0  0  0
 20 46  1  0  0  0  0
 20 47  1  0  0  0  0
 20 48  1  0  0  0  0
 21 49  1  0  0  0  0
 21 50  1  0  0  0  0
 21 51  1  0  0  0  0
 24 52  1  0  0  0  0
 24 53  1  0  0  0  0
M  END
> <Chemgauss4 Score>
-5.19905757904053

> <Number of Confs>
17

$$$$
DUN-NEW-f8c-2
  -OEChem-03242005443D

 50 52  0     1  0  0  0  0  0999 V2000
    5.4463   -4.5619   22.4444 C   0  0  0  0  0  0  0  0  0  0  0  0
    5.5726   -5.4732   23.4928 C   0  0  0  0  0  0  0  0  0  0  0  0
    6.1942   -3.3845   22.4498 C   0  0  0  0  0  0  0  0  0  0  0  0
    6.4467   -5.2071   24.5467 C   0  0  0  0  0  0  0  0  0  0  0  0
    7.0684   -3.1184   23.5036 C   0  0  0  0  0  0  0  0  0  0  0  0
    7.1947   -4.0297   24.5521 C   0  0  0  0  0  0  0  0  0  0  0  0
    9.3429   -5.8122   25.8793 C   0  0  0  0  0  0  0  0  0  0  0  0
   13.2101   -1.0913   22.2507 C   0  0  0  0  0  0  0  0  0  0  0  0
    8.7284   -3.4269   27.8399 C   0  0  0  0  0  0  0  0  0  0  0  0
    9.9655   -3.6807   26.9897 C   0  0  0  0  0  0  0  0  0  0  0  0
    7.6548   -3.0699   26.8172 C   0  0  0  0  0  0  0  0  0  0  0  0
   11.2792   -2.7405   22.1621 C   0  0  0  0  0  0  0  0  0  0  0  0
   11.5281   -1.1911   24.0599 C   0  0  0  0  0  0  0  0  0  0  0  0
    9.7782   -2.4453   22.1523 C   0  0  0  0  0  0  0  0  0  0  0  0
   10.0247   -0.9210   24.0099 C   0  0  0  0  0  0  0  0  0  0  0  0
    9.4090   -4.3250   25.7190 C   0  0  2  0  0  0  0  0  0  0  0  0
    7.8610   -1.8434   23.4836 C   0  0  0  0  0  0  0  0  0  0  0  0
   13.3837   -1.1428   20.7536 C   0  0  0  0  0  0  0  0  0  0  0  0
    8.0558   -3.7824   25.6043 N   0  0  3  0  0  0  0  0  0  0  0  0
   12.0313   -1.6337   22.7605 N   0  0  0  0  0  0  0  0  0  0  0  0
    9.3015   -2.0942   23.4981 N   0  0  0  0  0  0  0  0  0  0  0  0
   10.0940   -6.5031   24.9581 N   0  0  0  0  0  0  0  0  0  0  0  0
    8.6850   -6.3442   26.7701 O   0  0  0  0  0  0  0  0  0  0  0  0
   14.0936   -0.5808   22.9439 O   0  0  0  0  0  0  0  0  0  0  0  0
   12.6576    0.3262   20.1115 Cl  0  0  0  0  0  0  0  0  0  0  0  0
    4.7656   -4.7692   21.6239 H   0  0  0  0  0  0  0  0  0  0  0  0
    4.9901   -6.3899   23.4884 H   0  0  0  0  0  0  0  0  0  0  0  0
    6.0885   -2.6810   21.6281 H   0  0  0  0  0  0  0  0  0  0  0  0
    6.5367   -5.9247   25.3582 H   0  0  0  0  0  0  0  0  0  0  0  0
    8.4459   -4.3382   28.3800 H   0  0  0  0  0  0  0  0  0  0  0  0
    8.8864   -2.6306   28.5730 H   0  0  0  0  0  0  0  0  0  0  0  0
   10.4455   -2.7256   26.7441 H   0  0  0  0  0  0  0  0  0  0  0  0
   10.6915   -4.3094   27.5145 H   0  0  0  0  0  0  0  0  0  0  0  0
    6.6533   -3.3751   27.1486 H   0  0  0  0  0  0  0  0  0  0  0  0
    7.6461   -1.9838   26.6434 H   0  0  0  0  0  0  0  0  0  0  0  0
   11.4903   -3.6329   22.7644 H   0  0  0  0  0  0  0  0  0  0  0  0
   11.6102   -2.9523   21.1435 H   0  0  0  0  0  0  0  0  0  0  0  0
   12.0545   -0.2908   24.3932 H   0  0  0  0  0  0  0  0  0  0  0  0
   11.7529   -1.9862   24.7816 H   0  0  0  0  0  0  0  0  0  0  0  0
    9.5669   -1.6390   21.4372 H   0  0  0  0  0  0  0  0  0  0  0  0
    9.2553   -3.3417   21.7975 H   0  0  0  0  0  0  0  0  0  0  0  0
    9.6842   -0.6914   25.0268 H   0  0  0  0  0  0  0  0  0  0  0  0
    9.8285   -0.0352   23.3912 H   0  0  0  0  0  0  0  0  0  0  0  0
   10.0544   -4.0984   24.8596 H   0  0  0  0  0  0  0  0  0  0  0  0
    7.6294   -1.2590   22.5864 H   0  0  0  0  0  0  0  0  0  0  0  0
    7.6212   -1.2180   24.3499 H   0  0  0  0  0  0  0  0  0  0  0  0
   12.8644   -2.0134   20.3694 H   0  0  0  0  0  0  0  0  0  0  0  0
   14.4426   -1.1663   20.5234 H   0  0  0  0  0  0  0  0  0  0  0  0
   10.6174   -5.9788   24.2647 H   0  0  0  0  0  0  0  0  0  0  0  0
   10.1460   -7.5166   24.9437 H   0  0  0  0  0  0  0  0  0  0  0  0
  1  2  1  0  0  0  0
  1  3  2  0  0  0  0
  2  4  2  0  0  0  0
  3  5  1  0  0  0  0
  4  6  1  0  0  0  0
  5  6  2  0  0  0  0
  5 17  1  0  0  0  0
  6 19  1  6  0  0  0
  7 16  1  1  0  0  0
  7 22  1  0  0  0  0
  7 23  2  0  0  0  0
  8 18  1  0  0  0  0
  8 20  1  0  0  0  0
  8 24  2  0  0  0  0
  9 10  1  0  0  0  0
  9 11  1  0  0  0  0
 10 16  1  0  0  0  0
 11 19  1  0  0  0  0
 12 14  1  0  0  0  0
 12 20  1  0  0  0  0
 13 15  1  0  0  0  0
 13 20  1  0  0  0  0
 14 21  1  0  0  0  0
 15 21  1  0  0  0  0
 16 19  1  0  0  0  0
 17 21  1  0  0  0  0
 18 25  1  0  0  0  0
  1 26  1  0  0  0  0
  2 27  1  0  0  0  0
  3 28  1  0  0  0  0
  4 29  1  0  0  0  0
  9 30  1  0  0  0  0
  9 31  1  0  0  0  0
 10 32  1  0  0  0  0
 10 33  1  0  0  0  0
 11 34  1  0  0  0  0
 11 35  1  0  0  0  0
 12 36  1  0  0  0  0
 12 37  1  0  0  0  0
 13 38  1  0  0  0  0
 13 39  1  0  0  0  0
 14 40  1  0  0  0  0
 14 41  1  0  0  0  0
 15 42  1  0  0  0  0
 15 43  1  0  0  0  0
 16 44  1  0  0  0  0
 17 45  1  0  0  0  0
 17 46  1  0  0  0  0
 18 47  1  0  0  0  0
 18 48  1  0  0  0  0
 22 49  1  0  0  0  0
 22 50  1  0  0  0  0
M  END
> <Chemgauss4 Score>
-5.19723081588745

> <Number of Confs>
178

$$$$
JOH-MEM-5e3-1
  -OEChem-03242005443D

 34 35  0     1  0  0  0  0  0999 V2000
   10.8865   -4.4030   24.6884 C   0  0  0  0  0  0  0  0  0  0  0  0
   11.2193   -3.2968   23.9050 C   0  0  0  0  0  0  0  0  0  0  0  0
   10.2705   -1.7722   25.5577 C   0  0  0  0  0  0  0  0  0  0  0  0
    9.9399   -2.8725   26.3268 C   0  0  0  0  0  0  0  0  0  0  0  0
   10.2514   -4.1581   25.8893 C   0  0  0  0  0  0  0  0  0  0  0  0
   10.9144   -1.9924   24.3357 C   0  0  0  0  0  0  0  0  0  0  0  0
    9.2116   -4.4684   27.9198 C   0  0  0  0  0  0  0  0  0  0  0  0
    6.6987   -4.8975   25.2367 C   0  0  0  0  0  0  0  0  0  0  0  0
    9.2675   -2.9489   27.6679 C   0  0  2  0  0  0  0  0  0  0  0  0
    7.0818   -5.0894   23.8068 C   0  0  0  0  0  0  0  0  0  0  0  0
   11.9066   -1.2189   22.3176 C   0  0  0  0  0  0  0  0  0  0  0  0
    7.8742   -2.3434   27.6827 C   0  0  0  0  0  0  0  0  0  0  0  0
    6.8127   -3.2877   27.1284 C   0  0  0  0  0  0  0  0  0  0  0  0
    9.8238   -5.0912   26.8267 N   0  0  0  0  0  0  0  0  0  0  0  0
    7.0827   -3.6775   25.7721 N   0  0  0  0  0  0  0  0  0  0  0  0
    8.7199   -5.0099   28.8983 O   0  0  0  0  0  0  0  0  0  0  0  0
    6.0947   -5.7868   25.8250 O   0  0  0  0  0  0  0  0  0  0  0  0
   11.2519   -0.9304   23.5511 O   0  0  0  0  0  0  0  0  0  0  0  0
   11.1206   -5.4088   24.3596 H   0  0  0  0  0  0  0  0  0  0  0  0
   11.7203   -3.4483   22.9520 H   0  0  0  0  0  0  0  0  0  0  0  0
   10.0390   -0.7665   25.8924 H   0  0  0  0  0  0  0  0  0  0  0  0
    9.9097   -2.4991   28.4333 H   0  0  0  0  0  0  0  0  0  0  0  0
    8.0763   -5.5507   23.6962 H   0  0  0  0  0  0  0  0  0  0  0  0
    6.3892   -5.7591   23.2722 H   0  0  0  0  0  0  0  0  0  0  0  0
    7.1201   -4.1695   23.2017 H   0  0  0  0  0  0  0  0  0  0  0  0
   12.1195   -0.2858   21.7902 H   0  0  0  0  0  0  0  0  0  0  0  0
   11.2659   -1.8582   21.7048 H   0  0  0  0  0  0  0  0  0  0  0  0
   12.8445   -1.7391   22.5260 H   0  0  0  0  0  0  0  0  0  0  0  0
    7.8807   -1.4276   27.0786 H   0  0  0  0  0  0  0  0  0  0  0  0
    7.6163   -2.0511   28.7085 H   0  0  0  0  0  0  0  0  0  0  0  0
    6.7775   -4.2054   27.7239 H   0  0  0  0  0  0  0  0  0  0  0  0
    5.8202   -2.8270   27.1535 H   0  0  0  0  0  0  0  0  0  0  0  0
    9.9376   -6.0918   26.7161 H   0  0  0  0  0  0  0  0  0  0  0  0
    7.5829   -3.0225   25.1718 H   0  0  0  0  0  0  0  0  0  0  0  0
  1  2  2  0  0  0  0
  1  5  1  0  0  0  0
  2  6  1  0  0  0  0
  3  4  1  0  0  0  0
  3  6  2  0  0  0  0
  4  5  2  0  0  0  0
  4  9  1  0  0  0  0
  5 14  1  0  0  0  0
  6 18  1  0  0  0  0
  7  9  1  0  0  0  0
  7 14  1  0  0  0  0
  7 16  2  0  0  0  0
  8 10  1  0  0  0  0
  8 15  1  0  0  0  0
  8 17  2  0  0  0  0
  9 12  1  1  0  0  0
 11 18  1  0  0  0  0
 12 13  1  0  0  0  0
 13 15  1  0  0  0  0
  1 19  1  0  0  0  0
  2 20  1  0  0  0  0
  3 21  1  0  0  0  0
  9 22  1  0  0  0  0
 10 23  1  0  0  0  0
 10 24  1  0  0  0  0
 10 25  1  0  0  0  0
 11 26  1  0  0  0  0
 11 27  1  0  0  0  0
 11 28  1  0  0  0  0
 12 29  1  0  0  0  0
 12 30  1  0  0  0  0
 13 31  1  0  0  0  0
 13 32  1  0  0  0  0
 14 33  1  0  0  0  0
 15 34  1  0  0  0  0
M  END
> <Chemgauss4 Score>
-5.19607830047607

> <Number of Confs>
50

$$$$
AGN-NEW-891-9
  -OEChem-03242005443D

 32 33  0     0  0  0  0  0  0999 V2000
    6.1590   -1.2741   27.2076 C   0  0  0  0  0  0  0  0  0  0  0  0
    8.5755   -5.3038   28.1971 C   0  0  0  0  0  0  0  0  0  0  0  0
   12.5421   -0.7967   22.6583 C   0  0  0  0  0  0  0  0  0  0  0  0
   11.5683   -1.7710   22.8468 C   0  0  0  0  0  0  0  0  0  0  0  0
    7.7266   -4.2861   28.6321 C   0  0  0  0  0  0  0  0  0  0  0  0
    8.7732   -5.5112   26.8319 C   0  0  0  0  0  0  0  0  0  0  0  0
    7.2729   -3.6834   26.3369 C   0  0  0  0  0  0  0  0  0  0  0  0
   12.5317    0.3024   23.5019 C   0  0  0  0  0  0  0  0  0  0  0  0
   10.7024   -0.4829   24.6488 C   0  0  0  0  0  0  0  0  0  0  0  0
   10.6270   -1.6187   23.8588 C   0  0  0  0  0  0  0  0  0  0  0  0
    7.0753   -3.4759   27.7020 C   0  0  0  0  0  0  0  0  0  0  0  0
    8.1219   -4.7010   25.9018 C   0  0  0  0  0  0  0  0  0  0  0  0
    9.5824   -2.6329   24.0836 C   0  0  0  0  0  0  0  0  0  0  0  0
    9.7266   -3.9426   23.8467 C   0  0  0  0  0  0  0  0  0  0  0  0
    6.1677   -2.3880   28.1680 C   0  0  0  0  0  0  0  0  0  0  0  0
    6.1524   -0.3943   26.4509 N   0  0  0  0  0  0  0  0  0  0  0  0
   11.6337    0.4851   24.4959 N   0  0  0  0  0  0  0  0  0  0  0  0
    8.7690   -6.3493   23.9899 O   0  0  0  0  0  0  0  0  0  0  0  0
    7.1974   -4.4516   23.4915 O   0  0  0  0  0  0  0  0  0  0  0  0
    8.3687   -4.9621   24.1934 S   0  0  0  0  0  0  0  0  0  0  0  0
    9.0833   -5.9342   28.9212 H   0  0  0  0  0  0  0  0  0  0  0  0
   13.2859   -0.8945   21.8760 H   0  0  0  0  0  0  0  0  0  0  0  0
   11.5552   -2.6430   22.1976 H   0  0  0  0  0  0  0  0  0  0  0  0
    7.5794   -4.1311   29.6977 H   0  0  0  0  0  0  0  0  0  0  0  0
    9.4364   -6.3074   26.5044 H   0  0  0  0  0  0  0  0  0  0  0  0
    6.7648   -3.0509   25.6129 H   0  0  0  0  0  0  0  0  0  0  0  0
   13.2699    1.0904   23.3952 H   0  0  0  0  0  0  0  0  0  0  0  0
    9.9975   -0.3047   25.4558 H   0  0  0  0  0  0  0  0  0  0  0  0
    8.6450   -2.2561   24.4880 H   0  0  0  0  0  0  0  0  0  0  0  0
   10.6339   -4.3930   23.4655 H   0  0  0  0  0  0  0  0  0  0  0  0
    6.4813   -2.0206   29.1546 H   0  0  0  0  0  0  0  0  0  0  0  0
    5.1455   -2.7682   28.2999 H   0  0  0  0  0  0  0  0  0  0  0  0
  1 15  1  0  0  0  0
  1 16  3  0  0  0  0
  2  5  2  0  0  0  0
  2  6  1  0  0  0  0
  3  4  2  0  0  0  0
  3  8  1  0  0  0  0
  4 10  1  0  0  0  0
  5 11  1  0  0  0  0
  6 12  2  0  0  0  0
  7 11  2  0  0  0  0
  7 12  1  0  0  0  0
  8 17  2  0  0  0  0
  9 10  2  0  0  0  0
  9 17  1  0  0  0  0
 10 13  1  0  0  0  0
 11 15  1  0  0  0  0
 12 20  1  0  0  0  0
 13 14  2  0  0  0  0
 14 20  1  0  0  0  0
 18 20  2  0  0  0  0
 19 20  2  0  0  0  0
  2 21  1  0  0  0  0
  3 22  1  0  0  0  0
  4 23  1  0  0  0  0
  5 24  1  0  0  0  0
  6 25  1  0  0  0  0
  7 26  1  0  0  0  0
  8 27  1  0  0  0  0
  9 28  1  0  0  0  0
 13 29  1  0  0  0  0
 14 30  1  0  0  0  0
 15 31  1  0  0  0  0
 15 32  1  0  0  0  0
M  END
> <Chemgauss4 Score>
-5.19323921203613

> <Number of Confs>
200

$$$$
AGN-NEW-c7b-4
  -OEChem-03242005443D

 29 30  0     0  0  0  0  0  0999 V2000
   10.3913   -0.6801   26.3026 C   0  0  0  0  0  0  0  0  0  0  0  0
    6.1219   -4.6752   27.7959 C   0  0  0  0  0  0  0  0  0  0  0  0
   12.1353   -1.6830   22.6670 C   0  0  0  0  0  0  0  0  0  0  0  0
    7.4142   -5.1496   27.5716 C   0  0  0  0  0  0  0  0  0  0  0  0
   11.5055   -2.6910   23.3885 C   0  0  0  0  0  0  0  0  0  0  0  0
    5.4074   -4.0793   26.7566 C   0  0  0  0  0  0  0  0  0  0  0  0
    7.2779   -4.4321   25.2686 C   0  0  0  0  0  0  0  0  0  0  0  0
   12.1415   -0.4066   23.2060 C   0  0  0  0  0  0  0  0  0  0  0  0
   10.9709   -1.0877   25.0617 C   0  0  0  0  0  0  0  0  0  0  0  0
    7.9923   -5.0280   26.3080 C   0  0  0  0  0  0  0  0  0  0  0  0
   10.9096   -2.3960   24.6097 C   0  0  0  0  0  0  0  0  0  0  0  0
    5.9854   -3.9578   25.4929 C   0  0  0  0  0  0  0  0  0  0  0  0
   10.1405   -4.7631   24.9973 C   0  0  0  0  0  0  0  0  0  0  0  0
    9.3746   -5.5344   26.0692 C   0  0  0  0  0  0  0  0  0  0  0  0
    9.9206   -0.3491   27.3104 N   0  0  0  0  0  0  0  0  0  0  0  0
   11.5735   -0.0818   24.3890 N   0  0  0  0  0  0  0  0  0  0  0  0
   10.2674   -3.4206   25.3450 N   0  0  0  0  0  0  0  0  0  0  0  0
   10.5619   -5.3110   23.9837 O   0  0  0  0  0  0  0  0  0  0  0  0
    5.1040   -3.2214   24.2113 Cl  0  0  0  0  0  0  0  0  0  0  0  0
    5.6722   -4.7700   28.7801 H   0  0  0  0  0  0  0  0  0  0  0  0
   12.6069   -1.8900   21.7132 H   0  0  0  0  0  0  0  0  0  0  0  0
    7.9636   -5.6124   28.3873 H   0  0  0  0  0  0  0  0  0  0  0  0
   11.4857   -3.7018   22.9894 H   0  0  0  0  0  0  0  0  0  0  0  0
    4.4011   -3.7139   26.9460 H   0  0  0  0  0  0  0  0  0  0  0  0
    7.7328   -4.3401   24.2851 H   0  0  0  0  0  0  0  0  0  0  0  0
   12.6202    0.4147   22.6829 H   0  0  0  0  0  0  0  0  0  0  0  0
    9.9626   -5.4970   27.0011 H   0  0  0  0  0  0  0  0  0  0  0  0
    9.3465   -6.5958   25.7725 H   0  0  0  0  0  0  0  0  0  0  0  0
    9.8498   -3.1441   26.2311 H   0  0  0  0  0  0  0  0  0  0  0  0
  1  9  1  0  0  0  0
  1 15  3  0  0  0  0
  2  4  2  0  0  0  0
  2  6  1  0  0  0  0
  3  5  2  0  0  0  0
  3  8  1  0  0  0  0
  4 10  1  0  0  0  0
  5 11  1  0  0  0  0
  6 12  2  0  0  0  0
  7 10  2  0  0  0  0
  7 12  1  0  0  0  0
  8 16  2  0  0  0  0
  9 11  2  0  0  0  0
  9 16  1  0  0  0  0
 10 14  1  0  0  0  0
 11 17  1  0  0  0  0
 12 19  1  0  0  0  0
 13 14  1  0  0  0  0
 13 17  1  0  0  0  0
 13 18  2  0  0  0  0
  2 20  1  0  0  0  0
  3 21  1  0  0  0  0
  4 22  1  0  0  0  0
  5 23  1  0  0  0  0
  6 24  1  0  0  0  0
  7 25  1  0  0  0  0
  8 26  1  0  0  0  0
 14 27  1  0  0  0  0
 14 28  1  0  0  0  0
 17 29  1  0  0  0  0
M  END
> <Chemgauss4 Score>
-5.19027233123779

> <Number of Confs>
20

$$$$
MIH-UNI-6b9-8
  -OEChem-03242005443D

 35 37  0     1  0  0  0  0  0999 V2000
    7.5777   -6.3346   27.9621 C   0  0  0  0  0  0  0  0  0  0  0  0
    8.2718   -5.6137   26.9969 C   0  0  0  0  0  0  0  0  0  0  0  0
   12.5646   -0.1360   23.9457 C   0  0  0  0  0  0  0  0  0  0  0  0
    7.5120   -5.8083   29.2422 C   0  0  0  0  0  0  0  0  0  0  0  0
    8.7469   -3.9655   28.6443 C   0  0  0  0  0  0  0  0  0  0  0  0
   13.5624    0.2924   23.0981 C   0  0  0  0  0  0  0  0  0  0  0  0
   12.2801   -1.5776   22.1448 C   0  0  0  0  0  0  0  0  0  0  0  0
   11.8218   -1.2194   23.3936 C   0  0  0  0  0  0  0  0  0  0  0  0
    8.8706   -4.4056   27.3363 C   0  0  0  0  0  0  0  0  0  0  0  0
   10.9372   -3.3832   24.3762 C   0  0  0  0  0  0  0  0  0  0  0  0
    9.3437   -1.7542   23.3281 C   0  0  0  0  0  0  0  0  0  0  0  0
   10.6622   -1.8966   24.0994 C   0  0  2  0  0  0  0  0  0  0  0  0
    9.7320   -4.0743   25.0181 C   0  0  1  0  0  0  0  0  0  0  0  0
    8.2134   -2.4828   24.0525 C   0  0  2  0  0  0  0  0  0  0  0  0
    8.0808   -4.6382   29.6095 N   0  0  0  0  0  0  0  0  0  0  0  0
    9.5677   -3.6663   26.3968 N   0  0  0  0  0  0  0  0  0  0  0  0
    8.5447   -3.8584   24.2477 O   0  0  0  0  0  0  0  0  0  0  0  0
    7.0396   -2.3684   23.2520 O   0  0  0  0  0  0  0  0  0  0  0  0
   13.6008   -0.6099   21.6432 S   0  0  0  0  0  0  0  0  0  0  0  0
    7.1030   -7.2786   27.7203 H   0  0  0  0  0  0  0  0  0  0  0  0
    8.3400   -6.0018   25.9841 H   0  0  0  0  0  0  0  0  0  0  0  0
   12.3795    0.3098   24.9149 H   0  0  0  0  0  0  0  0  0  0  0  0
    6.9824   -6.3318   30.0313 H   0  0  0  0  0  0  0  0  0  0  0  0
    9.1926   -3.0302   28.9693 H   0  0  0  0  0  0  0  0  0  0  0  0
   14.2701    1.0924   23.2632 H   0  0  0  0  0  0  0  0  0  0  0  0
   11.9048   -2.3596   21.4993 H   0  0  0  0  0  0  0  0  0  0  0  0
   11.1501   -3.8844   23.4212 H   0  0  0  0  0  0  0  0  0  0  0  0
   11.8346   -3.5076   24.9954 H   0  0  0  0  0  0  0  0  0  0  0  0
    9.0826   -0.6976   23.1874 H   0  0  0  0  0  0  0  0  0  0  0  0
    9.4556   -2.1725   22.3178 H   0  0  0  0  0  0  0  0  0  0  0  0
   10.5504   -1.3760   25.0732 H   0  0  0  0  0  0  0  0  0  0  0  0
    9.9102   -5.1550   25.0161 H   0  0  0  0  0  0  0  0  0  0  0  0
    8.0068   -2.0061   25.0181 H   0  0  0  0  0  0  0  0  0  0  0  0
    9.9885   -2.7921   26.6859 H   0  0  0  0  0  0  0  0  0  0  0  0
    6.8567   -1.4201   23.1643 H   0  0  0  0  0  0  0  0  0  0  0  0
  1  2  2  0  0  0  0
  1  4  1  0  0  0  0
  2  9  1  0  0  0  0
  3  6  2  0  0  0  0
  3  8  1  0  0  0  0
  4 15  2  0  0  0  0
  5  9  2  0  0  0  0
  5 15  1  0  0  0  0
  6 19  1  0  0  0  0
  7  8  2  0  0  0  0
  7 19  1  0  0  0  0
  8 12  1  0  0  0  0
  9 16  1  0  0  0  0
 10 12  1  0  0  0  0
 10 13  1  0  0  0  0
 11 12  1  0  0  0  0
 11 14  1  0  0  0  0
 13 16  1  0  0  0  0
 13 17  1  0  0  0  0
 14 17  1  0  0  0  0
 14 18  1  0  0  0  0
  1 20  1  0  0  0  0
  2 21  1  0  0  0  0
  3 22  1  0  0  0  0
  4 23  1  0  0  0  0
  5 24  1  0  0  0  0
  6 25  1  0  0  0  0
  7 26  1  0  0  0  0
 10 27  1  0  0  0  0
 10 28  1  0  0  0  0
 11 29  1  0  0  0  0
 11 30  1  0  0  0  0
 12 31  1  1  0  0  0
 13 32  1  6  0  0  0
 14 33  1  6  0  0  0
 16 34  1  0  0  0  0
 18 35  1  0  0  0  0
M  END
> <Chemgauss4 Score>
-5.18676424026489

> <Number of Confs>
76

$$$$
SAL-INS-cba-3
  -OEChem-03242005443D

 46 49  0     0  0  0  0  0  0999 V2000
    7.6644   -5.8053   26.1594 C   0  0  0  0  0  0  0  0  0  0  0  0
    8.8479   -5.6334   26.8438 C   0  0  0  0  0  0  0  0  0  0  0  0
    5.6953    2.5603   21.1005 C   0  0  0  0  0  0  0  0  0  0  0  0
    6.6748    4.0511   22.3946 C   0  0  0  0  0  0  0  0  0  0  0  0
    8.4717   -2.5386   24.9783 C   0  0  0  0  0  0  0  0  0  0  0  0
    8.5345   -3.7777   25.6677 C   0  0  0  0  0  0  0  0  0  0  0  0
    7.4810   -4.6067   25.4118 C   0  0  0  0  0  0  0  0  0  0  0  0
    6.3429    1.9622   22.1556 C   0  0  0  0  0  0  0  0  0  0  0  0
    7.3307   -2.4918   24.2058 C   0  0  0  0  0  0  0  0  0  0  0  0
    7.0470   -0.0822   23.4761 C   0  0  0  0  0  0  0  0  0  0  0  0
   12.0126   -0.9680   24.9036 C   0  0  0  0  0  0  0  0  0  0  0  0
   10.8927   -2.5083   23.2399 C   0  0  0  0  0  0  0  0  0  0  0  0
   11.9512    0.1756   23.8887 C   0  0  0  0  0  0  0  0  0  0  0  0
   10.8336   -1.3670   22.2215 C   0  0  0  0  0  0  0  0  0  0  0  0
   10.9108   -2.0170   24.6947 C   0  0  0  0  0  0  0  0  0  0  0  0
   11.9364   -0.3338   22.4474 C   0  0  0  0  0  0  0  0  0  0  0  0
    9.5402   -1.4914   25.1302 C   0  0  0  0  0  0  0  0  0  0  0  0
    6.9504    2.8956   22.9577 N   0  0  0  0  0  0  0  0  0  0  0  0
    5.9164    3.8984   21.2673 N   0  0  0  0  0  0  0  0  0  0  0  0
    9.3789   -4.4064   26.5493 N   0  0  0  0  0  0  0  0  0  0  0  0
    6.4004    0.5726   22.4156 N   0  0  0  0  0  0  0  0  0  0  0  0
    6.8681   -1.5002   23.3818 N   0  0  0  0  0  0  0  0  0  0  0  0
    7.6820    0.4697   24.3690 O   0  0  0  0  0  0  0  0  0  0  0  0
   13.1928   -0.9331   22.1357 O   0  0  0  0  0  0  0  0  0  0  0  0
    6.3504   -3.9038   24.3031 S   0  0  0  0  0  0  0  0  0  0  0  0
    7.0215   -6.6732   26.1920 H   0  0  0  0  0  0  0  0  0  0  0  0
    9.3657   -6.2923   27.5269 H   0  0  0  0  0  0  0  0  0  0  0  0
    5.1167    2.1742   20.2733 H   0  0  0  0  0  0  0  0  0  0  0  0
    6.9880    5.0227   22.7490 H   0  0  0  0  0  0  0  0  0  0  0  0
   13.0029   -1.4483   24.8433 H   0  0  0  0  0  0  0  0  0  0  0  0
   11.9405   -0.5475   25.9210 H   0  0  0  0  0  0  0  0  0  0  0  0
   10.0272   -3.1745   23.0812 H   0  0  0  0  0  0  0  0  0  0  0  0
   11.7877   -3.1205   23.0410 H   0  0  0  0  0  0  0  0  0  0  0  0
   11.0607    0.7913   24.0728 H   0  0  0  0  0  0  0  0  0  0  0  0
   12.8079    0.8488   24.0358 H   0  0  0  0  0  0  0  0  0  0  0  0
   10.9101   -1.7738   21.2031 H   0  0  0  0  0  0  0  0  0  0  0  0
    9.8513   -0.8783   22.2677 H   0  0  0  0  0  0  0  0  0  0  0  0
   11.1513   -2.8887   25.3398 H   0  0  0  0  0  0  0  0  0  0  0  0
   11.7943    0.5114   21.7586 H   0  0  0  0  0  0  0  0  0  0  0  0
    9.2844   -0.6075   24.5375 H   0  0  0  0  0  0  0  0  0  0  0  0
    9.5923   -1.1587   26.1718 H   0  0  0  0  0  0  0  0  0  0  0  0
    5.5819    4.6397   20.6663 H   0  0  0  0  0  0  0  0  0  0  0  0
   10.2377   -4.0014   26.9003 H   0  0  0  0  0  0  0  0  0  0  0  0
    5.9136   -0.0255   21.7528 H   0  0  0  0  0  0  0  0  0  0  0  0
    6.3024   -1.7799   22.5588 H   0  0  0  0  0  0  0  0  0  0  0  0
   13.8658   -0.2435   22.2496 H   0  0  0  0  0  0  0  0  0  0  0  0
  1  2  2  0  0  0  0
  1  7  1  0  0  0  0
  2 20  1  0  0  0  0
  3  8  2  0  0  0  0
  3 19  1  0  0  0  0
  4 18  2  0  0  0  0
  4 19  1  0  0  0  0
  5  6  1  0  0  0  0
  5  9  2  0  0  0  0
  5 17  1  0  0  0  0
  6  7  2  0  0  0  0
  6 20  1  0  0  0  0
  7 25  1  0  0  0  0
  8 18  1  0  0  0  0
  8 21  1  0  0  0  0
  9 22  1  0  0  0  0
  9 25  1  0  0  0  0
 10 21  1  0  0  0  0
 10 22  1  0  0  0  0
 10 23  2  0  0  0  0
 11 13  1  0  0  0  0
 11 15  1  0  0  0  0
 12 14  1  0  0  0  0
 12 15  1  0  0  0  0
 13 16  1  0  0  0  0
 14 16  1  0  0  0  0
 15 17  1  0  0  0  0
 16 24  1  0  0  0  0
  1 26  1  0  0  0  0
  2 27  1  0  0  0  0
  3 28  1  0  0  0  0
  4 29  1  0  0  0  0
 11 30  1  0  0  0  0
 11 31  1  0  0  0  0
 12 32  1  0  0  0  0
 12 33  1  0  0  0  0
 13 34  1  0  0  0  0
 13 35  1  0  0  0  0
 14 36  1  0  0  0  0
 14 37  1  0  0  0  0
 15 38  1  0  0  0  0
 16 39  1  0  0  0  0
 17 40  1  0  0  0  0
 17 41  1  0  0  0  0
 19 42  1  0  0  0  0
 20 43  1  0  0  0  0
 21 44  1  0  0  0  0
 22 45  1  0  0  0  0
 24 46  1  0  0  0  0
M  END
> <Chemgauss4 Score>
-5.18255043029785

> <Number of Confs>
78

$$$$
SAL-INS-cba-6
  -OEChem-03242005443D

 40 43  0     0  0  0  0  0  0999 V2000
   11.3371   -2.4491   23.1664 C   0  0  0  0  0  0  0  0  0  0  0  0
    6.4359   -2.1912   25.2519 C   0  0  0  0  0  0  0  0  0  0  0  0
    5.7915   -1.7214   26.3719 C   0  0  0  0  0  0  0  0  0  0  0  0
   10.5652   -5.0720   25.5588 C   0  0  0  0  0  0  0  0  0  0  0  0
    7.3698    1.3132   20.9978 C   0  0  0  0  0  0  0  0  0  0  0  0
    6.3866   -0.1795   19.7087 C   0  0  0  0  0  0  0  0  0  0  0  0
   10.2706   -3.9108   26.2396 C   0  0  0  0  0  0  0  0  0  0  0  0
   11.0097   -3.4040   24.1642 C   0  0  0  0  0  0  0  0  0  0  0  0
   10.5613   -2.8538   25.3299 C   0  0  0  0  0  0  0  0  0  0  0  0
   11.1104   -1.1766   23.6460 C   0  0  0  0  0  0  0  0  0  0  0  0
    8.0984    0.1491   20.9303 C   0  0  0  0  0  0  0  0  0  0  0  0
    7.3759   -3.1601   26.8975 C   0  0  0  0  0  0  0  0  0  0  0  0
   10.0348    0.7590   22.4215 C   0  0  0  0  0  0  0  0  0  0  0  0
    9.7652   -3.7104   27.6009 C   0  0  0  0  0  0  0  0  0  0  0  0
   11.3207    0.1048   22.9320 C   0  0  0  0  0  0  0  0  0  0  0  0
    8.2530   -4.0069   27.7872 C   0  0  0  0  0  0  0  0  0  0  0  0
    7.4210   -3.0866   25.5858 N   0  0  0  0  0  0  0  0  0  0  0  0
    7.4812   -0.7760   20.1260 N   0  0  0  0  0  0  0  0  0  0  0  0
    6.2764    1.0878   20.2099 N   0  0  0  0  0  0  0  0  0  0  0  0
   11.0134   -4.7702   24.3009 N   0  0  0  0  0  0  0  0  0  0  0  0
    6.4043   -2.3513   27.4183 N   0  0  0  0  0  0  0  0  0  0  0  0
    9.3259   -0.1027   21.5881 N   0  0  0  0  0  0  0  0  0  0  0  0
    9.7268    1.9023   22.7427 O   0  0  0  0  0  0  0  0  0  0  0  0
   10.5174   -1.1231   25.2615 S   0  0  0  0  0  0  0  0  0  0  0  0
   11.7089   -2.6762   22.1757 H   0  0  0  0  0  0  0  0  0  0  0  0
    6.2397   -1.9313   24.2221 H   0  0  0  0  0  0  0  0  0  0  0  0
    4.9819   -1.0210   26.5165 H   0  0  0  0  0  0  0  0  0  0  0  0
   10.4934   -6.1059   25.8676 H   0  0  0  0  0  0  0  0  0  0  0  0
    7.5200    2.2504   21.5147 H   0  0  0  0  0  0  0  0  0  0  0  0
    5.6427   -0.6030   19.0492 H   0  0  0  0  0  0  0  0  0  0  0  0
   10.3148   -4.3602   28.3169 H   0  0  0  0  0  0  0  0  0  0  0  0
    9.9679   -2.6810   27.9725 H   0  0  0  0  0  0  0  0  0  0  0  0
   11.8318    0.8380   23.5834 H   0  0  0  0  0  0  0  0  0  0  0  0
   11.9919   -0.0361   22.0646 H   0  0  0  0  0  0  0  0  0  0  0  0
    7.9538   -3.8339   28.8292 H   0  0  0  0  0  0  0  0  0  0  0  0
    8.0598   -5.0704   27.5971 H   0  0  0  0  0  0  0  0  0  0  0  0
    5.5230    1.7383   20.0317 H   0  0  0  0  0  0  0  0  0  0  0  0
   11.3041   -5.4134   23.5753 H   0  0  0  0  0  0  0  0  0  0  0  0
    6.1809   -2.2369   28.3982 H   0  0  0  0  0  0  0  0  0  0  0  0
    9.7387   -1.0203   21.4343 H   0  0  0  0  0  0  0  0  0  0  0  0
  1  8  1  0  0  0  0
  1 10  2  0  0  0  0
  2  3  2  0  0  0  0
  2 17  1  0  0  0  0
  3 21  1  0  0  0  0
  4  7  2  0  0  0  0
  4 20  1  0  0  0  0
  5 11  2  0  0  0  0
  5 19  1  0  0  0  0
  6 18  2  0  0  0  0
  6 19  1  0  0  0  0
  7  9  1  0  0  0  0
  7 14  1  0  0  0  0
  8  9  2  0  0  0  0
  8 20  1  0  0  0  0
  9 24  1  0  0  0  0
 10 15  1  0  0  0  0
 10 24  1  0  0  0  0
 11 18  1  0  0  0  0
 11 22  1  0  0  0  0
 12 16  1  0  0  0  0
 12 17  2  0  0  0  0
 12 21  1  0  0  0  0
 13 15  1  0  0  0  0
 13 22  1  0  0  0  0
 13 23  2  0  0  0  0
 14 16  1  0  0  0  0
  1 25  1  0  0  0  0
  2 26  1  0  0  0  0
  3 27  1  0  0  0  0
  4 28  1  0  0  0  0
  5 29  1  0  0  0  0
  6 30  1  0  0  0  0
 14 31  1  0  0  0  0
 14 32  1  0  0  0  0
 15 33  1  0  0  0  0
 15 34  1  0  0  0  0
 16 35  1  0  0  0  0
 16 36  1  0  0  0  0
 19 37  1  0  0  0  0
 20 38  1  0  0  0  0
 21 39  1  0  0  0  0
 22 40  1  0  0  0  0
M  END
> <Chemgauss4 Score>
-5.1794114112854

> <Number of Confs>
200

$$$$
DAN-LON-a5f-9
  -OEChem-03242005443D

 40 41  0     1  0  0  0  0  0999 V2000
   11.9712    0.2736   24.3930 C   0  0  0  0  0  0  0  0  0  0  0  0
   10.8691   -0.5363   24.1186 C   0  0  0  0  0  0  0  0  0  0  0  0
   13.1127    0.1915   23.5956 C   0  0  0  0  0  0  0  0  0  0  0  0
   12.0502   -1.5104   22.2496 C   0  0  0  0  0  0  0  0  0  0  0  0
   10.9087   -1.4283   23.0470 C   0  0  0  0  0  0  0  0  0  0  0  0
   13.1523   -0.7005   22.5239 C   0  0  0  0  0  0  0  0  0  0  0  0
    6.9445   -5.4027   26.3732 C   0  0  0  0  0  0  0  0  0  0  0  0
    8.9807   -4.0520   26.0111 C   0  0  0  0  0  0  0  0  0  0  0  0
    9.6508   -3.7282   24.6792 C   0  0  0  0  0  0  0  0  0  0  0  0
    6.8636   -3.1821   25.1361 C   0  0  0  0  0  0  0  0  0  0  0  0
    7.5197   -2.8722   23.7622 C   0  0  0  0  0  0  0  0  0  0  0  0
    7.2107   -4.0257   22.7808 C   0  0  0  0  0  0  0  0  0  0  0  0
    6.8381   -1.5916   23.2277 C   0  0  0  0  0  0  0  0  0  0  0  0
    9.7225   -2.3006   22.7531 C   0  0  0  0  0  0  0  0  0  0  0  0
    5.4987   -5.2673   26.7789 C   0  0  0  0  0  0  0  0  0  0  0  0
    7.5509   -4.2686   25.8365 N   0  0  0  0  0  0  0  0  0  0  0  0
    8.9734   -2.6333   23.9658 N   0  0  2  0  0  0  0  0  0  0  0  0
    7.5153   -6.4856   26.5266 O   0  0  0  0  0  0  0  0  0  0  0  0
   14.5614   -0.8022   21.5412 Cl  0  0  0  0  0  0  0  0  0  0  0  0
    5.4400   -4.0299   28.0293 Cl  0  0  0  0  0  0  0  0  0  0  0  0
   11.9400    0.9679   25.2276 H   0  0  0  0  0  0  0  0  0  0  0  0
    9.9839   -0.4657   24.7453 H   0  0  0  0  0  0  0  0  0  0  0  0
   13.9643    0.8286   23.8213 H   0  0  0  0  0  0  0  0  0  0  0  0
   12.0759   -2.2071   21.4149 H   0  0  0  0  0  0  0  0  0  0  0  0
    9.4582   -4.9268   26.4641 H   0  0  0  0  0  0  0  0  0  0  0  0
    9.0991   -3.2167   26.7122 H   0  0  0  0  0  0  0  0  0  0  0  0
   10.6876   -3.4394   24.8933 H   0  0  0  0  0  0  0  0  0  0  0  0
    9.6977   -4.6331   24.0605 H   0  0  0  0  0  0  0  0  0  0  0  0
    6.9220   -2.3054   25.7954 H   0  0  0  0  0  0  0  0  0  0  0  0
    5.8005   -3.3989   25.0055 H   0  0  0  0  0  0  0  0  0  0  0  0
    7.6696   -3.8056   21.8252 H   0  0  0  0  0  0  0  0  0  0  0  0
    6.1375   -4.1104   22.6660 H   0  0  0  0  0  0  0  0  0  0  0  0
    7.6147   -4.9461   23.1831 H   0  0  0  0  0  0  0  0  0  0  0  0
    7.2689   -1.3403   22.2669 H   0  0  0  0  0  0  0  0  0  0  0  0
    7.0051   -0.7861   23.9314 H   0  0  0  0  0  0  0  0  0  0  0  0
    5.7769   -1.7778   23.1215 H   0  0  0  0  0  0  0  0  0  0  0  0
    9.0374   -1.8000   22.0602 H   0  0  0  0  0  0  0  0  0  0  0  0
   10.0323   -3.2397   22.2827 H   0  0  0  0  0  0  0  0  0  0  0  0
    5.1550   -6.2153   27.1771 H   0  0  0  0  0  0  0  0  0  0  0  0
    4.9198   -4.9541   25.9176 H   0  0  0  0  0  0  0  0  0  0  0  0
  1  2  2  0  0  0  0
  1  3  1  0  0  0  0
  2  5  1  0  0  0  0
  3  6  2  0  0  0  0
  4  5  2  0  0  0  0
  4  6  1  0  0  0  0
  5 14  1  0  0  0  0
  6 19  1  0  0  0  0
  7 15  1  0  0  0  0
  7 16  1  0  0  0  0
  7 18  2  0  0  0  0
  8  9  1  0  0  0  0
  8 16  1  0  0  0  0
  9 17  1  0  0  0  0
 10 11  1  0  0  0  0
 10 16  1  0  0  0  0
 11 12  1  0  0  0  0
 11 13  1  0  0  0  0
 11 17  1  0  0  0  0
 14 17  1  1  0  0  0
 15 20  1  0  0  0  0
  1 21  1  0  0  0  0
  2 22  1  0  0  0  0
  3 23  1  0  0  0  0
  4 24  1  0  0  0  0
  8 25  1  0  0  0  0
  8 26  1  0  0  0  0
  9 27  1  0  0  0  0
  9 28  1  0  0  0  0
 10 29  1  0  0  0  0
 10 30  1  0  0  0  0
 12 31  1  0  0  0  0
 12 32  1  0  0  0  0
 12 33  1  0  0  0  0
 13 34  1  0  0  0  0
 13 35  1  0  0  0  0
 13 36  1  0  0  0  0
 14 37  1  0  0  0  0
 14 38  1  0  0  0  0
 15 39  1  0  0  0  0
 15 40  1  0  0  0  0
M  END
> <Chemgauss4 Score>
-5.17460155487061

> <Number of Confs>
63

$$$$
AGN-NEW-63f-2
  -OEChem-03242005443D

 48 50  0     1  0  0  0  0  0999 V2000
    7.5896   -4.3830   28.5038 C   0  0  0  0  0  0  0  0  0  0  0  0
   11.8658   -1.7822   22.1005 C   0  0  0  0  0  0  0  0  0  0  0  0
   13.2744    0.0709   22.7477 C   0  0  0  0  0  0  0  0  0  0  0  0
   11.4101   -0.5741   24.1426 C   0  0  0  0  0  0  0  0  0  0  0  0
    7.5198   -5.7618   28.3868 C   0  0  0  0  0  0  0  0  0  0  0  0
    7.9910   -5.6845   26.1395 C   0  0  0  0  0  0  0  0  0  0  0  0
    7.8769   -3.6464   27.3600 C   0  0  0  0  0  0  0  0  0  0  0  0
   12.9567   -0.9495   21.8513 C   0  0  0  0  0  0  0  0  0  0  0  0
   11.0925   -1.5945   23.2462 C   0  0  0  0  0  0  0  0  0  0  0  0
    8.0827   -4.3020   26.1512 C   0  0  0  0  0  0  0  0  0  0  0  0
   12.5011    0.2586   23.8934 C   0  0  0  0  0  0  0  0  0  0  0  0
    9.5449   -2.7541   24.8280 C   0  0  0  0  0  0  0  0  0  0  0  0
    6.1948    1.1284   20.4990 C   0  0  0  0  0  0  0  0  0  0  0  0
    6.5703    0.3605   21.5264 C   0  0  0  0  0  0  0  0  0  0  0  0
    7.0103   -1.0416   21.2969 C   0  0  0  0  0  0  0  0  0  0  0  0
    9.3285   -3.1203   22.3671 C   0  0  0  0  0  0  0  0  0  0  0  0
    7.4214   -3.7201   23.8180 C   0  0  0  0  0  0  0  0  0  0  0  0
    7.8235   -3.0453   22.5176 C   0  0  1  0  0  0  0  0  0  0  0  0
    7.9576   -2.1582   27.4573 C   0  0  0  0  0  0  0  0  0  0  0  0
   13.7842   -1.1501   20.6269 C   0  0  0  0  0  0  0  0  0  0  0  0
    7.7138   -6.4340   27.2300 N   0  0  0  0  0  0  0  0  0  0  0  0
    9.9648   -2.4547   23.5039 N   0  0  0  0  0  0  0  0  0  0  0  0
    8.3863   -3.5773   24.9264 N   0  0  0  0  0  0  0  0  0  0  0  0
    7.3595   -1.6760   22.4789 N   0  0  0  0  0  0  0  0  0  0  0  0
   10.1556   -2.3492   25.8225 O   0  0  0  0  0  0  0  0  0  0  0  0
    7.0509   -1.5463   20.1794 O   0  0  0  0  0  0  0  0  0  0  0  0
   12.8062    1.2384   24.7542 F   0  0  0  0  0  0  0  0  0  0  0  0
    7.4236   -3.9021   29.4618 H   0  0  0  0  0  0  0  0  0  0  0  0
   11.6200   -2.5775   21.4003 H   0  0  0  0  0  0  0  0  0  0  0  0
   14.1231    0.7239   22.5629 H   0  0  0  0  0  0  0  0  0  0  0  0
   10.8139   -0.4175   25.0379 H   0  0  0  0  0  0  0  0  0  0  0  0
    7.2986   -6.3818   29.2493 H   0  0  0  0  0  0  0  0  0  0  0  0
    8.1418   -6.2532   25.2267 H   0  0  0  0  0  0  0  0  0  0  0  0
    5.8740    2.1499   20.6744 H   0  0  0  0  0  0  0  0  0  0  0  0
    6.1951    0.7742   19.4740 H   0  0  0  0  0  0  0  0  0  0  0  0
    6.5557    0.7539   22.5370 H   0  0  0  0  0  0  0  0  0  0  0  0
    9.6529   -4.1594   22.3370 H   0  0  0  0  0  0  0  0  0  0  0  0
    9.6608   -2.6101   21.4638 H   0  0  0  0  0  0  0  0  0  0  0  0
    6.4546   -3.3158   24.1905 H   0  0  0  0  0  0  0  0  0  0  0  0
    7.2565   -4.8058   23.6426 H   0  0  0  0  0  0  0  0  0  0  0  0
    7.3320   -3.5523   21.6689 H   0  0  0  0  0  0  0  0  0  0  0  0
    8.9828   -1.8480   27.6905 H   0  0  0  0  0  0  0  0  0  0  0  0
    7.6537   -1.6825   26.5168 H   0  0  0  0  0  0  0  0  0  0  0  0
    7.2900   -1.7755   28.2391 H   0  0  0  0  0  0  0  0  0  0  0  0
   13.3855   -0.5567   19.7950 H   0  0  0  0  0  0  0  0  0  0  0  0
   14.8271   -0.8531   20.7977 H   0  0  0  0  0  0  0  0  0  0  0  0
   13.8000   -2.2056   20.3252 H   0  0  0  0  0  0  0  0  0  0  0  0
    7.3228   -1.1642   23.3575 H   0  0  0  0  0  0  0  0  0  0  0  0
  1  5  2  0  0  0  0
  1  7  1  0  0  0  0
  2  8  2  0  0  0  0
  2  9  1  0  0  0  0
  3  8  1  0  0  0  0
  3 11  2  0  0  0  0
  4  9  2  0  0  0  0
  4 11  1  0  0  0  0
  5 21  1  0  0  0  0
  6 10  1  0  0  0  0
  6 21  2  0  0  0  0
  7 10  2  0  0  0  0
  7 19  1  0  0  0  0
  8 20  1  0  0  0  0
  9 22  1  0  0  0  0
 10 23  1  0  0  0  0
 11 27  1  0  0  0  0
 12 22  1  0  0  0  0
 12 23  1  0  0  0  0
 12 25  2  0  0  0  0
 13 14  2  0  0  0  0
 14 15  1  0  0  0  0
 15 24  1  0  0  0  0
 15 26  2  0  0  0  0
 16 18  1  0  0  0  0
 16 22  1  0  0  0  0
 17 18  1  0  0  0  0
 17 23  1  0  0  0  0
 18 24  1  6  0  0  0
  1 28  1  0  0  0  0
  2 29  1  0  0  0  0
  3 30  1  0  0  0  0
  4 31  1  0  0  0  0
  5 32  1  0  0  0  0
  6 33  1  0  0  0  0
 13 34  1  0  0  0  0
 13 35  1  0  0  0  0
 14 36  1  0  0  0  0
 16 37  1  0  0  0  0
 16 38  1  0  0  0  0
 17 39  1  0  0  0  0
 17 40  1  0  0  0  0
 18 41  1  0  0  0  0
 19 42  1  0  0  0  0
 19 43  1  0  0  0  0
 19 44  1  0  0  0  0
 20 45  1  0  0  0  0
 20 46  1  0  0  0  0
 20 47  1  0  0  0  0
 24 48  1  0  0  0  0
M  END
> <Chemgauss4 Score>
-5.16877365112305

> <Number of Confs>
176

$$$$
TRY-UNI-714-14
  -OEChem-03242005443D

 36 37  0     1  0  0  0  0  0999 V2000
   13.8341   -0.6640   23.0477 C   0  0  0  0  0  0  0  0  0  0  0  0
   13.0466   -0.2008   24.1017 C   0  0  0  0  0  0  0  0  0  0  0  0
   13.2545   -1.4034   22.0166 C   0  0  0  0  0  0  0  0  0  0  0  0
   11.6796   -0.4771   24.1247 C   0  0  0  0  0  0  0  0  0  0  0  0
   11.8875   -1.6796   22.0396 C   0  0  0  0  0  0  0  0  0  0  0  0
    8.1102   -5.5068   28.0027 C   0  0  0  0  0  0  0  0  0  0  0  0
    8.6453   -4.9106   25.8494 C   0  0  0  0  0  0  0  0  0  0  0  0
   11.1000   -1.2165   23.0936 C   0  0  0  0  0  0  0  0  0  0  0  0
    8.4901   -3.2119   27.5067 C   0  0  0  0  0  0  0  0  0  0  0  0
    8.1724   -4.1932   28.4391 C   0  0  0  0  0  0  0  0  0  0  0  0
    8.7325   -3.5691   26.1850 C   0  0  0  0  0  0  0  0  0  0  0  0
    9.3211   -2.8341   23.8482 C   0  0  0  0  0  0  0  0  0  0  0  0
    8.5706   -1.7768   27.9235 C   0  0  0  0  0  0  0  0  0  0  0  0
    9.0290   -1.5411   21.7029 C   0  0  0  0  0  0  0  0  0  0  0  0
    9.6384   -1.5124   23.1177 C   0  0  2  0  0  0  0  0  0  0  0  0
    8.3392   -5.8922   26.7273 N   0  0  0  0  0  0  0  0  0  0  0  0
    7.9192   -3.8818   29.7871 N   0  0  0  0  0  0  0  0  0  0  0  0
    9.0603   -2.6098   25.1978 N   0  0  0  0  0  0  0  0  0  0  0  0
    9.2930   -3.9101   23.2577 O   0  0  0  0  0  0  0  0  0  0  0  0
   14.8983   -0.4477   23.0293 H   0  0  0  0  0  0  0  0  0  0  0  0
   13.4975    0.3758   24.9041 H   0  0  0  0  0  0  0  0  0  0  0  0
   13.8671   -1.7632   21.1953 H   0  0  0  0  0  0  0  0  0  0  0  0
   11.0738   -0.1123   24.9501 H   0  0  0  0  0  0  0  0  0  0  0  0
   11.4446   -2.2565   21.2320 H   0  0  0  0  0  0  0  0  0  0  0  0
    7.8670   -6.3172   28.6835 H   0  0  0  0  0  0  0  0  0  0  0  0
    8.8242   -5.2519   24.8341 H   0  0  0  0  0  0  0  0  0  0  0  0
    9.5893   -1.5341   28.2438 H   0  0  0  0  0  0  0  0  0  0  0  0
    8.2930   -1.1115   27.0982 H   0  0  0  0  0  0  0  0  0  0  0  0
    7.8822   -1.5683   28.7504 H   0  0  0  0  0  0  0  0  0  0  0  0
    9.5097   -2.2992   21.0744 H   0  0  0  0  0  0  0  0  0  0  0  0
    7.9575   -1.7696   21.7269 H   0  0  0  0  0  0  0  0  0  0  0  0
    9.1515   -0.5685   21.2135 H   0  0  0  0  0  0  0  0  0  0  0  0
    9.0892   -0.7220   23.6670 H   0  0  0  0  0  0  0  0  0  0  0  0
    7.6476   -4.6114   30.4178 H   0  0  0  0  0  0  0  0  0  0  0  0
    7.9213   -2.9234   30.0790 H   0  0  0  0  0  0  0  0  0  0  0  0
    9.1037   -1.6476   25.5267 H   0  0  0  0  0  0  0  0  0  0  0  0
  1  2  1  0  0  0  0
  1  3  2  0  0  0  0
  2  4  2  0  0  0  0
  3  5  1  0  0  0  0
  4  8  1  0  0  0  0
  5  8  2  0  0  0  0
  6 10  2  0  0  0  0
  6 16  1  0  0  0  0
  7 11  1  0  0  0  0
  7 16  2  0  0  0  0
  8 15  1  0  0  0  0
  9 10  1  0  0  0  0
  9 11  2  0  0  0  0
  9 13  1  0  0  0  0
 10 17  1  0  0  0  0
 11 18  1  0  0  0  0
 12 15  1  0  0  0  0
 12 18  1  0  0  0  0
 12 19  2  0  0  0  0
 14 15  1  6  0  0  0
  1 20  1  0  0  0  0
  2 21  1  0  0  0  0
  3 22  1  0  0  0  0
  4 23  1  0  0  0  0
  5 24  1  0  0  0  0
  6 25  1  0  0  0  0
  7 26  1  0  0  0  0
 13 27  1  0  0  0  0
 13 28  1  0  0  0  0
 13 29  1  0  0  0  0
 14 30  1  0  0  0  0
 14 31  1  0  0  0  0
 14 32  1  0  0  0  0
 15 33  1  0  0  0  0
 17 34  1  0  0  0  0
 17 35  1  0  0  0  0
 18 36  1  0  0  0  0
M  END
> <Chemgauss4 Score>
-5.1674337387085

> <Number of Confs>
16

$$$$
ANN-UNI-263-2
  -OEChem-03242005443D

 25 26  0     0  0  0  0  0  0999 V2000
   10.7336   -3.5223   24.7132 C   0  0  0  0  0  0  0  0  0  0  0  0
   11.2671   -2.4894   23.9505 C   0  0  0  0  0  0  0  0  0  0  0  0
    8.6184   -3.1000   23.7110 C   0  0  0  0  0  0  0  0  0  0  0  0
    9.2478   -6.0891   25.9041 C   0  0  0  0  0  0  0  0  0  0  0  0
    7.2171   -5.8921   26.4143 C   0  0  0  0  0  0  0  0  0  0  0  0
    9.3849   -3.8397   24.5971 C   0  0  0  0  0  0  0  0  0  0  0  0
    8.8032   -4.9036   25.3734 C   0  0  0  0  0  0  0  0  0  0  0  0
   10.4164   -1.8103   23.0931 C   0  0  0  0  0  0  0  0  0  0  0  0
   13.2014   -1.3149   21.5954 C   0  0  0  0  0  0  0  0  0  0  0  0
   12.3514   -0.3941   22.4031 C   0  0  0  0  0  0  0  0  0  0  0  0
    8.2270   -6.7178   26.5701 N   0  0  0  0  0  0  0  0  0  0  0  0
    9.1012   -2.0899   22.9533 N   0  0  0  0  0  0  0  0  0  0  0  0
   10.9750   -0.7605   22.3224 N   0  0  0  0  0  0  0  0  0  0  0  0
    7.4875   -4.7663   25.6985 O   0  0  0  0  0  0  0  0  0  0  0  0
   11.3806   -4.0705   25.3935 H   0  0  0  0  0  0  0  0  0  0  0  0
   12.3186   -2.2348   24.0347 H   0  0  0  0  0  0  0  0  0  0  0  0
    7.5591   -3.2978   23.5738 H   0  0  0  0  0  0  0  0  0  0  0  0
   10.2358   -6.5219   25.8453 H   0  0  0  0  0  0  0  0  0  0  0  0
    6.2076   -5.9978   26.7824 H   0  0  0  0  0  0  0  0  0  0  0  0
   12.8854   -1.2774   20.5424 H   0  0  0  0  0  0  0  0  0  0  0  0
   14.2540   -1.0051   21.6735 H   0  0  0  0  0  0  0  0  0  0  0  0
   13.0922   -2.3417   21.9745 H   0  0  0  0  0  0  0  0  0  0  0  0
   12.6734   -0.4373   23.4540 H   0  0  0  0  0  0  0  0  0  0  0  0
   12.4727    0.6315   22.0244 H   0  0  0  0  0  0  0  0  0  0  0  0
   10.3529   -0.2761   21.7081 H   0  0  0  0  0  0  0  0  0  0  0  0
  1  2  2  0  0  0  0
  1  6  1  0  0  0  0
  2  8  1  0  0  0  0
  3  6  2  0  0  0  0
  3 12  1  0  0  0  0
  4  7  2  0  0  0  0
  4 11  1  0  0  0  0
  5 11  2  0  0  0  0
  5 14  1  0  0  0  0
  6  7  1  0  0  0  0
  7 14  1  0  0  0  0
  8 12  2  0  0  0  0
  8 13  1  0  0  0  0
  9 10  1  0  0  0  0
 10 13  1  0  0  0  0
  1 15  1  0  0  0  0
  2 16  1  0  0  0  0
  3 17  1  0  0  0  0
  4 18  1  0  0  0  0
  5 19  1  0  0  0  0
  9 20  1  0  0  0  0
  9 21  1  0  0  0  0
  9 22  1  0  0  0  0
 10 23  1  0  0  0  0
 10 24  1  0  0  0  0
 13 25  1  0  0  0  0
M  END
> <Chemgauss4 Score>
-5.16400814056396

> <Number of Confs>
24

$$$$
ROB-UNI-b2e-10
  -OEChem-03242005443D

 45 46  0     0  0  0  0  0  0999 V2000
   12.3091   -1.5775   22.6618 C   0  0  0  0  0  0  0  0  0  0  0  0
    8.5262   -3.6283   27.0283 C   0  0  0  0  0  0  0  0  0  0  0  0
   10.9620   -2.6303   24.4108 C   0  0  0  0  0  0  0  0  0  0  0  0
   10.3550   -0.4508   23.5993 C   0  0  0  0  0  0  0  0  0  0  0  0
    7.7383   -2.4955   26.9974 C   0  0  0  0  0  0  0  0  0  0  0  0
   11.2010   -1.5524   23.5632 C   0  0  0  0  0  0  0  0  0  0  0  0
    9.8732   -2.6087   25.2989 C   0  0  0  0  0  0  0  0  0  0  0  0
    9.6095   -3.6800   26.1631 C   0  0  0  0  0  0  0  0  0  0  0  0
    9.2727   -0.4296   24.4824 C   0  0  0  0  0  0  0  0  0  0  0  0
    9.0101   -1.4937   25.3409 C   0  0  0  0  0  0  0  0  0  0  0  0
    8.3987   -5.3236   23.6148 C   0  0  0  0  0  0  0  0  0  0  0  0
    8.3629   -5.1500   22.1326 C   0  0  0  0  0  0  0  0  0  0  0  0
    5.8505    1.0785   20.6103 C   0  0  0  0  0  0  0  0  0  0  0  0
   10.4634   -4.9084   26.1959 C   0  0  0  0  0  0  0  0  0  0  0  0
    8.3878    0.7787   24.4833 C   0  0  0  0  0  0  0  0  0  0  0  0
    9.8267   -6.1105   25.4920 C   0  0  0  0  0  0  0  0  0  0  0  0
    7.4269    0.8281   23.2921 C   0  0  0  0  0  0  0  0  0  0  0  0
   13.2093   -1.5978   21.9296 N   0  0  0  0  0  0  0  0  0  0  0  0
    7.9581   -1.4406   26.1796 N   0  0  0  0  0  0  0  0  0  0  0  0
    9.5811   -5.8618   24.0968 N   0  0  0  0  0  0  0  0  0  0  0  0
    8.1171    0.8252   22.0302 N   0  0  0  0  0  0  0  0  0  0  0  0
    7.4273   -4.9942   24.2853 O   0  0  0  0  0  0  0  0  0  0  0  0
    7.0366   -1.2374   20.8930 O   0  0  0  0  0  0  0  0  0  0  0  0
    8.1197    0.5233   19.4495 O   0  0  0  0  0  0  0  0  0  0  0  0
    7.3668    0.1499   20.6315 S   0  0  0  0  0  0  0  0  0  0  0  0
    8.2971   -4.4427   27.7064 H   0  0  0  0  0  0  0  0  0  0  0  0
   11.6317   -3.4876   24.3743 H   0  0  0  0  0  0  0  0  0  0  0  0
   10.5298    0.3988   22.9419 H   0  0  0  0  0  0  0  0  0  0  0  0
    6.8776   -2.3990   27.6512 H   0  0  0  0  0  0  0  0  0  0  0  0
    7.9672   -6.0383   21.6146 H   0  0  0  0  0  0  0  0  0  0  0  0
    7.7111   -4.3176   21.8224 H   0  0  0  0  0  0  0  0  0  0  0  0
    9.3365   -4.9477   21.6582 H   0  0  0  0  0  0  0  0  0  0  0  0
    5.2573    0.7498   19.7555 H   0  0  0  0  0  0  0  0  0  0  0  0
    5.3166    0.8874   21.5424 H   0  0  0  0  0  0  0  0  0  0  0  0
    6.0966    2.1376   20.5205 H   0  0  0  0  0  0  0  0  0  0  0  0
   10.6657   -5.1789   27.2443 H   0  0  0  0  0  0  0  0  0  0  0  0
   11.4503   -4.7016   25.7517 H   0  0  0  0  0  0  0  0  0  0  0  0
    9.0151    1.6835   24.4704 H   0  0  0  0  0  0  0  0  0  0  0  0
    7.8149    0.8324   25.4224 H   0  0  0  0  0  0  0  0  0  0  0  0
   10.4911   -6.9788   25.5457 H   0  0  0  0  0  0  0  0  0  0  0  0
    8.8712   -6.3829   25.9522 H   0  0  0  0  0  0  0  0  0  0  0  0
    6.7720   -0.0490   23.2957 H   0  0  0  0  0  0  0  0  0  0  0  0
    6.7980    1.7239   23.3226 H   0  0  0  0  0  0  0  0  0  0  0  0
   10.3143   -6.0933   23.4284 H   0  0  0  0  0  0  0  0  0  0  0  0
    8.7184    1.6564   21.8410 H   0  0  0  0  0  0  0  0  0  0  0  0
  1  6  1  0  0  0  0
  1 18  3  0  0  0  0
  2  5  2  0  0  0  0
  2  8  1  0  0  0  0
  3  6  2  0  0  0  0
  3  7  1  0  0  0  0
  4  6  1  0  0  0  0
  4  9  2  0  0  0  0
  5 19  1  0  0  0  0
  7  8  2  0  0  0  0
  7 10  1  0  0  0  0
  8 14  1  0  0  0  0
  9 10  1  0  0  0  0
  9 15  1  0  0  0  0
 10 19  2  0  0  0  0
 11 12  1  0  0  0  0
 11 20  1  0  0  0  0
 11 22  2  0  0  0  0
 13 25  1  0  0  0  0
 14 16  1  0  0  0  0
 15 17  1  0  0  0  0
 16 20  1  0  0  0  0
 17 21  1  0  0  0  0
 21 25  1  0  0  0  0
 23 25  2  0  0  0  0
 24 25  2  0  0  0  0
  2 26  1  0  0  0  0
  3 27  1  0  0  0  0
  4 28  1  0  0  0  0
  5 29  1  0  0  0  0
 12 30  1  0  0  0  0
 12 31  1  0  0  0  0
 12 32  1  0  0  0  0
 13 33  1  0  0  0  0
 13 34  1  0  0  0  0
 13 35  1  0  0  0  0
 14 36  1  0  0  0  0
 14 37  1  0  0  0  0
 15 38  1  0  0  0  0
 15 39  1  0  0  0  0
 16 40  1  0  0  0  0
 16 41  1  0  0  0  0
 17 42  1  0  0  0  0
 17 43  1  0  0  0  0
 20 44  1  0  0  0  0
 21 45  1  0  0  0  0
M  END
> <Chemgauss4 Score>
-5.15886974334717

> <Number of Confs>
200

$$$$
KIM-UNI-60f-3
  -OEChem-03242005443D

 34 35  0     0  0  0  0  0  0999 V2000
    8.2249   -5.4723   26.9236 C   0  0  0  0  0  0  0  0  0  0  0  0
    8.4254   -5.1443   28.2548 C   0  0  0  0  0  0  0  0  0  0  0  0
    9.0652   -3.0027   27.7235 C   0  0  0  0  0  0  0  0  0  0  0  0
    8.4664   -4.4915   25.9681 C   0  0  0  0  0  0  0  0  0  0  0  0
    8.8949   -3.2304   26.3674 C   0  0  0  0  0  0  0  0  0  0  0  0
    8.0918   -1.3131   25.0583 C   0  0  0  0  0  0  0  0  0  0  0  0
   10.4824   -2.0822   24.8677 C   0  0  0  0  0  0  0  0  0  0  0  0
   12.0991   -1.1703   22.2220 C   0  0  0  0  0  0  0  0  0  0  0  0
    8.4031   -0.4060   23.8975 C   0  0  0  0  0  0  0  0  0  0  0  0
    9.7757    0.1814   24.1012 C   0  0  0  0  0  0  0  0  0  0  0  0
    8.2590   -4.8180   24.5255 C   0  0  0  0  0  0  0  0  0  0  0  0
   12.0746   -0.6206   23.6284 C   0  0  0  0  0  0  0  0  0  0  0  0
    8.8408   -3.9305   28.6809 N   0  0  0  0  0  0  0  0  0  0  0  0
   13.2382   -1.5667   21.7428 N   0  0  0  0  0  0  0  0  0  0  0  0
    9.1597   -2.1746   25.4114 N   0  0  0  0  0  0  0  0  0  0  0  0
   10.7525   -0.8892   24.1755 N   0  0  0  0  0  0  0  0  0  0  0  0
   10.9105   -1.2301   21.5427 N   0  0  0  0  0  0  0  0  0  0  0  0
    6.9912   -1.2468   25.6062 O   0  0  0  0  0  0  0  0  0  0  0  0
   11.3164   -2.9903   24.9474 O   0  0  0  0  0  0  0  0  0  0  0  0
    7.8902   -6.4658   26.6452 H   0  0  0  0  0  0  0  0  0  0  0  0
    8.2512   -5.8739   29.0388 H   0  0  0  0  0  0  0  0  0  0  0  0
    9.3972   -2.0386   28.0973 H   0  0  0  0  0  0  0  0  0  0  0  0
    8.3380   -0.9781   22.9656 H   0  0  0  0  0  0  0  0  0  0  0  0
    7.6561    0.3939   23.8626 H   0  0  0  0  0  0  0  0  0  0  0  0
   10.0247    0.8458   23.2668 H   0  0  0  0  0  0  0  0  0  0  0  0
    9.8372    0.7532   25.0343 H   0  0  0  0  0  0  0  0  0  0  0  0
    7.2283   -4.5915   24.2293 H   0  0  0  0  0  0  0  0  0  0  0  0
    8.9408   -4.2429   23.8870 H   0  0  0  0  0  0  0  0  0  0  0  0
    8.4547   -5.8791   24.3273 H   0  0  0  0  0  0  0  0  0  0  0  0
   12.2417    0.4596   23.6285 H   0  0  0  0  0  0  0  0  0  0  0  0
   12.8191   -1.1148   24.2576 H   0  0  0  0  0  0  0  0  0  0  0  0
   13.0908   -1.9159   20.7893 H   0  0  0  0  0  0  0  0  0  0  0  0
   10.0458   -0.9148   21.9691 H   0  0  0  0  0  0  0  0  0  0  0  0
   10.8535   -1.5864   20.5945 H   0  0  0  0  0  0  0  0  0  0  0  0
  1  2  2  0  0  0  0
  1  4  1  0  0  0  0
  2 13  1  0  0  0  0
  3  5  1  0  0  0  0
  3 13  2  0  0  0  0
  4  5  2  0  0  0  0
  4 11  1  0  0  0  0
  5 15  1  0  0  0  0
  6  9  1  0  0  0  0
  6 15  1  0  0  0  0
  6 18  2  0  0  0  0
  7 15  1  0  0  0  0
  7 16  1  0  0  0  0
  7 19  2  0  0  0  0
  8 12  1  0  0  0  0
  8 14  2  0  0  0  0
  8 17  1  0  0  0  0
  9 10  1  0  0  0  0
 10 16  1  0  0  0  0
 12 16  1  0  0  0  0
  1 20  1  0  0  0  0
  2 21  1  0  0  0  0
  3 22  1  0  0  0  0
  9 23  1  0  0  0  0
  9 24  1  0  0  0  0
 10 25  1  0  0  0  0
 10 26  1  0  0  0  0
 11 27  1  0  0  0  0
 11 28  1  0  0  0  0
 11 29  1  0  0  0  0
 12 30  1  0  0  0  0
 12 31  1  0  0  0  0
 14 32  1  0  0  0  0
 17 33  1  0  0  0  0
 17 34  1  0  0  0  0
M  END
> <Chemgauss4 Score>
-5.15618991851807

> <Number of Confs>
33

$$$$
KIM-UNI-60f-3
  -OEChem-03242005443D

 34 35  0     0  0  0  0  0  0999 V2000
    8.2249   -5.4723   26.9236 C   0  0  0  0  0  0  0  0  0  0  0  0
    8.4254   -5.1443   28.2548 C   0  0  0  0  0  0  0  0  0  0  0  0
    9.0652   -3.0027   27.7235 C   0  0  0  0  0  0  0  0  0  0  0  0
    8.4664   -4.4915   25.9681 C   0  0  0  0  0  0  0  0  0  0  0  0
    8.8949   -3.2304   26.3674 C   0  0  0  0  0  0  0  0  0  0  0  0
    8.0918   -1.3131   25.0583 C   0  0  0  0  0  0  0  0  0  0  0  0
   10.4824   -2.0822   24.8677 C   0  0  0  0  0  0  0  0  0  0  0  0
   12.0991   -1.1703   22.2220 C   0  0  0  0  0  0  0  0  0  0  0  0
    8.4031   -0.4060   23.8975 C   0  0  0  0  0  0  0  0  0  0  0  0
    9.7757    0.1814   24.1012 C   0  0  0  0  0  0  0  0  0  0  0  0
    8.2590   -4.8180   24.5255 C   0  0  0  0  0  0  0  0  0  0  0  0
   12.0746   -0.6206   23.6284 C   0  0  0  0  0  0  0  0  0  0  0  0
    8.8408   -3.9305   28.6809 N   0  0  0  0  0  0  0  0  0  0  0  0
   13.2382   -1.5667   21.7428 N   0  0  0  0  0  0  0  0  0  0  0  0
    9.1597   -2.1746   25.4114 N   0  0  0  0  0  0  0  0  0  0  0  0
   10.7525   -0.8892   24.1755 N   0  0  0  0  0  0  0  0  0  0  0  0
   10.9105   -1.2301   21.5427 N   0  0  0  0  0  0  0  0  0  0  0  0
    6.9912   -1.2468   25.6062 O   0  0  0  0  0  0  0  0  0  0  0  0
   11.3164   -2.9903   24.9474 O   0  0  0  0  0  0  0  0  0  0  0  0
    7.8902   -6.4658   26.6452 H   0  0  0  0  0  0  0  0  0  0  0  0
    8.2512   -5.8739   29.0388 H   0  0  0  0  0  0  0  0  0  0  0  0
    9.3972   -2.0386   28.0973 H   0  0  0  0  0  0  0  0  0  0  0  0
    8.3380   -0.9781   22.9656 H   0  0  0  0  0  0  0  0  0  0  0  0
    7.6561    0.3939   23.8626 H   0  0  0  0  0  0  0  0  0  0  0  0
   10.0247    0.8458   23.2668 H   0  0  0  0  0  0  0  0  0  0  0  0
    9.8372    0.7532   25.0343 H   0  0  0  0  0  0  0  0  0  0  0  0
    7.2283   -4.5915   24.2293 H   0  0  0  0  0  0  0  0  0  0  0  0
    8.9408   -4.2429   23.8870 H   0  0  0  0  0  0  0  0  0  0  0  0
    8.4547   -5.8791   24.3273 H   0  0  0  0  0  0  0  0  0  0  0  0
   12.2417    0.4596   23.6285 H   0  0  0  0  0  0  0  0  0  0  0  0
   12.8191   -1.1148   24.2576 H   0  0  0  0  0  0  0  0  0  0  0  0
   13.9627   -1.4244   22.4552 H   0  0  0  0  0  0  0  0  0  0  0  0
   10.0458   -0.9148   21.9691 H   0  0  0  0  0  0  0  0  0  0  0  0
   10.8535   -1.5864   20.5945 H   0  0  0  0  0  0  0  0  0  0  0  0
  1  2  2  0  0  0  0
  1  4  1  0  0  0  0
  2 13  1  0  0  0  0
  3  5  1  0  0  0  0
  3 13  2  0  0  0  0
  4  5  2  0  0  0  0
  4 11  1  0  0  0  0
  5 15  1  0  0  0  0
  6  9  1  0  0  0  0
  6 15  1  0  0  0  0
  6 18  2  0  0  0  0
  7 15  1  0  0  0  0
  7 16  1  0  0  0  0
  7 19  2  0  0  0  0
  8 12  1  0  0  0  0
  8 14  2  0  0  0  0
  8 17  1  0  0  0  0
  9 10  1  0  0  0  0
 10 16  1  0  0  0  0
 12 16  1  0  0  0  0
  1 20  1  0  0  0  0
  2 21  1  0  0  0  0
  3 22  1  0  0  0  0
  9 23  1  0  0  0  0
  9 24  1  0  0  0  0
 10 25  1  0  0  0  0
 10 26  1  0  0  0  0
 11 27  1  0  0  0  0
 11 28  1  0  0  0  0
 11 29  1  0  0  0  0
 12 30  1  0  0  0  0
 12 31  1  0  0  0  0
 14 32  1  0  0  0  0
 17 33  1  0  0  0  0
 17 34  1  0  0  0  0
M  END
> <Chemgauss4 Score>
-5.15618991851807

> <Number of Confs>
33

$$$$
JOH-MSK-a63-2
  -OEChem-03242005443D

 38 39  0     0  0  0  0  0  0999 V2000
    9.6460   -2.6752   26.0883 C   0  0  0  0  0  0  0  0  0  0  0  0
   10.9981   -3.9613   23.9600 C   0  0  0  0  0  0  0  0  0  0  0  0
   11.0746   -5.9105   27.0113 C   0  0  0  0  0  0  0  0  0  0  0  0
   10.2486   -3.9319   26.2956 C   0  0  0  0  0  0  0  0  0  0  0  0
   10.3612   -4.8050   27.4136 C   0  0  0  0  0  0  0  0  0  0  0  0
   10.9094   -4.5447   25.2288 C   0  0  0  0  0  0  0  0  0  0  0  0
    9.7267   -2.0796   24.8243 C   0  0  0  0  0  0  0  0  0  0  0  0
   10.3928   -2.7145   23.7779 C   0  0  0  0  0  0  0  0  0  0  0  0
    6.7171   -4.4158   26.9948 C   0  0  0  0  0  0  0  0  0  0  0  0
    6.0451   -3.3450   26.2011 C   0  0  0  0  0  0  0  0  0  0  0  0
    8.4790   -0.2779   25.7478 C   0  0  0  0  0  0  0  0  0  0  0  0
    9.8143   -4.5762   28.7664 C   0  0  0  0  0  0  0  0  0  0  0  0
    8.2957   -4.8043   28.8762 C   0  0  0  0  0  0  0  0  0  0  0  0
   11.4011   -5.7442   25.6922 N   0  0  0  0  0  0  0  0  0  0  0  0
    7.5532   -3.9443   27.9942 N   0  0  0  0  0  0  0  0  0  0  0  0
    6.4987   -5.5920   26.7292 O   0  0  0  0  0  0  0  0  0  0  0  0
   11.7231   -0.0255   23.1680 O   0  0  0  0  0  0  0  0  0  0  0  0
   12.9124   -1.9552   22.0831 O   0  0  0  0  0  0  0  0  0  0  0  0
   11.3802   -0.5228   20.7467 O   0  0  0  0  0  0  0  0  0  0  0  0
    9.1411   -0.8628   24.6294 O   0  0  0  0  0  0  0  0  0  0  0  0
   10.4637   -2.1216   22.5506 O   0  0  0  0  0  0  0  0  0  0  0  0
   11.7288   -1.1267   22.2226 S   0  0  0  0  0  0  0  0  0  0  0  0
    9.1247   -2.1728   26.8987 H   0  0  0  0  0  0  0  0  0  0  0  0
   11.5176   -4.4598   23.1480 H   0  0  0  0  0  0  0  0  0  0  0  0
   11.3803   -6.8009   27.5429 H   0  0  0  0  0  0  0  0  0  0  0  0
    6.6360   -3.0390   25.3228 H   0  0  0  0  0  0  0  0  0  0  0  0
    5.0715   -3.6680   25.7988 H   0  0  0  0  0  0  0  0  0  0  0  0
    5.8368   -2.4123   26.7494 H   0  0  0  0  0  0  0  0  0  0  0  0
    8.0568    0.6875   25.4583 H   0  0  0  0  0  0  0  0  0  0  0  0
    9.1915   -0.1454   26.5659 H   0  0  0  0  0  0  0  0  0  0  0  0
    7.6745   -0.9423   26.0720 H   0  0  0  0  0  0  0  0  0  0  0  0
   10.0258   -3.5383   29.0912 H   0  0  0  0  0  0  0  0  0  0  0  0
   10.3228   -5.2115   29.5195 H   0  0  0  0  0  0  0  0  0  0  0  0
    8.0330   -5.8328   28.6093 H   0  0  0  0  0  0  0  0  0  0  0  0
    7.9434   -4.6155   29.8956 H   0  0  0  0  0  0  0  0  0  0  0  0
   11.9270   -6.4052   25.1372 H   0  0  0  0  0  0  0  0  0  0  0  0
    7.6467   -2.9365   28.1102 H   0  0  0  0  0  0  0  0  0  0  0  0
   12.0871    0.0312   20.3397 H   0  0  0  0  0  0  0  0  0  0  0  0
  1  4  2  0  0  0  0
  1  7  1  0  0  0  0
  2  6  2  0  0  0  0
  2  8  1  0  0  0  0
  3  5  2  0  0  0  0
  3 14  1  0  0  0  0
  4  5  1  0  0  0  0
  4  6  1  0  0  0  0
  5 12  1  0  0  0  0
  6 14  1  0  0  0  0
  7  8  2  0  0  0  0
  7 20  1  0  0  0  0
  8 21  1  0  0  0  0
  9 10  1  0  0  0  0
  9 15  1  0  0  0  0
  9 16  2  0  0  0  0
 11 20  1  0  0  0  0
 12 13  1  0  0  0  0
 13 15  1  0  0  0  0
 17 22  2  0  0  0  0
 18 22  2  0  0  0  0
 19 22  1  0  0  0  0
 21 22  1  0  0  0  0
  1 23  1  0  0  0  0
  2 24  1  0  0  0  0
  3 25  1  0  0  0  0
 10 26  1  0  0  0  0
 10 27  1  0  0  0  0
 10 28  1  0  0  0  0
 11 29  1  0  0  0  0
 11 30  1  0  0  0  0
 11 31  1  0  0  0  0
 12 32  1  0  0  0  0
 12 33  1  0  0  0  0
 13 34  1  0  0  0  0
 13 35  1  0  0  0  0
 14 36  1  0  0  0  0
 15 37  1  0  0  0  0
 19 38  1  0  0  0  0
M  END
> <Chemgauss4 Score>
-5.15551376342773

> <Number of Confs>
200

$$$$
SAL-INS-316-4
  -OEChem-03242005443D

 46 49  0     0  0  0  0  0  0999 V2000
    5.2095   -2.6137   25.7540 C   0  0  0  0  0  0  0  0  0  0  0  0
    5.4507   -3.0789   24.4828 C   0  0  0  0  0  0  0  0  0  0  0  0
    9.6167   -5.9531   25.1003 C   0  0  0  0  0  0  0  0  0  0  0  0
   10.5683   -1.7559   25.8805 C   0  0  0  0  0  0  0  0  0  0  0  0
    9.0051   -5.2772   26.1336 C   0  0  0  0  0  0  0  0  0  0  0  0
   11.0491   -2.6192   24.9191 C   0  0  0  0  0  0  0  0  0  0  0  0
   10.4368   -3.8912   25.0662 C   0  0  0  0  0  0  0  0  0  0  0  0
    9.5429   -3.9587   26.0953 C   0  0  0  0  0  0  0  0  0  0  0  0
    6.0308   -4.5610   26.0071 C   0  0  0  0  0  0  0  0  0  0  0  0
   10.9645   -0.1707   23.1892 C   0  0  0  0  0  0  0  0  0  0  0  0
   10.3235   -2.3222   22.0242 C   0  0  0  0  0  0  0  0  0  0  0  0
   10.3066    0.6283   22.0682 C   0  0  0  0  0  0  0  0  0  0  0  0
    9.6677   -1.5170   20.9064 C   0  0  0  0  0  0  0  0  0  0  0  0
   11.4595   -1.5371   22.6948 C   0  0  0  0  0  0  0  0  0  0  0  0
    9.1798   -0.1580   21.4015 C   0  0  0  0  0  0  0  0  0  0  0  0
   12.0640   -2.3400   23.8451 C   0  0  0  0  0  0  0  0  0  0  0  0
    8.0104   -5.7329   27.1089 C   0  0  0  0  0  0  0  0  0  0  0  0
    6.5649   -5.8608   26.5578 C   0  0  0  0  0  0  0  0  0  0  0  0
    5.5731   -3.5409   26.6984 N   0  0  0  0  0  0  0  0  0  0  0  0
   10.4852   -5.1176   24.4506 N   0  0  0  0  0  0  0  0  0  0  0  0
    5.9771   -4.3273   24.6611 N   0  0  0  0  0  0  0  0  0  0  0  0
    8.6757    0.5761   20.2911 O   0  0  0  0  0  0  0  0  0  0  0  0
    9.4058   -2.4533   26.9419 S   0  0  0  0  0  0  0  0  0  0  0  0
    4.7941   -1.6579   26.0373 H   0  0  0  0  0  0  0  0  0  0  0  0
    5.3012   -2.6523   23.5017 H   0  0  0  0  0  0  0  0  0  0  0  0
    9.5070   -6.9757   24.7662 H   0  0  0  0  0  0  0  0  0  0  0  0
   10.8452   -0.7205   26.0230 H   0  0  0  0  0  0  0  0  0  0  0  0
   11.8026    0.4047   23.5999 H   0  0  0  0  0  0  0  0  0  0  0  0
   10.2437   -0.3073   24.0057 H   0  0  0  0  0  0  0  0  0  0  0  0
    9.5637   -2.5900   22.7697 H   0  0  0  0  0  0  0  0  0  0  0  0
   10.7107   -3.2623   21.6139 H   0  0  0  0  0  0  0  0  0  0  0  0
    9.9153    1.5747   22.4610 H   0  0  0  0  0  0  0  0  0  0  0  0
   11.0585    0.9076   21.3184 H   0  0  0  0  0  0  0  0  0  0  0  0
   10.3775   -1.3772   20.0807 H   0  0  0  0  0  0  0  0  0  0  0  0
    8.8284   -2.0811   20.4823 H   0  0  0  0  0  0  0  0  0  0  0  0
   12.2489   -1.3688   21.9497 H   0  0  0  0  0  0  0  0  0  0  0  0
    8.3559   -0.2984   22.1114 H   0  0  0  0  0  0  0  0  0  0  0  0
   12.9122   -1.7907   24.2659 H   0  0  0  0  0  0  0  0  0  0  0  0
   12.4682   -3.2812   23.4590 H   0  0  0  0  0  0  0  0  0  0  0  0
    8.2936   -6.7295   27.5135 H   0  0  0  0  0  0  0  0  0  0  0  0
    7.9840   -5.0819   28.0114 H   0  0  0  0  0  0  0  0  0  0  0  0
    5.8830   -6.2056   27.3460 H   0  0  0  0  0  0  0  0  0  0  0  0
    6.5339   -6.6352   25.7808 H   0  0  0  0  0  0  0  0  0  0  0  0
   11.0735   -5.3320   23.6551 H   0  0  0  0  0  0  0  0  0  0  0  0
    6.2700   -4.9620   23.9300 H   0  0  0  0  0  0  0  0  0  0  0  0
    8.3467    1.4191   20.6414 H   0  0  0  0  0  0  0  0  0  0  0  0
  1  2  2  0  0  0  0
  1 19  1  0  0  0  0
  2 21  1  0  0  0  0
  3  5  2  0  0  0  0
  3 20  1  0  0  0  0
  4  6  2  0  0  0  0
  4 23  1  0  0  0  0
  5  8  1  0  0  0  0
  5 17  1  0  0  0  0
  6  7  1  0  0  0  0
  6 16  1  0  0  0  0
  7  8  2  0  0  0  0
  7 20  1  0  0  0  0
  8 23  1  0  0  0  0
  9 18  1  0  0  0  0
  9 19  2  0  0  0  0
  9 21  1  0  0  0  0
 10 12  1  0  0  0  0
 10 14  1  0  0  0  0
 11 13  1  0  0  0  0
 11 14  1  0  0  0  0
 12 15  1  0  0  0  0
 13 15  1  0  0  0  0
 14 16  1  0  0  0  0
 15 22  1  0  0  0  0
 17 18  1  0  0  0  0
  1 24  1  0  0  0  0
  2 25  1  0  0  0  0
  3 26  1  0  0  0  0
  4 27  1  0  0  0  0
 10 28  1  0  0  0  0
 10 29  1  0  0  0  0
 11 30  1  0  0  0  0
 11 31  1  0  0  0  0
 12 32  1  0  0  0  0
 12 33  1  0  0  0  0
 13 34  1  0  0  0  0
 13 35  1  0  0  0  0
 14 36  1  0  0  0  0
 15 37  1  0  0  0  0
 16 38  1  0  0  0  0
 16 39  1  0  0  0  0
 17 40  1  0  0  0  0
 17 41  1  0  0  0  0
 18 42  1  0  0  0  0
 18 43  1  0  0  0  0
 20 44  1  0  0  0  0
 21 45  1  0  0  0  0
 22 46  1  0  0  0  0
M  END
> <Chemgauss4 Score>
-5.15358543395996

> <Number of Confs>
200

$$$$
JOH-MEM-5e3-5
  -OEChem-03242005443D

 48 51  0     1  0  0  0  0  0999 V2000
   10.5718   -2.6309   22.8000 C   0  0  0  0  0  0  0  0  0  0  0  0
   10.6989   -2.9682   24.1509 C   0  0  0  0  0  0  0  0  0  0  0  0
    8.7498   -1.6393   24.7344 C   0  0  0  0  0  0  0  0  0  0  0  0
    8.5985   -1.2833   23.3815 C   0  0  0  0  0  0  0  0  0  0  0  0
    7.6951   -0.4868   22.6574 C   0  0  0  0  0  0  0  0  0  0  0  0
    9.5156   -1.7877   22.4360 C   0  0  0  0  0  0  0  0  0  0  0  0
    9.8045   -2.4820   25.1031 C   0  0  0  0  0  0  0  0  0  0  0  0
    8.0667   -0.5238   21.3473 C   0  0  0  0  0  0  0  0  0  0  0  0
    7.1160   -5.5166   24.7933 C   0  0  0  0  0  0  0  0  0  0  0  0
    7.4517    0.3238   19.1702 C   0  0  0  0  0  0  0  0  0  0  0  0
    6.4948    0.3630   22.8528 C   0  0  0  0  0  0  0  0  0  0  0  0
    6.1948    0.8477   21.3852 C   0  0  0  0  0  0  0  0  0  0  0  0
    7.7196   -4.5798   25.7889 C   0  0  1  0  0  0  0  0  0  0  0  0
    7.0739   -4.7612   27.1610 C   0  0  1  0  0  0  0  0  0  0  0  0
    7.8861   -4.0307   28.2309 C   0  0  2  0  0  0  0  0  0  0  0  0
    9.3666   -4.4067   28.1442 C   0  0  2  0  0  0  0  0  0  0  0  0
    9.8948   -4.2188   26.7221 C   0  0  1  0  0  0  0  0  0  0  0  0
    6.4442    1.1942   18.4615 C   0  0  0  0  0  0  0  0  0  0  0  0
    9.1593   -1.2987   21.1847 N   0  0  0  0  0  0  0  0  0  0  0  0
    7.2557    0.2214   20.5310 N   0  0  0  0  0  0  0  0  0  0  0  0
    7.7187   -6.4067   24.2121 O   0  0  0  0  0  0  0  0  0  0  0  0
    8.3525   -0.2244   18.5342 O   0  0  0  0  0  0  0  0  0  0  0  0
    9.0952   -4.9503   25.7865 O   0  0  0  0  0  0  0  0  0  0  0  0
    5.8000   -5.2445   24.6166 O   0  0  0  0  0  0  0  0  0  0  0  0
    5.7472   -4.2356   27.1371 O   0  0  0  0  0  0  0  0  0  0  0  0
    7.3718   -4.3629   29.5180 O   0  0  0  0  0  0  0  0  0  0  0  0
    9.5422   -5.7795   28.4966 O   0  0  0  0  0  0  0  0  0  0  0  0
    9.9578   -2.8310   26.4120 O   0  0  0  0  0  0  0  0  0  0  0  0
   11.2705   -3.0119   22.0625 H   0  0  0  0  0  0  0  0  0  0  0  0
   11.5126   -3.6222   24.4564 H   0  0  0  0  0  0  0  0  0  0  0  0
    8.0576   -1.2650   25.4838 H   0  0  0  0  0  0  0  0  0  0  0  0
    5.6548   -0.2137   23.2507 H   0  0  0  0  0  0  0  0  0  0  0  0
    6.7072    1.2135   23.5070 H   0  0  0  0  0  0  0  0  0  0  0  0
    5.2118    0.5127   21.0387 H   0  0  0  0  0  0  0  0  0  0  0  0
    6.2589    1.9370   21.2952 H   0  0  0  0  0  0  0  0  0  0  0  0
    7.5982   -3.5608   25.4036 H   0  0  0  0  0  0  0  0  0  0  0  0
    6.9924   -5.8306   27.4217 H   0  0  0  0  0  0  0  0  0  0  0  0
    7.7614   -2.9485   28.1085 H   0  0  0  0  0  0  0  0  0  0  0  0
    9.9408   -3.8063   28.8588 H   0  0  0  0  0  0  0  0  0  0  0  0
   10.9099   -4.6282   26.6546 H   0  0  0  0  0  0  0  0  0  0  0  0
    6.8089    2.2157   18.4431 H   0  0  0  0  0  0  0  0  0  0  0  0
    5.4987    1.1472   18.9922 H   0  0  0  0  0  0  0  0  0  0  0  0
    6.3106    0.8293   17.4483 H   0  0  0  0  0  0  0  0  0  0  0  0
    9.6410   -1.4965   20.3178 H   0  0  0  0  0  0  0  0  0  0  0  0
    5.3854   -5.8485   23.9642 H   0  0  0  0  0  0  0  0  0  0  0  0
    5.8283   -3.2958   26.9140 H   0  0  0  0  0  0  0  0  0  0  0  0
    7.9117   -3.8816   30.1640 H   0  0  0  0  0  0  0  0  0  0  0  0
   10.4913   -5.9606   28.4247 H   0  0  0  0  0  0  0  0  0  0  0  0
  1  2  2  0  0  0  0
  1  6  1  0  0  0  0
  2  7  1  0  0  0  0
  3  4  1  0  0  0  0
  3  7  2  0  0  0  0
  4  5  1  0  0  0  0
  4  6  2  0  0  0  0
  5  8  2  0  0  0  0
  5 11  1  0  0  0  0
  6 19  1  0  0  0  0
  7 28  1  0  0  0  0
  8 19  1  0  0  0  0
  8 20  1  0  0  0  0
  9 13  1  1  0  0  0
  9 21  2  0  0  0  0
  9 24  1  0  0  0  0
 10 18  1  0  0  0  0
 10 20  1  0  0  0  0
 10 22  2  0  0  0  0
 11 12  1  0  0  0  0
 12 20  1  0  0  0  0
 13 14  1  0  0  0  0
 13 23  1  0  0  0  0
 14 15  1  0  0  0  0
 14 25  1  6  0  0  0
 15 16  1  0  0  0  0
 15 26  1  1  0  0  0
 16 17  1  0  0  0  0
 16 27  1  1  0  0  0
 17 23  1  0  0  0  0
 17 28  1  1  0  0  0
  1 29  1  0  0  0  0
  2 30  1  0  0  0  0
  3 31  1  0  0  0  0
 11 32  1  0  0  0  0
 11 33  1  0  0  0  0
 12 34  1  0  0  0  0
 12 35  1  0  0  0  0
 13 36  1  0  0  0  0
 14 37  1  0  0  0  0
 15 38  1  0  0  0  0
 16 39  1  0  0  0  0
 17 40  1  0  0  0  0
 18 41  1  0  0  0  0
 18 42  1  0  0  0  0
 18 43  1  0  0  0  0
 19 44  1  0  0  0  0
 24 45  1  0  0  0  0
 25 46  1  0  0  0  0
 26 47  1  0  0  0  0
 27 48  1  0  0  0  0
M  END
> <Chemgauss4 Score>
-5.15338468551636

> <Number of Confs>
109

$$$$
DAR-DIA-033-12
  -OEChem-03242005443D

 59 62  0     0  0  0  0  0  0999 V2000
    6.8287   -4.9301   23.9294 C   0  0  0  0  0  0  0  0  0  0  0  0
    6.8191   -6.0490   24.7514 C   0  0  0  0  0  0  0  0  0  0  0  0
   10.3041   -4.1600   26.7896 C   0  0  0  0  0  0  0  0  0  0  0  0
    8.7040   -4.1430   25.1965 C   0  0  0  0  0  0  0  0  0  0  0  0
    9.7988   -3.4213   25.7415 C   0  0  0  0  0  0  0  0  0  0  0  0
    7.7908   -3.9458   24.1482 C   0  0  0  0  0  0  0  0  0  0  0  0
    8.5801   -5.3115   25.9425 C   0  0  0  0  0  0  0  0  0  0  0  0
   11.1331   -2.2179   24.0099 C   0  0  0  0  0  0  0  0  0  0  0  0
    6.9851   -2.4740   22.2599 C   0  0  0  0  0  0  0  0  0  0  0  0
    5.7625    1.7470   19.0760 C   0  0  0  0  0  0  0  0  0  0  0  0
    4.7853    0.9310   19.9175 C   0  0  0  0  0  0  0  0  0  0  0  0
    6.9283    0.8950   18.5823 C   0  0  0  0  0  0  0  0  0  0  0  0
    5.4911    0.2227   21.0725 C   0  0  0  0  0  0  0  0  0  0  0  0
    7.6370    0.1872   19.7359 C   0  0  0  0  0  0  0  0  0  0  0  0
   11.5858    0.2791   24.1382 C   0  0  0  0  0  0  0  0  0  0  0  0
   12.6110   -1.0993   22.3738 C   0  0  0  0  0  0  0  0  0  0  0  0
   11.2888    1.3529   23.0898 C   0  0  0  0  0  0  0  0  0  0  0  0
   12.2892   -0.0029   21.3589 C   0  0  0  0  0  0  0  0  0  0  0  0
    6.6540   -0.6406   20.5710 C   0  0  0  0  0  0  0  0  0  0  0  0
   12.0048    2.3670   21.0237 C   0  0  0  0  0  0  0  0  0  0  0  0
   10.3267   -2.0962   25.2782 C   0  0  0  0  0  0  0  0  0  0  0  0
    7.6722   -6.2913   25.7737 N   0  0  0  0  0  0  0  0  0  0  0  0
    9.5578   -5.3043   26.9022 N   0  0  0  0  0  0  0  0  0  0  0  0
   11.7046   -1.0445   23.5196 N   0  0  0  0  0  0  0  0  0  0  0  0
   12.2800    1.3179   22.0045 N   0  0  0  0  0  0  0  0  0  0  0  0
    7.8271   -2.8099   23.3398 N   0  0  0  0  0  0  0  0  0  0  0  0
    7.3508   -1.2430   21.7058 N   0  0  0  0  0  0  0  0  0  0  0  0
   11.2476   -3.3214   23.4705 O   0  0  0  0  0  0  0  0  0  0  0  0
    6.0487   -3.1485   21.8382 O   0  0  0  0  0  0  0  0  0  0  0  0
    6.0964   -4.8329   23.1335 H   0  0  0  0  0  0  0  0  0  0  0  0
    6.0763   -6.8267   24.5945 H   0  0  0  0  0  0  0  0  0  0  0  0
   11.1273   -3.9753   27.4661 H   0  0  0  0  0  0  0  0  0  0  0  0
    5.2364    2.1837   18.2198 H   0  0  0  0  0  0  0  0  0  0  0  0
    6.1490    2.5817   19.6738 H   0  0  0  0  0  0  0  0  0  0  0  0
    4.0015    1.5874   20.3120 H   0  0  0  0  0  0  0  0  0  0  0  0
    4.2895    0.1868   19.2821 H   0  0  0  0  0  0  0  0  0  0  0  0
    6.5583    0.1482   17.8689 H   0  0  0  0  0  0  0  0  0  0  0  0
    7.6433    1.5260   18.0424 H   0  0  0  0  0  0  0  0  0  0  0  0
    5.8606    0.9742   21.7823 H   0  0  0  0  0  0  0  0  0  0  0  0
    4.7648   -0.3988   21.6099 H   0  0  0  0  0  0  0  0  0  0  0  0
    8.4249   -0.4592   19.3307 H   0  0  0  0  0  0  0  0  0  0  0  0
    8.1285    0.9371   20.3693 H   0  0  0  0  0  0  0  0  0  0  0  0
   12.5405    0.4852   24.6380 H   0  0  0  0  0  0  0  0  0  0  0  0
   10.8086    0.3006   24.9046 H   0  0  0  0  0  0  0  0  0  0  0  0
   12.5621   -2.0790   21.8874 H   0  0  0  0  0  0  0  0  0  0  0  0
   13.6301   -0.9782   22.7616 H   0  0  0  0  0  0  0  0  0  0  0  0
   10.2721    1.2135   22.6989 H   0  0  0  0  0  0  0  0  0  0  0  0
   11.3171    2.3313   23.5845 H   0  0  0  0  0  0  0  0  0  0  0  0
   13.0560   -0.0260   20.5752 H   0  0  0  0  0  0  0  0  0  0  0  0
   11.3243   -0.2147   20.8791 H   0  0  0  0  0  0  0  0  0  0  0  0
    6.2719   -1.4674   19.9795 H   0  0  0  0  0  0  0  0  0  0  0  0
   12.7555    2.3251   20.2208 H   0  0  0  0  0  0  0  0  0  0  0  0
   11.0025    2.2157   20.5966 H   0  0  0  0  0  0  0  0  0  0  0  0
   12.0490    3.3498   21.5159 H   0  0  0  0  0  0  0  0  0  0  0  0
    9.5021   -1.4036   25.1007 H   0  0  0  0  0  0  0  0  0  0  0  0
   10.9562   -1.6408   26.0443 H   0  0  0  0  0  0  0  0  0  0  0  0
    9.7056   -6.0320   27.5877 H   0  0  0  0  0  0  0  0  0  0  0  0
    8.5565   -2.1193   23.5471 H   0  0  0  0  0  0  0  0  0  0  0  0
    8.1370   -0.7447   22.1108 H   0  0  0  0  0  0  0  0  0  0  0  0
  1  2  1  0  0  0  0
  1  6  2  0  0  0  0
  2 22  2  0  0  0  0
  3  5  2  0  0  0  0
  3 23  1  0  0  0  0
  4  5  1  0  0  0  0
  4  6  1  0  0  0  0
  4  7  2  0  0  0  0
  5 21  1  0  0  0  0
  6 26  1  0  0  0  0
  7 22  1  0  0  0  0
  7 23  1  0  0  0  0
  8 21  1  0  0  0  0
  8 24  1  0  0  0  0
  8 28  2  0  0  0  0
  9 26  1  0  0  0  0
  9 27  1  0  0  0  0
  9 29  2  0  0  0  0
 10 11  1  0  0  0  0
 10 12  1  0  0  0  0
 11 13  1  0  0  0  0
 12 14  1  0  0  0  0
 13 19  1  0  0  0  0
 14 19  1  0  0  0  0
 15 17  1  0  0  0  0
 15 24  1  0  0  0  0
 16 18  1  0  0  0  0
 16 24  1  0  0  0  0
 17 25  1  0  0  0  0
 18 25  1  0  0  0  0
 19 27  1  0  0  0  0
 20 25  1  0  0  0  0
  1 30  1  0  0  0  0
  2 31  1  0  0  0  0
  3 32  1  0  0  0  0
 10 33  1  0  0  0  0
 10 34  1  0  0  0  0
 11 35  1  0  0  0  0
 11 36  1  0  0  0  0
 12 37  1  0  0  0  0
 12 38  1  0  0  0  0
 13 39  1  0  0  0  0
 13 40  1  0  0  0  0
 14 41  1  0  0  0  0
 14 42  1  0  0  0  0
 15 43  1  0  0  0  0
 15 44  1  0  0  0  0
 16 45  1  0  0  0  0
 16 46  1  0  0  0  0
 17 47  1  0  0  0  0
 17 48  1  0  0  0  0
 18 49  1  0  0  0  0
 18 50  1  0  0  0  0
 19 51  1  0  0  0  0
 20 52  1  0  0  0  0
 20 53  1  0  0  0  0
 20 54  1  0  0  0  0
 21 55  1  0  0  0  0
 21 56  1  0  0  0  0
 23 57  1  0  0  0  0
 26 58  1  0  0  0  0
 27 59  1  0  0  0  0
M  END
> <Chemgauss4 Score>
-5.14544582366943

> <Number of Confs>
178

$$$$
CHR-SOS-70e-7
  -OEChem-03242005443D

 41 43  0     0  0  0  0  0  0999 V2000
    6.8698   -2.2536   24.7037 C   0  0  0  0  0  0  0  0  0  0  0  0
    7.9414   -6.2634   27.6354 C   0  0  0  0  0  0  0  0  0  0  0  0
    8.6880   -5.8104   26.5534 C   0  0  0  0  0  0  0  0  0  0  0  0
    7.9594   -1.7260   24.0109 C   0  0  0  0  0  0  0  0  0  0  0  0
    6.4373   -3.5529   24.4381 C   0  0  0  0  0  0  0  0  0  0  0  0
    8.1840   -3.7969   22.7870 C   0  0  0  0  0  0  0  0  0  0  0  0
    7.7763   -5.4082   28.7130 C   0  0  0  0  0  0  0  0  0  0  0  0
    9.0156   -3.7562   27.7064 C   0  0  0  0  0  0  0  0  0  0  0  0
    9.2389   -4.5341   26.5817 C   0  0  0  0  0  0  0  0  0  0  0  0
    8.6165   -2.4976   23.0525 C   0  0  0  0  0  0  0  0  0  0  0  0
    7.0943   -4.3245   23.4798 C   0  0  0  0  0  0  0  0  0  0  0  0
   10.6140   -2.7996   25.3806 C   0  0  0  0  0  0  0  0  0  0  0  0
   10.7954   -0.1529   23.6544 C   0  0  0  0  0  0  0  0  0  0  0  0
   11.7316   -0.5660   22.5527 C   0  0  0  0  0  0  0  0  0  0  0  0
   10.8065   -1.5783   23.1722 C   0  0  0  0  0  0  0  0  0  0  0  0
   11.3510   -2.6577   24.0449 C   0  0  0  0  0  0  0  0  0  0  0  0
    8.2960   -4.1619   28.7766 N   0  0  0  0  0  0  0  0  0  0  0  0
    5.4162   -5.6710   21.9063 N   0  0  0  0  0  0  0  0  0  0  0  0
   10.0036   -4.0453   25.4959 N   0  0  0  0  0  0  0  0  0  0  0  0
   10.6057   -1.8865   26.1996 O   0  0  0  0  0  0  0  0  0  0  0  0
    7.6734   -6.7047   22.6007 O   0  0  0  0  0  0  0  0  0  0  0  0
    5.8511   -6.4527   24.3223 O   0  0  0  0  0  0  0  0  0  0  0  0
    9.6810   -1.9816   22.3746 O   0  0  0  0  0  0  0  0  0  0  0  0
    6.5542   -5.9520   23.1494 S   0  0  0  0  0  0  0  0  0  0  0  0
    6.3580   -1.6527   25.4495 H   0  0  0  0  0  0  0  0  0  0  0  0
    7.5026   -7.2547   27.6351 H   0  0  0  0  0  0  0  0  0  0  0  0
    8.8341   -6.4595   25.6941 H   0  0  0  0  0  0  0  0  0  0  0  0
    8.2913   -0.7132   24.2221 H   0  0  0  0  0  0  0  0  0  0  0  0
    5.5881   -3.9546   24.9843 H   0  0  0  0  0  0  0  0  0  0  0  0
    8.6994   -4.3942   22.0387 H   0  0  0  0  0  0  0  0  0  0  0  0
    7.2032   -5.7147   29.5819 H   0  0  0  0  0  0  0  0  0  0  0  0
    9.4196   -2.7514   27.7872 H   0  0  0  0  0  0  0  0  0  0  0  0
   11.2271    0.0699   24.6227 H   0  0  0  0  0  0  0  0  0  0  0  0
    9.9507    0.4714   23.3892 H   0  0  0  0  0  0  0  0  0  0  0  0
   11.5139   -0.2179   21.5500 H   0  0  0  0  0  0  0  0  0  0  0  0
   12.7882   -0.6195   22.7857 H   0  0  0  0  0  0  0  0  0  0  0  0
   12.4165   -2.4753   24.2763 H   0  0  0  0  0  0  0  0  0  0  0  0
   11.2992   -3.6377   23.5361 H   0  0  0  0  0  0  0  0  0  0  0  0
    5.6638   -5.9599   20.9521 H   0  0  0  0  0  0  0  0  0  0  0  0
    4.4201   -5.7862   22.1297 H   0  0  0  0  0  0  0  0  0  0  0  0
   10.1123   -4.6897   24.7155 H   0  0  0  0  0  0  0  0  0  0  0  0
  1  4  1  0  0  0  0
  1  5  2  0  0  0  0
  2  3  2  0  0  0  0
  2  7  1  0  0  0  0
  3  9  1  0  0  0  0
  4 10  2  0  0  0  0
  5 11  1  0  0  0  0
  6 10  1  0  0  0  0
  6 11  2  0  0  0  0
  7 17  2  0  0  0  0
  8  9  2  0  0  0  0
  8 17  1  0  0  0  0
  9 19  1  0  0  0  0
 10 23  1  0  0  0  0
 11 24  1  0  0  0  0
 12 16  1  0  0  0  0
 12 19  1  0  0  0  0
 12 20  2  0  0  0  0
 13 14  1  0  0  0  0
 13 15  1  0  0  0  0
 14 15  1  0  0  0  0
 15 16  1  0  0  0  0
 15 23  1  0  0  0  0
 18 24  1  0  0  0  0
 21 24  2  0  0  0  0
 22 24  2  0  0  0  0
  1 25  1  0  0  0  0
  2 26  1  0  0  0  0
  3 27  1  0  0  0  0
  4 28  1  0  0  0  0
  5 29  1  0  0  0  0
  6 30  1  0  0  0  0
  7 31  1  0  0  0  0
  8 32  1  0  0  0  0
 13 33  1  0  0  0  0
 13 34  1  0  0  0  0
 14 35  1  0  0  0  0
 14 36  1  0  0  0  0
 16 37  1  0  0  0  0
 16 38  1  0  0  0  0
 18 39  1  0  0  0  0
 18 40  1  0  0  0  0
 19 41  1  0  0  0  0
M  END
> <Chemgauss4 Score>
-5.14413690567017

> <Number of Confs>
200

$$$$
JOH-MEM-5e3-5
  -OEChem-03242005443D

 48 51  0     1  0  0  0  0  0999 V2000
   10.8730   -1.9708   22.0392 C   0  0  0  0  0  0  0  0  0  0  0  0
   11.0924   -2.3405   23.3695 C   0  0  0  0  0  0  0  0  0  0  0  0
    8.8951   -1.5355   24.0250 C   0  0  0  0  0  0  0  0  0  0  0  0
    8.6477   -1.1532   22.6936 C   0  0  0  0  0  0  0  0  0  0  0  0
    7.5746   -0.5520   22.0142 C   0  0  0  0  0  0  0  0  0  0  0  0
    9.6448   -1.3789   21.7219 C   0  0  0  0  0  0  0  0  0  0  0  0
   10.1217   -2.1275   24.3470 C   0  0  0  0  0  0  0  0  0  0  0  0
    7.9277   -0.4315   20.7040 C   0  0  0  0  0  0  0  0  0  0  0  0
    6.3303   -3.7614   26.2625 C   0  0  0  0  0  0  0  0  0  0  0  0
    7.1045    0.3638   18.5766 C   0  0  0  0  0  0  0  0  0  0  0  0
    6.2121   -0.0171   22.2559 C   0  0  0  0  0  0  0  0  0  0  0  0
    5.7887    0.4618   20.8171 C   0  0  0  0  0  0  0  0  0  0  0  0
    7.7358   -3.3001   26.5940 C   0  0  1  0  0  0  0  0  0  0  0  0
    7.9687   -3.5901   28.0733 C   0  0  1  0  0  0  0  0  0  0  0  0
    9.4369   -3.3546   28.4483 C   0  0  1  0  0  0  0  0  0  0  0  0
   10.3696   -4.0804   27.4744 C   0  0  2  0  0  0  0  0  0  0  0  0
    9.9953   -3.8227   26.0077 C   0  0  1  0  0  0  0  0  0  0  0  0
    5.9131    1.0117   17.9167 C   0  0  0  0  0  0  0  0  0  0  0  0
    9.1685   -0.9206   20.4993 N   0  0  0  0  0  0  0  0  0  0  0  0
    6.9551    0.1463   19.9298 N   0  0  0  0  0  0  0  0  0  0  0  0
    5.5463   -4.2528   27.0607 O   0  0  0  0  0  0  0  0  0  0  0  0
    8.0999    0.0754   17.9115 O   0  0  0  0  0  0  0  0  0  0  0  0
    8.6066   -4.0744   25.7762 O   0  0  0  0  0  0  0  0  0  0  0  0
    6.0564   -3.5573   24.9508 O   0  0  0  0  0  0  0  0  0  0  0  0
    7.1285   -2.7787   28.8885 O   0  0  0  0  0  0  0  0  0  0  0  0
    9.7382   -1.9601   28.3982 O   0  0  0  0  0  0  0  0  0  0  0  0
   10.3213   -5.4826   27.7302 O   0  0  0  0  0  0  0  0  0  0  0  0
   10.3687   -2.5003   25.6348 O   0  0  0  0  0  0  0  0  0  0  0  0
   11.6316   -2.1386   21.2819 H   0  0  0  0  0  0  0  0  0  0  0  0
   12.0398   -2.8020   23.6388 H   0  0  0  0  0  0  0  0  0  0  0  0
    8.1445   -1.3733   24.7938 H   0  0  0  0  0  0  0  0  0  0  0  0
    5.5345   -0.7940   22.6217 H   0  0  0  0  0  0  0  0  0  0  0  0
    6.2289    0.8236   22.9556 H   0  0  0  0  0  0  0  0  0  0  0  0
    4.9063   -0.0743   20.4528 H   0  0  0  0  0  0  0  0  0  0  0  0
    5.5963    1.5391   20.7867 H   0  0  0  0  0  0  0  0  0  0  0  0
    7.7926   -2.2358   26.3662 H   0  0  0  0  0  0  0  0  0  0  0  0
    7.7210   -4.6432   28.2874 H   0  0  0  0  0  0  0  0  0  0  0  0
    9.6093   -3.6889   29.4787 H   0  0  0  0  0  0  0  0  0  0  0  0
   11.4076   -3.7415   27.6446 H   0  0  0  0  0  0  0  0  0  0  0  0
   10.5496   -4.5193   25.3675 H   0  0  0  0  0  0  0  0  0  0  0  0
    6.0297    2.0897   17.9541 H   0  0  0  0  0  0  0  0  0  0  0  0
    5.0113    0.7175   18.4440 H   0  0  0  0  0  0  0  0  0  0  0  0
    5.8551    0.6802   16.8850 H   0  0  0  0  0  0  0  0  0  0  0  0
    9.6719   -0.9543   19.6227 H   0  0  0  0  0  0  0  0  0  0  0  0
    5.1506   -3.8516   24.7155 H   0  0  0  0  0  0  0  0  0  0  0  0
    7.3258   -3.0116   29.8095 H   0  0  0  0  0  0  0  0  0  0  0  0
   10.6718   -1.8733   28.6426 H   0  0  0  0  0  0  0  0  0  0  0  0
   10.6124   -5.6049   28.6467 H   0  0  0  0  0  0  0  0  0  0  0  0
  1  2  2  0  0  0  0
  1  6  1  0  0  0  0
  2  7  1  0  0  0  0
  3  4  1  0  0  0  0
  3  7  2  0  0  0  0
  4  5  1  0  0  0  0
  4  6  2  0  0  0  0
  5  8  2  0  0  0  0
  5 11  1  0  0  0  0
  6 19  1  0  0  0  0
  7 28  1  0  0  0  0
  8 19  1  0  0  0  0
  8 20  1  0  0  0  0
  9 13  1  1  0  0  0
  9 21  2  0  0  0  0
  9 24  1  0  0  0  0
 10 18  1  0  0  0  0
 10 20  1  0  0  0  0
 10 22  2  0  0  0  0
 11 12  1  0  0  0  0
 12 20  1  0  0  0  0
 13 14  1  0  0  0  0
 13 23  1  0  0  0  0
 14 15  1  0  0  0  0
 14 25  1  6  0  0  0
 15 16  1  0  0  0  0
 15 26  1  6  0  0  0
 16 17  1  0  0  0  0
 16 27  1  1  0  0  0
 17 23  1  0  0  0  0
 17 28  1  1  0  0  0
  1 29  1  0  0  0  0
  2 30  1  0  0  0  0
  3 31  1  0  0  0  0
 11 32  1  0  0  0  0
 11 33  1  0  0  0  0
 12 34  1  0  0  0  0
 12 35  1  0  0  0  0
 13 36  1  0  0  0  0
 14 37  1  0  0  0  0
 15 38  1  0  0  0  0
 16 39  1  0  0  0  0
 17 40  1  0  0  0  0
 18 41  1  0  0  0  0
 18 42  1  0  0  0  0
 18 43  1  0  0  0  0
 19 44  1  0  0  0  0
 24 45  1  0  0  0  0
 25 46  1  0  0  0  0
 26 47  1  0  0  0  0
 27 48  1  0  0  0  0
M  END
> <Chemgauss4 Score>
-5.14145088195801

> <Number of Confs>
109

$$$$
PAU-WEI-b9b-1
  -OEChem-03242005443D

 50 52  0     1  0  0  0  0  0999 V2000
    5.0973   -4.6014   25.2575 C   0  0  0  0  0  0  0  0  0  0  0  0
    5.6652   -3.5106   25.9155 C   0  0  0  0  0  0  0  0  0  0  0  0
    5.9132   -5.6158   24.7564 C   0  0  0  0  0  0  0  0  0  0  0  0
   12.1149    0.7780   23.6536 C   0  0  0  0  0  0  0  0  0  0  0  0
    7.0491   -3.4339   26.0723 C   0  0  0  0  0  0  0  0  0  0  0  0
    7.2971   -5.5392   24.9132 C   0  0  0  0  0  0  0  0  0  0  0  0
   11.0880    0.0217   24.2184 C   0  0  0  0  0  0  0  0  0  0  0  0
   12.9923    0.1917   22.7415 C   0  0  0  0  0  0  0  0  0  0  0  0
   11.8161   -1.9073   22.9591 C   0  0  0  0  0  0  0  0  0  0  0  0
    7.8651   -4.4483   25.5712 C   0  0  0  0  0  0  0  0  0  0  0  0
   10.9386   -1.3210   23.8712 C   0  0  0  0  0  0  0  0  0  0  0  0
   12.8430   -1.1509   22.3942 C   0  0  0  0  0  0  0  0  0  0  0  0
    6.3173    0.2661   20.9359 C   0  0  0  0  0  0  0  0  0  0  0  0
    6.6349   -0.4814   23.3435 C   0  0  0  0  0  0  0  0  0  0  0  0
    7.5749   -1.7912   21.4820 C   0  0  0  0  0  0  0  0  0  0  0  0
    7.9432   -0.6822   24.1104 C   0  0  0  0  0  0  0  0  0  0  0  0
    8.8663   -1.9616   22.2813 C   0  0  0  0  0  0  0  0  0  0  0  0
    9.3609   -4.3660   25.7401 C   0  0  0  0  0  0  0  0  0  0  0  0
    6.6608   -0.0361   19.4990 C   0  0  0  0  0  0  0  0  0  0  0  0
   10.1159   -3.6529   24.6061 C   0  0  0  0  0  0  0  0  0  0  0  0
    9.8248   -2.1415   24.4855 C   0  0  2  0  0  0  0  0  0  0  0  0
    6.8479   -0.5927   21.8974 N   0  0  0  0  0  0  0  0  0  0  0  0
    8.5912   -1.9446   23.7254 N   0  0  0  0  0  0  0  0  0  0  0  0
    5.5965    1.2334   21.1940 O   0  0  0  0  0  0  0  0  0  0  0  0
   13.9266   -1.8741   21.2697 Cl  0  0  0  0  0  0  0  0  0  0  0  0
    5.8366    1.1718   18.5194 Cl  0  0  0  0  0  0  0  0  0  0  0  0
    4.0196   -4.6616   25.1366 H   0  0  0  0  0  0  0  0  0  0  0  0
    5.0300   -2.7212   26.3067 H   0  0  0  0  0  0  0  0  0  0  0  0
    5.4712   -6.4658   24.2450 H   0  0  0  0  0  0  0  0  0  0  0  0
   12.2309    1.8235   23.9244 H   0  0  0  0  0  0  0  0  0  0  0  0
    7.4829   -2.5801   26.5862 H   0  0  0  0  0  0  0  0  0  0  0  0
    7.9249   -6.3341   24.5194 H   0  0  0  0  0  0  0  0  0  0  0  0
   10.4090    0.4867   24.9284 H   0  0  0  0  0  0  0  0  0  0  0  0
   13.7883    0.7933   22.3094 H   0  0  0  0  0  0  0  0  0  0  0  0
   11.6951   -2.9544   22.6913 H   0  0  0  0  0  0  0  0  0  0  0  0
    5.9064   -1.2538   23.6196 H   0  0  0  0  0  0  0  0  0  0  0  0
    6.2027    0.4831   23.6170 H   0  0  0  0  0  0  0  0  0  0  0  0
    7.8046   -1.7538   20.4121 H   0  0  0  0  0  0  0  0  0  0  0  0
    6.9069   -2.6465   21.6424 H   0  0  0  0  0  0  0  0  0  0  0  0
    8.6091    0.1725   23.9315 H   0  0  0  0  0  0  0  0  0  0  0  0
    7.7126   -0.6976   25.1825 H   0  0  0  0  0  0  0  0  0  0  0  0
    9.3175   -2.9215   22.0022 H   0  0  0  0  0  0  0  0  0  0  0  0
    9.5787   -1.1726   22.0056 H   0  0  0  0  0  0  0  0  0  0  0  0
    9.7367   -5.3949   25.8177 H   0  0  0  0  0  0  0  0  0  0  0  0
    9.6103   -3.8883   26.6960 H   0  0  0  0  0  0  0  0  0  0  0  0
    6.2973   -1.0269   19.2518 H   0  0  0  0  0  0  0  0  0  0  0  0
    7.7336    0.0479   19.3691 H   0  0  0  0  0  0  0  0  0  0  0  0
    9.9553   -4.1626   23.6486 H   0  0  0  0  0  0  0  0  0  0  0  0
   11.1877   -3.7691   24.8219 H   0  0  0  0  0  0  0  0  0  0  0  0
    9.6012   -1.7584   25.4892 H   0  0  0  0  0  0  0  0  0  0  0  0
  1  2  1  0  0  0  0
  1  3  2  0  0  0  0
  2  5  2  0  0  0  0
  3  6  1  0  0  0  0
  4  7  2  0  0  0  0
  4  8  1  0  0  0  0
  5 10  1  0  0  0  0
  6 10  2  0  0  0  0
  7 11  1  0  0  0  0
  8 12  2  0  0  0  0
  9 11  2  0  0  0  0
  9 12  1  0  0  0  0
 10 18  1  0  0  0  0
 11 21  1  0  0  0  0
 12 25  1  0  0  0  0
 13 19  1  0  0  0  0
 13 22  1  0  0  0  0
 13 24  2  0  0  0  0
 14 16  1  0  0  0  0
 14 22  1  0  0  0  0
 15 17  1  0  0  0  0
 15 22  1  0  0  0  0
 16 23  1  0  0  0  0
 17 23  1  0  0  0  0
 18 20  1  0  0  0  0
 19 26  1  0  0  0  0
 20 21  1  1  0  0  0
 21 23  1  0  0  0  0
  1 27  1  0  0  0  0
  2 28  1  0  0  0  0
  3 29  1  0  0  0  0
  4 30  1  0  0  0  0
  5 31  1  0  0  0  0
  6 32  1  0  0  0  0
  7 33  1  0  0  0  0
  8 34  1  0  0  0  0
  9 35  1  0  0  0  0
 14 36  1  0  0  0  0
 14 37  1  0  0  0  0
 15 38  1  0  0  0  0
 15 39  1  0  0  0  0
 16 40  1  0  0  0  0
 16 41  1  0  0  0  0
 17 42  1  0  0  0  0
 17 43  1  0  0  0  0
 18 44  1  0  0  0  0
 18 45  1  0  0  0  0
 19 46  1  0  0  0  0
 19 47  1  0  0  0  0
 20 48  1  0  0  0  0
 20 49  1  0  0  0  0
 21 50  1  0  0  0  0
M  END
> <Chemgauss4 Score>
-5.13916444778442

> <Number of Confs>
200

$$$$
GIA-UNK-995-10
  -OEChem-03242005443D

 35 36  0     0  0  0  0  0  0999 V2000
   13.8315   -0.1124   23.0977 C   0  0  0  0  0  0  0  0  0  0  0  0
   13.5473   -1.2977   22.4196 C   0  0  0  0  0  0  0  0  0  0  0  0
   12.7920    0.6674   23.6048 C   0  0  0  0  0  0  0  0  0  0  0  0
   12.2237   -1.7032   22.2484 C   0  0  0  0  0  0  0  0  0  0  0  0
   11.4684    0.2620   23.4336 C   0  0  0  0  0  0  0  0  0  0  0  0
   11.1842   -0.9234   22.7554 C   0  0  0  0  0  0  0  0  0  0  0  0
    9.8005   -1.3473   22.5764 C   0  0  0  0  0  0  0  0  0  0  0  0
    7.9672   -4.4638   26.1834 C   0  0  0  0  0  0  0  0  0  0  0  0
   10.0620   -4.0774   24.8891 C   0  0  0  0  0  0  0  0  0  0  0  0
    7.8000   -4.1570   23.7245 C   0  0  0  0  0  0  0  0  0  0  0  0
   10.0444   -2.5566   24.7326 C   0  0  0  0  0  0  0  0  0  0  0  0
    7.8509   -2.6336   23.6197 C   0  0  0  0  0  0  0  0  0  0  0  0
    8.6689   -4.7043   24.8567 C   0  0  0  0  0  0  0  0  0  0  0  0
    8.1497   -4.7425   28.9056 C   0  0  0  0  0  0  0  0  0  0  0  0
    9.2410   -2.1648   23.5752 N   0  0  0  0  0  0  0  0  0  0  0  0
    9.1673   -0.9888   21.5819 O   0  0  0  0  0  0  0  0  0  0  0  0
    7.2479   -3.4945   26.3929 O   0  0  0  0  0  0  0  0  0  0  0  0
    9.0904   -3.7606   28.9027 F   0  0  0  0  0  0  0  0  0  0  0  0
    8.2838   -5.7109   27.3891 S   0  0  0  0  0  0  0  0  0  0  0  0
   14.8620    0.2033   23.2309 H   0  0  0  0  0  0  0  0  0  0  0  0
   14.3568   -1.9047   22.0247 H   0  0  0  0  0  0  0  0  0  0  0  0
   13.0133    1.5902   24.1330 H   0  0  0  0  0  0  0  0  0  0  0  0
   12.0136   -2.6287   21.7184 H   0  0  0  0  0  0  0  0  0  0  0  0
   10.6665    0.8776   23.8329 H   0  0  0  0  0  0  0  0  0  0  0  0
   10.6571   -4.5026   24.0702 H   0  0  0  0  0  0  0  0  0  0  0  0
   10.5797   -4.3366   25.8207 H   0  0  0  0  0  0  0  0  0  0  0  0
    6.7582   -4.4743   23.8536 H   0  0  0  0  0  0  0  0  0  0  0  0
    8.1459   -4.5846   22.7745 H   0  0  0  0  0  0  0  0  0  0  0  0
    9.6042   -2.0807   25.6166 H   0  0  0  0  0  0  0  0  0  0  0  0
   11.0688   -2.1822   24.6365 H   0  0  0  0  0  0  0  0  0  0  0  0
    7.2903   -2.3118   22.7382 H   0  0  0  0  0  0  0  0  0  0  0  0
    7.3754   -2.1650   24.4889 H   0  0  0  0  0  0  0  0  0  0  0  0
    8.7519   -5.7806   24.7617 H   0  0  0  0  0  0  0  0  0  0  0  0
    8.3214   -5.3702   29.7839 H   0  0  0  0  0  0  0  0  0  0  0  0
    7.1679   -4.2673   28.9776 H   0  0  0  0  0  0  0  0  0  0  0  0
  1  2  1  0  0  0  0
  1  3  2  0  0  0  0
  2  4  2  0  0  0  0
  3  5  1  0  0  0  0
  4  6  1  0  0  0  0
  5  6  2  0  0  0  0
  6  7  1  0  0  0  0
  7 15  1  0  0  0  0
  7 16  2  0  0  0  0
  8 13  1  0  0  0  0
  8 17  2  0  0  0  0
  8 19  1  0  0  0  0
  9 11  1  0  0  0  0
  9 13  1  0  0  0  0
 10 12  1  0  0  0  0
 10 13  1  0  0  0  0
 11 15  1  0  0  0  0
 12 15  1  0  0  0  0
 14 18  1  0  0  0  0
 14 19  1  0  0  0  0
  1 20  1  0  0  0  0
  2 21  1  0  0  0  0
  3 22  1  0  0  0  0
  4 23  1  0  0  0  0
  5 24  1  0  0  0  0
  9 25  1  0  0  0  0
  9 26  1  0  0  0  0
 10 27  1  0  0  0  0
 10 28  1  0  0  0  0
 11 29  1  0  0  0  0
 11 30  1  0  0  0  0
 12 31  1  0  0  0  0
 12 32  1  0  0  0  0
 13 33  1  0  0  0  0
 14 34  1  0  0  0  0
 14 35  1  0  0  0  0
M  END
> <Chemgauss4 Score>
-5.1372184753418

> <Number of Confs>
200

$$$$
DAV-AUT-fa2-5
  -OEChem-03242005443D

 45 47  0     1  0  0  0  0  0999 V2000
    9.5056   -3.0800   24.2632 C   0  0  0  0  0  0  0  0  0  0  0  0
    7.2575   -3.9313   24.3994 C   0  0  0  0  0  0  0  0  0  0  0  0
    7.7775   -2.0766   22.8991 C   0  0  0  0  0  0  0  0  0  0  0  0
    9.1330   -2.0930   23.3248 C   0  0  0  0  0  0  0  0  0  0  0  0
    6.8561   -2.9806   23.4659 C   0  0  0  0  0  0  0  0  0  0  0  0
    8.5849   -3.9868   24.7918 C   0  0  0  0  0  0  0  0  0  0  0  0
   11.7591    0.1822   23.9438 C   0  0  0  0  0  0  0  0  0  0  0  0
   12.3998   -1.4437   22.1422 C   0  0  0  0  0  0  0  0  0  0  0  0
    9.5758   -0.0140   22.0890 C   0  0  0  0  0  0  0  0  0  0  0  0
   13.2357    0.2464   24.3130 C   0  0  0  0  0  0  0  0  0  0  0  0
   13.8402   -1.2898   22.6134 C   0  0  0  0  0  0  0  0  0  0  0  0
    7.2909   -1.0509   21.8821 C   0  0  1  0  0  0  0  0  0  0  0  0
   11.4250   -1.1567   23.2853 C   0  0  0  0  0  0  0  0  0  0  0  0
    8.4656   -0.4125   21.1436 C   0  0  0  0  0  0  0  0  0  0  0  0
    6.2927   -1.6013   20.8540 C   0  0  0  0  0  0  0  0  0  0  0  0
   10.8500   -4.9188   26.1783 C   0  0  0  0  0  0  0  0  0  0  0  0
    8.4183   -4.8269   27.2909 N   0  0  0  0  0  0  0  0  0  0  0  0
   10.0598   -1.1766   22.8226 N   0  0  1  0  0  0  0  0  0  0  0  0
    9.0154   -6.4928   25.2998 O   0  0  0  0  0  0  0  0  0  0  0  0
   14.0548    0.0075   23.1686 O   0  0  0  0  0  0  0  0  0  0  0  0
    5.5617   -2.9340   23.1066 F   0  0  0  0  0  0  0  0  0  0  0  0
    8.9596   -1.2638   20.2080 F   0  0  0  0  0  0  0  0  0  0  0  0
    8.0386    0.6896   20.4750 F   0  0  0  0  0  0  0  0  0  0  0  0
    9.1044   -5.1870   25.9479 S   0  0  1  0  0  0  0  0  0  0  0  0
   10.5378   -3.1548   24.6007 H   0  0  0  0  0  0  0  0  0  0  0  0
    6.5234   -4.6192   24.8112 H   0  0  0  0  0  0  0  0  0  0  0  0
   11.1682    0.2635   24.8614 H   0  0  0  0  0  0  0  0  0  0  0  0
   11.4841    1.0216   23.3018 H   0  0  0  0  0  0  0  0  0  0  0  0
   12.2036   -0.8043   21.2806 H   0  0  0  0  0  0  0  0  0  0  0  0
   12.2489   -2.4791   21.8249 H   0  0  0  0  0  0  0  0  0  0  0  0
   10.4009    0.4568   21.5487 H   0  0  0  0  0  0  0  0  0  0  0  0
    9.1833    0.7320   22.7859 H   0  0  0  0  0  0  0  0  0  0  0  0
   13.5018    1.2125   24.7584 H   0  0  0  0  0  0  0  0  0  0  0  0
   13.4661   -0.5281   25.0521 H   0  0  0  0  0  0  0  0  0  0  0  0
   14.0549   -2.0248   23.3955 H   0  0  0  0  0  0  0  0  0  0  0  0
   14.5528   -1.4603   21.7984 H   0  0  0  0  0  0  0  0  0  0  0  0
    6.7878   -0.2160   22.4226 H   0  0  0  0  0  0  0  0  0  0  0  0
   11.5314   -1.9588   24.0479 H   0  0  0  0  0  0  0  0  0  0  0  0
    6.7499   -2.4207   20.3051 H   0  0  0  0  0  0  0  0  0  0  0  0
    6.0140   -0.8131   20.1591 H   0  0  0  0  0  0  0  0  0  0  0  0
    5.4041   -1.9616   21.3661 H   0  0  0  0  0  0  0  0  0  0  0  0
   11.2190   -5.6515   26.8977 H   0  0  0  0  0  0  0  0  0  0  0  0
   11.3477   -5.0440   25.2155 H   0  0  0  0  0  0  0  0  0  0  0  0
   10.9958   -3.9055   26.5556 H   0  0  0  0  0  0  0  0  0  0  0  0
    8.6500   -5.4683   28.0552 H   0  0  0  0  0  0  0  0  0  0  0  0
  1  4  1  0  0  0  0
  1  6  2  0  0  0  0
  2  5  2  0  0  0  0
  2  6  1  0  0  0  0
  3  4  2  0  0  0  0
  3  5  1  0  0  0  0
  3 12  1  0  0  0  0
  4 18  1  0  0  0  0
  5 21  1  0  0  0  0
  6 24  1  0  0  0  0
  7 10  1  0  0  0  0
  7 13  1  0  0  0  0
  8 11  1  0  0  0  0
  8 13  1  0  0  0  0
  9 14  1  0  0  0  0
  9 18  1  0  0  0  0
 10 20  1  0  0  0  0
 11 20  1  0  0  0  0
 12 14  1  0  0  0  0
 12 15  1  0  0  0  0
 13 18  1  6  0  0  0
 14 22  1  0  0  0  0
 14 23  1  0  0  0  0
 16 24  1  6  0  0  0
 17 24  2  0  0  0  0
 19 24  2  0  0  0  0
  1 25  1  0  0  0  0
  2 26  1  0  0  0  0
  7 27  1  0  0  0  0
  7 28  1  0  0  0  0
  8 29  1  0  0  0  0
  8 30  1  0  0  0  0
  9 31  1  0  0  0  0
  9 32  1  0  0  0  0
 10 33  1  0  0  0  0
 10 34  1  0  0  0  0
 11 35  1  0  0  0  0
 11 36  1  0  0  0  0
 12 37  1  1  0  0  0
 13 38  1  0  0  0  0
 15 39  1  0  0  0  0
 15 40  1  0  0  0  0
 15 41  1  0  0  0  0
 16 42  1  0  0  0  0
 16 43  1  0  0  0  0
 16 44  1  0  0  0  0
 17 45  1  0  0  0  0
M  END
> <Chemgauss4 Score>
-5.13355112075806

> <Number of Confs>
13

$$$$
DAR-DIA-fc9-3
  -OEChem-03242005443D

 29 31  0     0  0  0  0  0  0999 V2000
    5.5241   -6.2974   26.4958 C   0  0  0  0  0  0  0  0  0  0  0  0
    6.7486   -6.7223   27.0112 C   0  0  0  0  0  0  0  0  0  0  0  0
    5.4795   -5.2439   25.5826 C   0  0  0  0  0  0  0  0  0  0  0  0
   12.3769   -0.3840   22.5175 C   0  0  0  0  0  0  0  0  0  0  0  0
    7.9285   -6.0936   26.6136 C   0  0  0  0  0  0  0  0  0  0  0  0
    6.6595   -4.6152   25.1850 C   0  0  0  0  0  0  0  0  0  0  0  0
   11.7939   -1.5791   22.9240 C   0  0  0  0  0  0  0  0  0  0  0  0
   12.2881    0.7040   23.3708 C   0  0  0  0  0  0  0  0  0  0  0  0
   11.1154   -0.5040   24.9340 C   0  0  0  0  0  0  0  0  0  0  0  0
    7.8840   -5.0400   25.7004 C   0  0  0  0  0  0  0  0  0  0  0  0
   11.1490   -1.6486   24.1539 C   0  0  0  0  0  0  0  0  0  0  0  0
   10.3249   -4.9568   25.2074 C   0  0  0  0  0  0  0  0  0  0  0  0
   11.1949   -4.0359   24.7901 C   0  0  0  0  0  0  0  0  0  0  0  0
    9.1530   -3.0193   24.9082 C   0  0  0  0  0  0  0  0  0  0  0  0
   11.6701    0.6748   24.5728 N   0  0  0  0  0  0  0  0  0  0  0  0
    9.0644   -4.4114   25.3028 N   0  0  0  0  0  0  0  0  0  0  0  0
   10.5573   -2.8285   24.5865 N   0  0  0  0  0  0  0  0  0  0  0  0
    8.2532   -2.1923   24.8571 O   0  0  0  0  0  0  0  0  0  0  0  0
    4.6052   -6.7872   26.8045 H   0  0  0  0  0  0  0  0  0  0  0  0
    6.7838   -7.5430   27.7215 H   0  0  0  0  0  0  0  0  0  0  0  0
    4.5259   -4.9139   25.1806 H   0  0  0  0  0  0  0  0  0  0  0  0
   12.8847   -0.3068   21.5629 H   0  0  0  0  0  0  0  0  0  0  0  0
    8.8771   -6.4334   27.0219 H   0  0  0  0  0  0  0  0  0  0  0  0
    6.6125   -3.7952   24.4726 H   0  0  0  0  0  0  0  0  0  0  0  0
   11.8479   -2.4493   22.2752 H   0  0  0  0  0  0  0  0  0  0  0  0
   12.7258    1.6591   23.0995 H   0  0  0  0  0  0  0  0  0  0  0  0
   10.6269   -0.4960   25.9039 H   0  0  0  0  0  0  0  0  0  0  0  0
   10.5117   -5.9908   25.4514 H   0  0  0  0  0  0  0  0  0  0  0  0
   12.2537   -4.1470   24.6160 H   0  0  0  0  0  0  0  0  0  0  0  0
  1  2  1  0  0  0  0
  1  3  2  0  0  0  0
  2  5  2  0  0  0  0
  3  6  1  0  0  0  0
  4  7  2  0  0  0  0
  4  8  1  0  0  0  0
  5 10  1  0  0  0  0
  6 10  2  0  0  0  0
  7 11  1  0  0  0  0
  8 15  2  0  0  0  0
  9 11  2  0  0  0  0
  9 15  1  0  0  0  0
 10 16  1  0  0  0  0
 11 17  1  0  0  0  0
 12 13  2  0  0  0  0
 12 16  1  0  0  0  0
 13 17  1  0  0  0  0
 14 16  1  0  0  0  0
 14 17  1  0  0  0  0
 14 18  2  0  0  0  0
  1 19  1  0  0  0  0
  2 20  1  0  0  0  0
  3 21  1  0  0  0  0
  4 22  1  0  0  0  0
  5 23  1  0  0  0  0
  6 24  1  0  0  0  0
  7 25  1  0  0  0  0
  8 26  1  0  0  0  0
  9 27  1  0  0  0  0
 12 28  1  0  0  0  0
 13 29  1  0  0  0  0
M  END
> <Chemgauss4 Score>
-5.133376121521

> <Number of Confs>
12

$$$$
CHR-SOS-e96-2
  -OEChem-03242005443D

 46 48  0     0  0  0  0  0  0999 V2000
    7.3531   -4.4065   23.2968 C   0  0  0  0  0  0  0  0  0  0  0  0
    7.9731   -6.3559   28.2575 C   0  0  0  0  0  0  0  0  0  0  0  0
    8.5646   -3.7256   23.1776 C   0  0  0  0  0  0  0  0  0  0  0  0
    8.6881   -5.7865   27.2098 C   0  0  0  0  0  0  0  0  0  0  0  0
    6.3620   -3.9224   24.1506 C   0  0  0  0  0  0  0  0  0  0  0  0
    7.7940   -2.0765   24.7663 C   0  0  0  0  0  0  0  0  0  0  0  0
    7.7112   -5.5687   29.3673 C   0  0  0  0  0  0  0  0  0  0  0  0
    8.8003   -3.7633   28.4549 C   0  0  0  0  0  0  0  0  0  0  0  0
    8.7851   -2.5606   23.9124 C   0  0  0  0  0  0  0  0  0  0  0  0
    9.1134   -4.4659   27.3025 C   0  0  0  0  0  0  0  0  0  0  0  0
    6.5824   -2.7574   24.8854 C   0  0  0  0  0  0  0  0  0  0  0  0
   10.3325   -2.5569   26.2017 C   0  0  0  0  0  0  0  0  0  0  0  0
   11.7427   -0.7955   22.2603 C   0  0  0  0  0  0  0  0  0  0  0  0
   11.2268    0.2890   23.1989 C   0  0  0  0  0  0  0  0  0  0  0  0
   10.7719   -1.9659   22.3919 C   0  0  0  0  0  0  0  0  0  0  0  0
    9.9682   -0.2782   23.8493 C   0  0  0  0  0  0  0  0  0  0  0  0
   10.1127   -1.8152   23.7813 C   0  0  0  0  0  0  0  0  0  0  0  0
   11.0572   -2.3230   24.8899 C   0  0  0  0  0  0  0  0  0  0  0  0
    8.1078   -4.2825   29.4934 N   0  0  0  0  0  0  0  0  0  0  0  0
    5.7482   -2.9522   27.4095 N   0  0  0  0  0  0  0  0  0  0  0  0
    9.8431   -3.8591   26.2527 N   0  0  0  0  0  0  0  0  0  0  0  0
   10.2248   -1.6859   27.0586 O   0  0  0  0  0  0  0  0  0  0  0  0
    5.5459   -0.7219   26.1326 O   0  0  0  0  0  0  0  0  0  0  0  0
    4.0523   -2.6478   25.4943 O   0  0  0  0  0  0  0  0  0  0  0  0
    5.3421   -2.1528   25.9549 S   0  0  0  0  0  0  0  0  0  0  0  0
    7.1810   -5.3132   22.7241 H   0  0  0  0  0  0  0  0  0  0  0  0
    7.6316   -7.3835   28.2070 H   0  0  0  0  0  0  0  0  0  0  0  0
    9.3306   -4.1096   22.5091 H   0  0  0  0  0  0  0  0  0  0  0  0
    8.9083   -6.3802   26.3265 H   0  0  0  0  0  0  0  0  0  0  0  0
    5.4222   -4.4613   24.2360 H   0  0  0  0  0  0  0  0  0  0  0  0
    7.9671   -1.1680   25.3383 H   0  0  0  0  0  0  0  0  0  0  0  0
    7.1578   -5.9664   30.2116 H   0  0  0  0  0  0  0  0  0  0  0  0
    9.1046   -2.7291   28.5857 H   0  0  0  0  0  0  0  0  0  0  0  0
   11.8013   -0.4435   21.2252 H   0  0  0  0  0  0  0  0  0  0  0  0
   12.7524   -1.0996   22.5588 H   0  0  0  0  0  0  0  0  0  0  0  0
   11.9823    0.5155   23.9598 H   0  0  0  0  0  0  0  0  0  0  0  0
   11.0124    1.2207   22.6653 H   0  0  0  0  0  0  0  0  0  0  0  0
   10.0167   -1.8931   21.5973 H   0  0  0  0  0  0  0  0  0  0  0  0
   11.2770   -2.9301   22.2660 H   0  0  0  0  0  0  0  0  0  0  0  0
    9.8383    0.0889   24.8733 H   0  0  0  0  0  0  0  0  0  0  0  0
    9.0913    0.0522   23.2763 H   0  0  0  0  0  0  0  0  0  0  0  0
   11.8473   -1.5854   25.0463 H   0  0  0  0  0  0  0  0  0  0  0  0
   11.5141   -3.2597   24.5635 H   0  0  0  0  0  0  0  0  0  0  0  0
    6.1520   -2.3925   28.1705 H   0  0  0  0  0  0  0  0  0  0  0  0
    5.1324   -3.7085   27.7320 H   0  0  0  0  0  0  0  0  0  0  0  0
   10.0243   -4.4552   25.4478 H   0  0  0  0  0  0  0  0  0  0  0  0
  1  3  1  0  0  0  0
  1  5  2  0  0  0  0
  2  4  2  0  0  0  0
  2  7  1  0  0  0  0
  3  9  2  0  0  0  0
  4 10  1  0  0  0  0
  5 11  1  0  0  0  0
  6  9  1  0  0  0  0
  6 11  2  0  0  0  0
  7 19  2  0  0  0  0
  8 10  2  0  0  0  0
  8 19  1  0  0  0  0
  9 17  1  0  0  0  0
 10 21  1  0  0  0  0
 11 25  1  0  0  0  0
 12 18  1  0  0  0  0
 12 21  1  0  0  0  0
 12 22  2  0  0  0  0
 13 14  1  0  0  0  0
 13 15  1  0  0  0  0
 14 16  1  0  0  0  0
 15 17  1  0  0  0  0
 16 17  1  0  0  0  0
 17 18  1  0  0  0  0
 20 25  1  0  0  0  0
 23 25  2  0  0  0  0
 24 25  2  0  0  0  0
  1 26  1  0  0  0  0
  2 27  1  0  0  0  0
  3 28  1  0  0  0  0
  4 29  1  0  0  0  0
  5 30  1  0  0  0  0
  6 31  1  0  0  0  0
  7 32  1  0  0  0  0
  8 33  1  0  0  0  0
 13 34  1  0  0  0  0
 13 35  1  0  0  0  0
 14 36  1  0  0  0  0
 14 37  1  0  0  0  0
 15 38  1  0  0  0  0
 15 39  1  0  0  0  0
 16 40  1  0  0  0  0
 16 41  1  0  0  0  0
 18 42  1  0  0  0  0
 18 43  1  0  0  0  0
 20 44  1  0  0  0  0
 20 45  1  0  0  0  0
 21 46  1  0  0  0  0
M  END
> <Chemgauss4 Score>
-5.13152742385864

> <Number of Confs>
200

$$$$
JOH-MEM-5e3-5
  -OEChem-03242005443D

 48 51  0     1  0  0  0  0  0999 V2000
    9.0098   -3.4934   26.8107 C   0  0  0  0  0  0  0  0  0  0  0  0
   10.0686   -2.8532   26.1597 C   0  0  0  0  0  0  0  0  0  0  0  0
    9.3732   -3.7457   24.0090 C   0  0  0  0  0  0  0  0  0  0  0  0
    8.2989   -4.4013   24.6384 C   0  0  0  0  0  0  0  0  0  0  0  0
    7.2510   -5.2327   24.2079 C   0  0  0  0  0  0  0  0  0  0  0  0
    8.1366   -4.2623   26.0326 C   0  0  0  0  0  0  0  0  0  0  0  0
   10.2490   -2.9759   24.7830 C   0  0  0  0  0  0  0  0  0  0  0  0
    6.5087   -5.5649   25.3008 C   0  0  0  0  0  0  0  0  0  0  0  0
    7.7929   -0.4725   22.7130 C   0  0  0  0  0  0  0  0  0  0  0  0
    4.5665   -6.8379   25.9667 C   0  0  0  0  0  0  0  0  0  0  0  0
    6.7033   -5.8527   22.9764 C   0  0  0  0  0  0  0  0  0  0  0  0
    5.4597   -6.6418   23.5327 C   0  0  0  0  0  0  0  0  0  0  0  0
    9.1875   -0.5603   23.2426 C   0  0  2  0  0  0  0  0  0  0  0  0
    9.9587    0.7290   22.9552 C   0  0  2  0  0  0  0  0  0  0  0  0
   11.4501    0.5493   23.2490 C   0  0  2  0  0  0  0  0  0  0  0  0
   11.9527   -0.6915   22.5072 C   0  0  2  0  0  0  0  0  0  0  0  0
   11.1063   -1.9291   22.8280 C   0  0  2  0  0  0  0  0  0  0  0  0
    3.4699   -7.7236   25.4302 C   0  0  0  0  0  0  0  0  0  0  0  0
    7.0186   -4.9954   26.4127 N   0  0  0  0  0  0  0  0  0  0  0  0
    5.4466   -6.3810   25.0089 N   0  0  0  0  0  0  0  0  0  0  0  0
    7.4971   -0.2365   21.5510 O   0  0  0  0  0  0  0  0  0  0  0  0
    4.6206   -6.5789   27.1694 O   0  0  0  0  0  0  0  0  0  0  0  0
    9.7307   -1.6728   22.5303 O   0  0  0  0  0  0  0  0  0  0  0  0
    6.8909   -0.6887   23.7014 O   0  0  0  0  0  0  0  0  0  0  0  0
    9.4385    1.8023   23.7320 O   0  0  0  0  0  0  0  0  0  0  0  0
   11.6324    0.3912   24.6570 O   0  0  0  0  0  0  0  0  0  0  0  0
   13.3172   -0.9452   22.8126 O   0  0  0  0  0  0  0  0  0  0  0  0
   11.2923   -2.3380   24.1804 O   0  0  0  0  0  0  0  0  0  0  0  0
    8.8735   -3.3949   27.8825 H   0  0  0  0  0  0  0  0  0  0  0  0
   10.7597   -2.2505   26.7448 H   0  0  0  0  0  0  0  0  0  0  0  0
    9.5219   -3.8356   22.9364 H   0  0  0  0  0  0  0  0  0  0  0  0
    6.3904   -5.0963   22.2507 H   0  0  0  0  0  0  0  0  0  0  0  0
    7.4230   -6.5362   22.5166 H   0  0  0  0  0  0  0  0  0  0  0  0
    4.5216   -6.2827   23.0972 H   0  0  0  0  0  0  0  0  0  0  0  0
    5.5505   -7.7191   23.3598 H   0  0  0  0  0  0  0  0  0  0  0  0
    9.1236   -0.7832   24.3138 H   0  0  0  0  0  0  0  0  0  0  0  0
    9.8438    0.9999   21.8932 H   0  0  0  0  0  0  0  0  0  0  0  0
   12.0168    1.4420   22.9620 H   0  0  0  0  0  0  0  0  0  0  0  0
   11.8829   -0.4941   21.4298 H   0  0  0  0  0  0  0  0  0  0  0  0
   11.4377   -2.7594   22.1941 H   0  0  0  0  0  0  0  0  0  0  0  0
    3.8037   -8.7556   25.4548 H   0  0  0  0  0  0  0  0  0  0  0  0
    3.2441   -7.4308   24.4099 H   0  0  0  0  0  0  0  0  0  0  0  0
    2.5846   -7.6050   26.0465 H   0  0  0  0  0  0  0  0  0  0  0  0
    6.6631   -5.0779   27.3559 H   0  0  0  0  0  0  0  0  0  0  0  0
    5.9680   -0.6334   23.3736 H   0  0  0  0  0  0  0  0  0  0  0  0
    9.9634    2.5871   23.5085 H   0  0  0  0  0  0  0  0  0  0  0  0
   12.5845    0.2811   24.7981 H   0  0  0  0  0  0  0  0  0  0  0  0
   13.8176   -0.1619   22.5318 H   0  0  0  0  0  0  0  0  0  0  0  0
  1  2  2  0  0  0  0
  1  6  1  0  0  0  0
  2  7  1  0  0  0  0
  3  4  1  0  0  0  0
  3  7  2  0  0  0  0
  4  5  1  0  0  0  0
  4  6  2  0  0  0  0
  5  8  2  0  0  0  0
  5 11  1  0  0  0  0
  6 19  1  0  0  0  0
  7 28  1  0  0  0  0
  8 19  1  0  0  0  0
  8 20  1  0  0  0  0
  9 13  1  6  0  0  0
  9 21  2  0  0  0  0
  9 24  1  0  0  0  0
 10 18  1  0  0  0  0
 10 20  1  0  0  0  0
 10 22  2  0  0  0  0
 11 12  1  0  0  0  0
 12 20  1  0  0  0  0
 13 14  1  0  0  0  0
 13 23  1  0  0  0  0
 14 15  1  0  0  0  0
 14 25  1  1  0  0  0
 15 16  1  0  0  0  0
 15 26  1  1  0  0  0
 16 17  1  0  0  0  0
 16 27  1  1  0  0  0
 17 23  1  0  0  0  0
 17 28  1  6  0  0  0
  1 29  1  0  0  0  0
  2 30  1  0  0  0  0
  3 31  1  0  0  0  0
 11 32  1  0  0  0  0
 11 33  1  0  0  0  0
 12 34  1  0  0  0  0
 12 35  1  0  0  0  0
 13 36  1  0  0  0  0
 14 37  1  0  0  0  0
 15 38  1  0  0  0  0
 16 39  1  0  0  0  0
 17 40  1  0  0  0  0
 18 41  1  0  0  0  0
 18 42  1  0  0  0  0
 18 43  1  0  0  0  0
 19 44  1  0  0  0  0
 24 45  1  0  0  0  0
 25 46  1  0  0  0  0
 26 47  1  0  0  0  0
 27 48  1  0  0  0  0
M  END
> <Chemgauss4 Score>
-5.12870073318481

> <Number of Confs>
90

$$$$
GIA-UNK-995-1
  -OEChem-03242005443D

 34 34  0     0  0  0  0  0  0999 V2000
    8.2829   -3.8813   25.8992 C   0  0  0  0  0  0  0  0  0  0  0  0
   11.1898   -1.2027   22.6690 C   0  0  0  0  0  0  0  0  0  0  0  0
    8.4757   -3.3585   23.4742 C   0  0  0  0  0  0  0  0  0  0  0  0
   10.5288   -4.0422   24.8086 C   0  0  0  0  0  0  0  0  0  0  0  0
    8.9790   -1.9168   23.5192 C   0  0  0  0  0  0  0  0  0  0  0  0
   10.9781   -2.5805   24.7957 C   0  0  0  0  0  0  0  0  0  0  0  0
    9.0160   -4.2061   24.6303 C   0  0  0  0  0  0  0  0  0  0  0  0
   13.3773   -1.1801   21.4973 C   0  0  0  0  0  0  0  0  0  0  0  0
   13.1252   -0.0472   23.7269 C   0  0  0  0  0  0  0  0  0  0  0  0
    8.0851   -4.4185   28.5814 C   0  0  0  0  0  0  0  0  0  0  0  0
   12.6864   -1.2151   22.8533 C   0  0  0  0  0  0  0  0  0  0  0  0
   10.4368   -1.8796   23.6274 N   0  0  0  0  0  0  0  0  0  0  0  0
    7.8512   -2.7635   26.1543 O   0  0  0  0  0  0  0  0  0  0  0  0
   10.7067   -0.6103   21.7006 O   0  0  0  0  0  0  0  0  0  0  0  0
    9.2612   -3.7594   28.7590 F   0  0  0  0  0  0  0  0  0  0  0  0
    8.0999   -5.2588   26.9847 S   0  0  0  0  0  0  0  0  0  0  0  0
    7.3790   -3.3574   23.4803 H   0  0  0  0  0  0  0  0  0  0  0  0
    8.7877   -3.8117   22.5244 H   0  0  0  0  0  0  0  0  0  0  0  0
   11.0401   -4.5721   23.9945 H   0  0  0  0  0  0  0  0  0  0  0  0
   10.8545   -4.5101   25.7454 H   0  0  0  0  0  0  0  0  0  0  0  0
    8.6400   -1.3821   22.6261 H   0  0  0  0  0  0  0  0  0  0  0  0
    8.5700   -1.3880   24.3879 H   0  0  0  0  0  0  0  0  0  0  0  0
   10.6147   -2.0545   25.6859 H   0  0  0  0  0  0  0  0  0  0  0  0
   12.0684   -2.5400   24.8287 H   0  0  0  0  0  0  0  0  0  0  0  0
    8.7962   -5.2610   24.4238 H   0  0  0  0  0  0  0  0  0  0  0  0
   13.1464   -0.2603   20.9481 H   0  0  0  0  0  0  0  0  0  0  0  0
   13.0719   -2.0285   20.8748 H   0  0  0  0  0  0  0  0  0  0  0  0
   14.4641   -1.2334   21.6223 H   0  0  0  0  0  0  0  0  0  0  0  0
   12.8841    0.9124   23.2561 H   0  0  0  0  0  0  0  0  0  0  0  0
   14.2041   -0.0658   23.9185 H   0  0  0  0  0  0  0  0  0  0  0  0
   12.6115   -0.0820   24.6937 H   0  0  0  0  0  0  0  0  0  0  0  0
    7.9757   -5.1372   29.3976 H   0  0  0  0  0  0  0  0  0  0  0  0
    7.2775   -3.6833   28.6259 H   0  0  0  0  0  0  0  0  0  0  0  0
   12.9462   -2.1478   23.3613 H   0  0  0  0  0  0  0  0  0  0  0  0
  1  7  1  0  0  0  0
  1 13  2  0  0  0  0
  1 16  1  0  0  0  0
  2 11  1  0  0  0  0
  2 12  1  0  0  0  0
  2 14  2  0  0  0  0
  3  5  1  0  0  0  0
  3  7  1  0  0  0  0
  4  6  1  0  0  0  0
  4  7  1  0  0  0  0
  5 12  1  0  0  0  0
  6 12  1  0  0  0  0
  8 11  1  0  0  0  0
  9 11  1  0  0  0  0
 10 15  1  0  0  0  0
 10 16  1  0  0  0  0
  3 17  1  0  0  0  0
  3 18  1  0  0  0  0
  4 19  1  0  0  0  0
  4 20  1  0  0  0  0
  5 21  1  0  0  0  0
  5 22  1  0  0  0  0
  6 23  1  0  0  0  0
  6 24  1  0  0  0  0
  7 25  1  0  0  0  0
  8 26  1  0  0  0  0
  8 27  1  0  0  0  0
  8 28  1  0  0  0  0
  9 29  1  0  0  0  0
  9 30  1  0  0  0  0
  9 31  1  0  0  0  0
 10 32  1  0  0  0  0
 10 33  1  0  0  0  0
 11 34  1  0  0  0  0
M  END
> <Chemgauss4 Score>
-5.12599277496338

> <Number of Confs>
200

$$$$
SAL-INS-1c7-12
  -OEChem-03242005443D

 38 40  0     1  0  0  0  0  0999 V2000
    6.3678   -2.9461   22.8441 C   0  0  0  0  0  0  0  0  0  0  0  0
    5.4987   -3.8780   22.2067 C   0  0  0  0  0  0  0  0  0  0  0  0
    8.7671   -5.4420   25.2780 C   0  0  0  0  0  0  0  0  0  0  0  0
    8.9838   -5.2973   27.3904 C   0  0  0  0  0  0  0  0  0  0  0  0
    9.0736   -4.1249   25.5266 C   0  0  0  0  0  0  0  0  0  0  0  0
    6.2373   -2.9712   24.2152 C   0  0  0  0  0  0  0  0  0  0  0  0
    4.7371   -4.5802   23.1150 C   0  0  0  0  0  0  0  0  0  0  0  0
   11.8941   -0.8418   23.1629 C   0  0  0  0  0  0  0  0  0  0  0  0
   10.0370   -0.0817   24.6935 C   0  0  0  0  0  0  0  0  0  0  0  0
    8.8752   -0.6586   25.5069 C   0  0  0  0  0  0  0  0  0  0  0  0
   10.7327   -2.4604   24.6320 C   0  0  0  0  0  0  0  0  0  0  0  0
    9.2540   -2.9193   24.6091 C   0  0  2  0  0  0  0  0  0  0  0  0
    6.9673   -2.1503   25.2386 C   0  0  0  0  0  0  0  0  0  0  0  0
   12.6785   -2.0336   22.6700 C   0  0  0  0  0  0  0  0  0  0  0  0
    8.7124   -6.1665   26.4423 N   0  0  0  0  0  0  0  0  0  0  0  0
    9.2089   -4.0474   26.8841 N   0  0  0  0  0  0  0  0  0  0  0  0
   10.8930   -1.1112   24.0970 N   0  0  0  0  0  0  0  0  0  0  0  0
    8.3076   -1.7991   24.7990 N   0  0  1  0  0  0  0  0  0  0  0  0
   12.1664    0.2840   22.7401 O   0  0  0  0  0  0  0  0  0  0  0  0
    5.0710   -4.1150   24.7288 S   0  0  0  0  0  0  0  0  0  0  0  0
   13.8345   -1.4235   21.4914 Cl  0  0  0  0  0  0  0  0  0  0  0  0
    3.4632   -5.9097   22.6495 Br  0  0  0  0  0  0  0  0  0  0  0  0
    7.0526   -2.2921   22.3195 H   0  0  0  0  0  0  0  0  0  0  0  0
    5.4426   -4.0188   21.1344 H   0  0  0  0  0  0  0  0  0  0  0  0
    8.5825   -5.9079   24.3205 H   0  0  0  0  0  0  0  0  0  0  0  0
    9.0324   -5.5049   28.4499 H   0  0  0  0  0  0  0  0  0  0  0  0
    9.6386    0.5806   23.9108 H   0  0  0  0  0  0  0  0  0  0  0  0
   10.6850    0.5452   25.3250 H   0  0  0  0  0  0  0  0  0  0  0  0
    9.2158   -0.9372   26.4911 H   0  0  0  0  0  0  0  0  0  0  0  0
    8.1164    0.1019   25.6222 H   0  0  0  0  0  0  0  0  0  0  0  0
   11.1358   -2.4564   25.6553 H   0  0  0  0  0  0  0  0  0  0  0  0
   11.3373   -3.1837   24.0721 H   0  0  0  0  0  0  0  0  0  0  0  0
    9.0753   -3.3334   23.5889 H   0  0  0  0  0  0  0  0  0  0  0  0
    6.4259   -1.2207   25.4456 H   0  0  0  0  0  0  0  0  0  0  0  0
    7.0570   -2.6923   26.1859 H   0  0  0  0  0  0  0  0  0  0  0  0
   11.9973   -2.7314   22.1964 H   0  0  0  0  0  0  0  0  0  0  0  0
   13.2016   -2.4808   23.5076 H   0  0  0  0  0  0  0  0  0  0  0  0
    9.4355   -3.2193   27.4191 H   0  0  0  0  0  0  0  0  0  0  0  0
  1  2  1  0  0  0  0
  1  6  2  0  0  0  0
  2  7  2  0  0  0  0
  3  5  2  0  0  0  0
  3 15  1  0  0  0  0
  4 15  2  0  0  0  0
  4 16  1  0  0  0  0
  5 12  1  6  0  0  0
  5 16  1  0  0  0  0
  6 13  1  0  0  0  0
  6 20  1  0  0  0  0
  7 20  1  0  0  0  0
  7 22  1  0  0  0  0
  8 14  1  0  0  0  0
  8 17  1  0  0  0  0
  8 19  2  0  0  0  0
  9 10  1  0  0  0  0
  9 17  1  0  0  0  0
 10 18  1  0  0  0  0
 11 12  1  0  0  0  0
 11 17  1  0  0  0  0
 12 18  1  0  0  0  0
 13 18  1  6  0  0  0
 14 21  1  0  0  0  0
  1 23  1  0  0  0  0
  2 24  1  0  0  0  0
  3 25  1  0  0  0  0
  4 26  1  0  0  0  0
  9 27  1  0  0  0  0
  9 28  1  0  0  0  0
 10 29  1  0  0  0  0
 10 30  1  0  0  0  0
 11 31  1  0  0  0  0
 11 32  1  0  0  0  0
 12 33  1  0  0  0  0
 13 34  1  0  0  0  0
 13 35  1  0  0  0  0
 14 36  1  0  0  0  0
 14 37  1  0  0  0  0
 16 38  1  0  0  0  0
M  END
> <Chemgauss4 Score>
-5.12542915344238

> <Number of Confs>
190

$$$$
DAN-LON-a5f-5
  -OEChem-03242005443D

 44 46  0     1  0  0  0  0  0999 V2000
    8.4990   -5.9403   25.0263 C   0  0  0  0  0  0  0  0  0  0  0  0
    8.0230   -1.7253   24.4169 C   0  0  0  0  0  0  0  0  0  0  0  0
    7.7096   -3.1337   22.4790 C   0  0  0  0  0  0  0  0  0  0  0  0
    9.5381   -5.2183   24.4394 C   0  0  0  0  0  0  0  0  0  0  0  0
    8.0876   -5.6400   26.3249 C   0  0  0  0  0  0  0  0  0  0  0  0
    6.6851   -1.9084   24.7664 C   0  0  0  0  0  0  0  0  0  0  0  0
    6.3717   -3.3168   22.8285 C   0  0  0  0  0  0  0  0  0  0  0  0
    9.7544   -3.8956   26.4496 C   0  0  0  0  0  0  0  0  0  0  0  0
    8.5352   -2.3379   23.2732 C   0  0  0  0  0  0  0  0  0  0  0  0
   10.1658   -4.1959   25.1511 C   0  0  0  0  0  0  0  0  0  0  0  0
    5.8595   -2.7041   23.9722 C   0  0  0  0  0  0  0  0  0  0  0  0
    8.7153   -4.6177   27.0365 C   0  0  0  0  0  0  0  0  0  0  0  0
    9.7401    1.4957   22.4154 C   0  0  0  0  0  0  0  0  0  0  0  0
   11.5125    0.2381   23.6943 C   0  0  0  0  0  0  0  0  0  0  0  0
   12.0015   -1.1914   23.9295 C   0  0  0  0  0  0  0  0  0  0  0  0
   10.1445   -0.9054   21.9697 C   0  0  0  0  0  0  0  0  0  0  0  0
    9.9972   -2.1395   22.8919 C   0  0  1  0  0  0  0  0  0  0  0  0
   11.2851   -3.4199   24.5191 C   0  0  0  0  0  0  0  0  0  0  0  0
    8.6591    1.3826   21.3681 C   0  0  0  0  0  0  0  0  0  0  0  0
   10.4276    0.3187   22.7141 N   0  0  0  0  0  0  0  0  0  0  0  0
   10.8566   -2.0872   24.0968 N   0  0  1  0  0  0  0  0  0  0  0  0
    9.9694    2.5877   22.9401 O   0  0  0  0  0  0  0  0  0  0  0  0
    4.2091   -2.9299   24.4037 Cl  0  0  0  0  0  0  0  0  0  0  0  0
    8.2079   -4.2484   28.6390 Cl  0  0  0  0  0  0  0  0  0  0  0  0
    7.9385    2.9808   21.2133 Cl  0  0  0  0  0  0  0  0  0  0  0  0
    8.0106   -6.7364   24.4719 H   0  0  0  0  0  0  0  0  0  0  0  0
    8.6599   -1.1037   25.0407 H   0  0  0  0  0  0  0  0  0  0  0  0
    8.1010   -3.6147   21.5865 H   0  0  0  0  0  0  0  0  0  0  0  0
    9.8523   -5.4592   23.4272 H   0  0  0  0  0  0  0  0  0  0  0  0
    7.2765   -6.2113   26.7698 H   0  0  0  0  0  0  0  0  0  0  0  0
    6.3001   -1.4250   25.6606 H   0  0  0  0  0  0  0  0  0  0  0  0
    5.7401   -3.9395   22.2001 H   0  0  0  0  0  0  0  0  0  0  0  0
   10.2467   -3.0972   27.0001 H   0  0  0  0  0  0  0  0  0  0  0  0
   11.1317    0.6760   24.6350 H   0  0  0  0  0  0  0  0  0  0  0  0
   12.3616    0.8711   23.3835 H   0  0  0  0  0  0  0  0  0  0  0  0
   12.6259   -1.4997   23.0911 H   0  0  0  0  0  0  0  0  0  0  0  0
   12.6117   -1.1926   24.8314 H   0  0  0  0  0  0  0  0  0  0  0  0
   10.9156   -1.1047   21.2145 H   0  0  0  0  0  0  0  0  0  0  0  0
    9.2118   -0.7227   21.4107 H   0  0  0  0  0  0  0  0  0  0  0  0
   10.2804   -3.0521   22.2981 H   0  0  0  0  0  0  0  0  0  0  0  0
   12.1167   -3.2999   25.2220 H   0  0  0  0  0  0  0  0  0  0  0  0
   11.6761   -3.9406   23.6386 H   0  0  0  0  0  0  0  0  0  0  0  0
    7.9154    0.6701   21.7063 H   0  0  0  0  0  0  0  0  0  0  0  0
    9.1101    1.0848   20.4285 H   0  0  0  0  0  0  0  0  0  0  0  0
  1  4  2  0  0  0  0
  1  5  1  0  0  0  0
  2  6  2  0  0  0  0
  2  9  1  0  0  0  0
  3  7  1  0  0  0  0
  3  9  2  0  0  0  0
  4 10  1  0  0  0  0
  5 12  2  0  0  0  0
  6 11  1  0  0  0  0
  7 11  2  0  0  0  0
  8 10  2  0  0  0  0
  8 12  1  0  0  0  0
  9 17  1  1  0  0  0
 10 18  1  0  0  0  0
 11 23  1  0  0  0  0
 12 24  1  0  0  0  0
 13 19  1  0  0  0  0
 13 20  1  0  0  0  0
 13 22  2  0  0  0  0
 14 15  1  0  0  0  0
 14 20  1  0  0  0  0
 15 21  1  0  0  0  0
 16 17  1  0  0  0  0
 16 20  1  0  0  0  0
 17 21  1  0  0  0  0
 18 21  1  6  0  0  0
 19 25  1  0  0  0  0
  1 26  1  0  0  0  0
  2 27  1  0  0  0  0
  3 28  1  0  0  0  0
  4 29  1  0  0  0  0
  5 30  1  0  0  0  0
  6 31  1  0  0  0  0
  7 32  1  0  0  0  0
  8 33  1  0  0  0  0
 14 34  1  0  0  0  0
 14 35  1  0  0  0  0
 15 36  1  0  0  0  0
 15 37  1  0  0  0  0
 16 38  1  0  0  0  0
 16 39  1  0  0  0  0
 17 40  1  0  0  0  0
 18 41  1  0  0  0  0
 18 42  1  0  0  0  0
 19 43  1  0  0  0  0
 19 44  1  0  0  0  0
M  END
> <Chemgauss4 Score>
-5.1254243850708

> <Number of Confs>
105

$$$$
GIA-UNK-5ec-2
  -OEChem-03242005443D

 38 39  0     0  0  0  0  0  0999 V2000
    9.7005   -2.1511   23.1406 C   0  0  0  0  0  0  0  0  0  0  0  0
    8.1501   -5.2691   27.3488 C   0  0  0  0  0  0  0  0  0  0  0  0
   13.0551    0.4404   22.3123 C   0  0  0  0  0  0  0  0  0  0  0  0
   13.3155   -1.0590   22.4203 C   0  0  0  0  0  0  0  0  0  0  0  0
   12.0237    0.9059   23.3357 C   0  0  0  0  0  0  0  0  0  0  0  0
   12.0229   -1.8641   22.3159 C   0  0  0  0  0  0  0  0  0  0  0  0
   10.7281    0.1054   23.2338 C   0  0  0  0  0  0  0  0  0  0  0  0
    7.7303   -4.4461   25.0560 C   0  0  0  0  0  0  0  0  0  0  0  0
   10.0262   -4.2540   26.0800 C   0  0  0  0  0  0  0  0  0  0  0  0
    8.3439   -4.1457   23.6910 C   0  0  0  0  0  0  0  0  0  0  0  0
   10.5932   -3.9574   24.6931 C   0  0  0  0  0  0  0  0  0  0  0  0
   10.9835   -1.3998   23.3386 C   0  0  0  0  0  0  0  0  0  0  0  0
    8.7534   -5.1001   25.9886 C   0  0  0  0  0  0  0  0  0  0  0  0
    9.5686   -3.3555   23.8308 N   0  0  0  0  0  0  0  0  0  0  0  0
    8.8366   -1.6821   22.3951 O   0  0  0  0  0  0  0  0  0  0  0  0
    7.9902   -6.3544   27.8916 O   0  0  0  0  0  0  0  0  0  0  0  0
    7.6779   -3.7649   28.1265 S   0  0  0  0  0  0  0  0  0  0  0  0
   13.9943    0.9868   22.4642 H   0  0  0  0  0  0  0  0  0  0  0  0
   12.7058    0.6814   21.3018 H   0  0  0  0  0  0  0  0  0  0  0  0
   14.0060   -1.3659   21.6266 H   0  0  0  0  0  0  0  0  0  0  0  0
   13.8093   -1.2783   23.3727 H   0  0  0  0  0  0  0  0  0  0  0  0
   12.4386    0.8009   24.3448 H   0  0  0  0  0  0  0  0  0  0  0  0
   11.8185    1.9730   23.1906 H   0  0  0  0  0  0  0  0  0  0  0  0
   11.6295   -1.7879   21.3039 H   0  0  0  0  0  0  0  0  0  0  0  0
   12.2488   -2.9131   22.5072 H   0  0  0  0  0  0  0  0  0  0  0  0
   10.0658    0.4022   24.0489 H   0  0  0  0  0  0  0  0  0  0  0  0
   10.2267    0.3455   22.2960 H   0  0  0  0  0  0  0  0  0  0  0  0
    7.3491   -3.5223   25.4922 H   0  0  0  0  0  0  0  0  0  0  0  0
    6.8849   -5.1237   24.9227 H   0  0  0  0  0  0  0  0  0  0  0  0
   10.7740   -4.8001   26.6554 H   0  0  0  0  0  0  0  0  0  0  0  0
    9.8252   -3.3167   26.5963 H   0  0  0  0  0  0  0  0  0  0  0  0
    8.5446   -5.0844   23.1635 H   0  0  0  0  0  0  0  0  0  0  0  0
    7.6495   -3.5683   23.0687 H   0  0  0  0  0  0  0  0  0  0  0  0
   11.4221   -3.2436   24.7552 H   0  0  0  0  0  0  0  0  0  0  0  0
   10.9982   -4.8759   24.2655 H   0  0  0  0  0  0  0  0  0  0  0  0
   11.3262   -1.6366   24.3344 H   0  0  0  0  0  0  0  0  0  0  0  0
    8.9944   -6.0857   25.6297 H   0  0  0  0  0  0  0  0  0  0  0  0
    7.2081   -4.3099   29.2580 H   0  0  0  0  0  0  0  0  0  0  0  0
  1 12  1  0  0  0  0
  1 14  1  0  0  0  0
  1 15  2  0  0  0  0
  2 13  1  0  0  0  0
  2 16  2  0  0  0  0
  2 17  1  0  0  0  0
  3  4  1  0  0  0  0
  3  5  1  0  0  0  0
  4  6  1  0  0  0  0
  5  7  1  0  0  0  0
  6 12  1  0  0  0  0
  7 12  1  0  0  0  0
  8 10  1  0  0  0  0
  8 13  1  0  0  0  0
  9 11  1  0  0  0  0
  9 13  1  0  0  0  0
 10 14  1  0  0  0  0
 11 14  1  0  0  0  0
  3 18  1  0  0  0  0
  3 19  1  0  0  0  0
  4 20  1  0  0  0  0
  4 21  1  0  0  0  0
  5 22  1  0  0  0  0
  5 23  1  0  0  0  0
  6 24  1  0  0  0  0
  6 25  1  0  0  0  0
  7 26  1  0  0  0  0
  7 27  1  0  0  0  0
  8 28  1  0  0  0  0
  8 29  1  0  0  0  0
  9 30  1  0  0  0  0
  9 31  1  0  0  0  0
 10 32  1  0  0  0  0
 10 33  1  0  0  0  0
 11 34  1  0  0  0  0
 11 35  1  0  0  0  0
 12 36  1  0  0  0  0
 13 37  1  0  0  0  0
 17 38  1  0  0  0  0
M  END
> <Chemgauss4 Score>
-5.12373733520508

> <Number of Confs>
102

$$$$
GIA-UNK-5ec-3
  -OEChem-03242005443D

 33 34  0     0  0  0  0  0  0999 V2000
   13.1049   -0.2408   22.8753 C   0  0  0  0  0  0  0  0  0  0  0  0
   12.6113   -1.2557   22.0556 C   0  0  0  0  0  0  0  0  0  0  0  0
   12.4653    0.0567   24.0787 C   0  0  0  0  0  0  0  0  0  0  0  0
   11.4782   -1.9730   22.4391 C   0  0  0  0  0  0  0  0  0  0  0  0
   11.3321   -0.6606   24.4623 C   0  0  0  0  0  0  0  0  0  0  0  0
   10.8385   -1.6754   23.6424 C   0  0  0  0  0  0  0  0  0  0  0  0
    8.3739   -5.1995   27.9292 C   0  0  0  0  0  0  0  0  0  0  0  0
   10.3126   -3.6655   27.5614 C   0  0  0  0  0  0  0  0  0  0  0  0
    7.9414   -2.8063   27.4161 C   0  0  0  0  0  0  0  0  0  0  0  0
   10.3763   -3.5933   26.0328 C   0  0  0  0  0  0  0  0  0  0  0  0
    8.1004   -2.7853   25.8935 C   0  0  0  0  0  0  0  0  0  0  0  0
    8.8862   -3.7981   28.0936 C   0  0  0  0  0  0  0  0  0  0  0  0
    9.6187   -2.4470   24.0558 C   0  0  0  0  0  0  0  0  0  0  0  0
    9.4966   -2.5399   25.5107 N   0  0  0  0  0  0  0  0  0  0  0  0
    8.7033   -5.9408   27.0125 O   0  0  0  0  0  0  0  0  0  0  0  0
    7.2427   -5.7107   29.1740 S   0  0  0  0  0  0  0  0  0  0  0  0
   13.9880    0.3167   22.5772 H   0  0  0  0  0  0  0  0  0  0  0  0
   13.1098   -1.4883   21.1190 H   0  0  0  0  0  0  0  0  0  0  0  0
   12.8499    0.8460   24.7177 H   0  0  0  0  0  0  0  0  0  0  0  0
   11.1006   -2.7619   21.7939 H   0  0  0  0  0  0  0  0  0  0  0  0
   10.8403   -0.4217   25.4015 H   0  0  0  0  0  0  0  0  0  0  0  0
   10.9324   -4.5012   27.9087 H   0  0  0  0  0  0  0  0  0  0  0  0
   10.7572   -2.7503   27.9744 H   0  0  0  0  0  0  0  0  0  0  0  0
    8.1452   -1.8007   27.8070 H   0  0  0  0  0  0  0  0  0  0  0  0
    6.8991   -3.0382   27.6664 H   0  0  0  0  0  0  0  0  0  0  0  0
   11.4147   -3.3850   25.7470 H   0  0  0  0  0  0  0  0  0  0  0  0
   10.1145   -4.5696   25.6041 H   0  0  0  0  0  0  0  0  0  0  0  0
    7.7332   -3.7249   25.4618 H   0  0  0  0  0  0  0  0  0  0  0  0
    7.4634   -1.9831   25.5003 H   0  0  0  0  0  0  0  0  0  0  0  0
    8.8850   -3.6059   29.1735 H   0  0  0  0  0  0  0  0  0  0  0  0
    8.7110   -1.9693   23.6709 H   0  0  0  0  0  0  0  0  0  0  0  0
    9.6442   -3.4662   23.6562 H   0  0  0  0  0  0  0  0  0  0  0  0
    7.0294   -6.9464   28.6994 H   0  0  0  0  0  0  0  0  0  0  0  0
  1  2  1  0  0  0  0
  1  3  2  0  0  0  0
  2  4  2  0  0  0  0
  3  5  1  0  0  0  0
  4  6  1  0  0  0  0
  5  6  2  0  0  0  0
  6 13  1  0  0  0  0
  7 12  1  0  0  0  0
  7 15  2  0  0  0  0
  7 16  1  0  0  0  0
  8 10  1  0  0  0  0
  8 12  1  0  0  0  0
  9 11  1  0  0  0  0
  9 12  1  0  0  0  0
 10 14  1  0  0  0  0
 11 14  1  0  0  0  0
 13 14  1  0  0  0  0
  1 17  1  0  0  0  0
  2 18  1  0  0  0  0
  3 19  1  0  0  0  0
  4 20  1  0  0  0  0
  5 21  1  0  0  0  0
  8 22  1  0  0  0  0
  8 23  1  0  0  0  0
  9 24  1  0  0  0  0
  9 25  1  0  0  0  0
 10 26  1  0  0  0  0
 10 27  1  0  0  0  0
 11 28  1  0  0  0  0
 11 29  1  0  0  0  0
 12 30  1  0  0  0  0
 13 31  1  0  0  0  0
 13 32  1  0  0  0  0
 16 33  1  0  0  0  0
M  END
> <Chemgauss4 Score>
-5.12282752990723

> <Number of Confs>
48

$$$$
NIM-UNI-36e-1
  -OEChem-03242005443D

 34 36  0     1  0  0  0  0  0999 V2000
   11.5917   -0.0025   22.9798 C   0  0  0  0  0  0  0  0  0  0  0  0
   10.9093   -0.3494   24.1405 C   0  0  0  0  0  0  0  0  0  0  0  0
   12.0386   -1.0260   22.1598 C   0  0  0  0  0  0  0  0  0  0  0  0
   11.1844   -2.6382   23.5559 C   0  0  0  0  0  0  0  0  0  0  0  0
   10.6976   -1.6903   24.4415 C   0  0  0  0  0  0  0  0  0  0  0  0
    9.9924   -1.3298   26.8553 C   0  0  0  0  0  0  0  0  0  0  0  0
    7.8913   -3.6917   24.0298 C   0  0  0  0  0  0  0  0  0  0  0  0
    7.9381   -5.4897   27.0062 C   0  0  0  0  0  0  0  0  0  0  0  0
    8.5390   -5.5877   25.5791 C   0  0  0  0  0  0  0  0  0  0  0  0
    8.6635   -3.2217   27.1447 C   0  0  2  0  0  0  0  0  0  0  0  0
    9.5187   -3.4116   25.9014 C   0  0  2  0  0  0  0  0  0  0  0  0
    7.2527   -4.6683   23.0747 C   0  0  0  0  0  0  0  0  0  0  0  0
   11.8519   -2.3396   22.4188 N   0  0  0  0  0  0  0  0  0  0  0  0
    9.3179   -2.1411   27.8117 N   0  0  0  0  0  0  0  0  0  0  0  0
    8.5767   -4.4757   27.8826 N   0  0  0  0  0  0  0  0  0  0  0  0
   10.0036   -2.0761   25.6210 N   0  0  0  0  0  0  0  0  0  0  0  0
    8.7253   -4.2417   25.0043 N   0  0  0  0  0  0  0  0  0  0  0  0
   10.4869   -0.2377   27.1022 O   0  0  0  0  0  0  0  0  0  0  0  0
    7.6624   -2.4870   23.9025 O   0  0  0  0  0  0  0  0  0  0  0  0
   11.7681    1.0363   22.7252 H   0  0  0  0  0  0  0  0  0  0  0  0
   10.5471    0.4324   24.8029 H   0  0  0  0  0  0  0  0  0  0  0  0
   12.5769   -0.8079   21.2433 H   0  0  0  0  0  0  0  0  0  0  0  0
   11.0501   -3.7007   23.7362 H   0  0  0  0  0  0  0  0  0  0  0  0
    6.8687   -5.2570   26.9231 H   0  0  0  0  0  0  0  0  0  0  0  0
    8.0147   -6.4672   27.4944 H   0  0  0  0  0  0  0  0  0  0  0  0
    9.5265   -6.0628   25.6221 H   0  0  0  0  0  0  0  0  0  0  0  0
    7.8986   -6.2164   24.9578 H   0  0  0  0  0  0  0  0  0  0  0  0
    7.6577   -2.8517   26.8986 H   0  0  0  0  0  0  0  0  0  0  0  0
   10.4278   -3.9866   26.1417 H   0  0  0  0  0  0  0  0  0  0  0  0
    6.3010   -4.9926   23.4825 H   0  0  0  0  0  0  0  0  0  0  0  0
    7.9110   -5.5214   22.9458 H   0  0  0  0  0  0  0  0  0  0  0  0
    7.0993   -4.1801   22.1177 H   0  0  0  0  0  0  0  0  0  0  0  0
    9.3042   -1.9769   28.8133 H   0  0  0  0  0  0  0  0  0  0  0  0
    8.0090   -4.3479   28.7193 H   0  0  0  0  0  0  0  0  0  0  0  0
  1  2  2  0  0  0  0
  1  3  1  0  0  0  0
  2  5  1  0  0  0  0
  3 13  2  0  0  0  0
  4  5  2  0  0  0  0
  4 13  1  0  0  0  0
  5 16  1  0  0  0  0
  6 14  1  0  0  0  0
  6 16  1  0  0  0  0
  6 18  2  0  0  0  0
  7 12  1  0  0  0  0
  7 17  1  0  0  0  0
  7 19  2  0  0  0  0
  8  9  1  0  0  0  0
  8 15  1  0  0  0  0
  9 17  1  0  0  0  0
 10 11  1  0  0  0  0
 10 14  1  0  0  0  0
 10 15  1  6  0  0  0
 11 16  1  0  0  0  0
 11 17  1  6  0  0  0
  1 20  1  0  0  0  0
  2 21  1  0  0  0  0
  3 22  1  0  0  0  0
  4 23  1  0  0  0  0
  8 24  1  0  0  0  0
  8 25  1  0  0  0  0
  9 26  1  0  0  0  0
  9 27  1  0  0  0  0
 10 28  1  0  0  0  0
 11 29  1  0  0  0  0
 12 30  1  0  0  0  0
 12 31  1  0  0  0  0
 12 32  1  0  0  0  0
 14 33  1  0  0  0  0
 15 34  1  0  0  0  0
M  END
> <Chemgauss4 Score>
-5.12243413925171

> <Number of Confs>
2

$$$$
SAL-INS-1c7-11
  -OEChem-03242005443D

 41 43  0     1  0  0  0  0  0999 V2000
    5.7751   -2.6072   24.4117 C   0  0  0  0  0  0  0  0  0  0  0  0
    6.7098   -1.8348   25.1011 C   0  0  0  0  0  0  0  0  0  0  0  0
    6.1728   -3.3643   23.3097 C   0  0  0  0  0  0  0  0  0  0  0  0
    8.0422   -1.8195   24.6886 C   0  0  0  0  0  0  0  0  0  0  0  0
    7.5051   -3.3489   22.8971 C   0  0  0  0  0  0  0  0  0  0  0  0
    9.1087   -5.4205   25.1455 C   0  0  0  0  0  0  0  0  0  0  0  0
    8.1261   -5.7253   26.1312 C   0  0  0  0  0  0  0  0  0  0  0  0
    8.4399   -2.5765   23.5865 C   0  0  0  0  0  0  0  0  0  0  0  0
    9.9657   -4.4247   25.5597 C   0  0  0  0  0  0  0  0  0  0  0  0
    8.2696   -4.9509   27.2616 C   0  0  0  0  0  0  0  0  0  0  0  0
    9.9725    1.0293   22.3482 C   0  0  0  0  0  0  0  0  0  0  0  0
   11.6704   -0.2887   23.6668 C   0  0  0  0  0  0  0  0  0  0  0  0
   12.0279   -1.7353   24.0094 C   0  0  0  0  0  0  0  0  0  0  0  0
   10.1198   -1.4294   22.1024 C   0  0  0  0  0  0  0  0  0  0  0  0
    9.8952   -2.5600   23.1351 C   0  0  1  0  0  0  0  0  0  0  0  0
   11.1252   -3.8221   24.8204 C   0  0  0  0  0  0  0  0  0  0  0  0
    8.8388    0.9381   21.3560 C   0  0  0  0  0  0  0  0  0  0  0  0
   10.5549   -0.1818   22.7244 N   0  0  0  0  0  0  0  0  0  0  0  0
   10.8099   -2.4934   24.2978 N   0  0  1  0  0  0  0  0  0  0  0  0
   10.3310    2.1328   22.7652 O   0  0  0  0  0  0  0  0  0  0  0  0
    9.5845   -3.8617   27.1314 S   0  0  0  0  0  0  0  0  0  0  0  0
    8.2713    2.5822   21.0871 Cl  0  0  0  0  0  0  0  0  0  0  0  0
    7.1504   -5.0650   28.7919 Br  0  0  0  0  0  0  0  0  0  0  0  0
    4.7380   -2.6201   24.7339 H   0  0  0  0  0  0  0  0  0  0  0  0
    6.4006   -1.2461   25.9599 H   0  0  0  0  0  0  0  0  0  0  0  0
    5.4455   -3.9666   22.7733 H   0  0  0  0  0  0  0  0  0  0  0  0
    8.7635   -1.2145   25.2317 H   0  0  0  0  0  0  0  0  0  0  0  0
    7.8058   -3.9418   22.0373 H   0  0  0  0  0  0  0  0  0  0  0  0
    9.1798   -5.9094   24.1822 H   0  0  0  0  0  0  0  0  0  0  0  0
    7.3565   -6.4771   26.0075 H   0  0  0  0  0  0  0  0  0  0  0  0
   11.3777    0.2634   24.5785 H   0  0  0  0  0  0  0  0  0  0  0  0
   12.5621    0.2266   23.2698 H   0  0  0  0  0  0  0  0  0  0  0  0
   12.5802   -2.1750   23.1790 H   0  0  0  0  0  0  0  0  0  0  0  0
   12.6757   -1.7221   24.8845 H   0  0  0  0  0  0  0  0  0  0  0  0
   10.8324   -1.7688   21.3396 H   0  0  0  0  0  0  0  0  0  0  0  0
    9.1848   -1.2011   21.5644 H   0  0  0  0  0  0  0  0  0  0  0  0
   10.0605   -3.5434   22.6144 H   0  0  0  0  0  0  0  0  0  0  0  0
   11.9958   -3.7279   25.4785 H   0  0  0  0  0  0  0  0  0  0  0  0
   11.4227   -4.4521   23.9756 H   0  0  0  0  0  0  0  0  0  0  0  0
    8.0454    0.3356   21.7834 H   0  0  0  0  0  0  0  0  0  0  0  0
    9.2151    0.5179   20.4304 H   0  0  0  0  0  0  0  0  0  0  0  0
  1  2  1  0  0  0  0
  1  3  2  0  0  0  0
  2  4  2  0  0  0  0
  3  5  1  0  0  0  0
  4  8  1  0  0  0  0
  5  8  2  0  0  0  0
  6  7  1  0  0  0  0
  6  9  2  0  0  0  0
  7 10  2  0  0  0  0
  8 15  1  1  0  0  0
  9 16  1  0  0  0  0
  9 21  1  0  0  0  0
 10 21  1  0  0  0  0
 10 23  1  0  0  0  0
 11 17  1  0  0  0  0
 11 18  1  0  0  0  0
 11 20  2  0  0  0  0
 12 13  1  0  0  0  0
 12 18  1  0  0  0  0
 13 19  1  0  0  0  0
 14 15  1  0  0  0  0
 14 18  1  0  0  0  0
 15 19  1  0  0  0  0
 16 19  1  6  0  0  0
 17 22  1  0  0  0  0
  1 24  1  0  0  0  0
  2 25  1  0  0  0  0
  3 26  1  0  0  0  0
  4 27  1  0  0  0  0
  5 28  1  0  0  0  0
  6 29  1  0  0  0  0
  7 30  1  0  0  0  0
 12 31  1  0  0  0  0
 12 32  1  0  0  0  0
 13 33  1  0  0  0  0
 13 34  1  0  0  0  0
 14 35  1  0  0  0  0
 14 36  1  0  0  0  0
 15 37  1  0  0  0  0
 16 38  1  0  0  0  0
 16 39  1  0  0  0  0
 17 40  1  0  0  0  0
 17 41  1  0  0  0  0
M  END
> <Chemgauss4 Score>
-5.11409854888916

> <Number of Confs>
90

$$$$
GIA-UNK-995-15
  -OEChem-03242005443D

 35 36  0     0  0  0  0  0  0999 V2000
   12.3596    0.5825   23.5950 C   0  0  0  0  0  0  0  0  0  0  0  0
   11.1147   -0.0465   23.5891 C   0  0  0  0  0  0  0  0  0  0  0  0
   13.4282    0.0209   22.8961 C   0  0  0  0  0  0  0  0  0  0  0  0
   12.0068   -1.7989   22.1854 C   0  0  0  0  0  0  0  0  0  0  0  0
   10.9383   -1.2372   22.8843 C   0  0  0  0  0  0  0  0  0  0  0  0
   13.2518   -1.1698   22.1913 C   0  0  0  0  0  0  0  0  0  0  0  0
    9.6371   -1.8956   22.8779 C   0  0  0  0  0  0  0  0  0  0  0  0
    8.5068   -5.1962   26.6078 C   0  0  0  0  0  0  0  0  0  0  0  0
    7.4404   -3.3544   25.3102 C   0  0  0  0  0  0  0  0  0  0  0  0
    9.7624   -3.0735   26.3146 C   0  0  0  0  0  0  0  0  0  0  0  0
    8.0975   -3.5298   23.9408 C   0  0  0  0  0  0  0  0  0  0  0  0
   10.3426   -3.2723   24.9152 C   0  0  0  0  0  0  0  0  0  0  0  0
    8.3720   -3.6881   26.4745 C   0  0  0  0  0  0  0  0  0  0  0  0
    6.2023   -6.1487   27.7494 C   0  0  0  0  0  0  0  0  0  0  0  0
    9.3845   -2.8372   23.8921 N   0  0  0  0  0  0  0  0  0  0  0  0
    8.8083   -1.6195   22.0088 O   0  0  0  0  0  0  0  0  0  0  0  0
    8.9734   -5.9061   25.7250 O   0  0  0  0  0  0  0  0  0  0  0  0
   14.2777   -1.7092   21.5201 F   0  0  0  0  0  0  0  0  0  0  0  0
    5.5933   -4.9860   27.3940 F   0  0  0  0  0  0  0  0  0  0  0  0
    7.9314   -5.8258   28.1511 S   0  0  0  0  0  0  0  0  0  0  0  0
   12.4969    1.5095   24.1437 H   0  0  0  0  0  0  0  0  0  0  0  0
   10.2888    0.3994   24.1375 H   0  0  0  0  0  0  0  0  0  0  0  0
   14.3976    0.5105   22.9006 H   0  0  0  0  0  0  0  0  0  0  0  0
   11.8811   -2.7266   21.6330 H   0  0  0  0  0  0  0  0  0  0  0  0
    7.1174   -2.3097   25.4078 H   0  0  0  0  0  0  0  0  0  0  0  0
    6.5330   -3.9689   25.3544 H   0  0  0  0  0  0  0  0  0  0  0  0
   10.4543   -3.4941   27.0543 H   0  0  0  0  0  0  0  0  0  0  0  0
    9.6987   -1.9965   26.5170 H   0  0  0  0  0  0  0  0  0  0  0  0
    8.2847   -4.5897   23.7332 H   0  0  0  0  0  0  0  0  0  0  0  0
    7.4283   -3.1571   23.1584 H   0  0  0  0  0  0  0  0  0  0  0  0
   11.2891   -2.7316   24.8349 H   0  0  0  0  0  0  0  0  0  0  0  0
   10.5623   -4.3298   24.7289 H   0  0  0  0  0  0  0  0  0  0  0  0
    7.9321   -3.3513   27.4059 H   0  0  0  0  0  0  0  0  0  0  0  0
    5.6719   -6.5554   28.6144 H   0  0  0  0  0  0  0  0  0  0  0  0
    6.1218   -6.8414   26.9077 H   0  0  0  0  0  0  0  0  0  0  0  0
  1  2  2  0  0  0  0
  1  3  1  0  0  0  0
  2  5  1  0  0  0  0
  3  6  2  0  0  0  0
  4  5  2  0  0  0  0
  4  6  1  0  0  0  0
  5  7  1  0  0  0  0
  6 18  1  0  0  0  0
  7 15  1  0  0  0  0
  7 16  2  0  0  0  0
  8 13  1  0  0  0  0
  8 17  2  0  0  0  0
  8 20  1  0  0  0  0
  9 11  1  0  0  0  0
  9 13  1  0  0  0  0
 10 12  1  0  0  0  0
 10 13  1  0  0  0  0
 11 15  1  0  0  0  0
 12 15  1  0  0  0  0
 14 19  1  0  0  0  0
 14 20  1  0  0  0  0
  1 21  1  0  0  0  0
  2 22  1  0  0  0  0
  3 23  1  0  0  0  0
  4 24  1  0  0  0  0
  9 25  1  0  0  0  0
  9 26  1  0  0  0  0
 10 27  1  0  0  0  0
 10 28  1  0  0  0  0
 11 29  1  0  0  0  0
 11 30  1  0  0  0  0
 12 31  1  0  0  0  0
 12 32  1  0  0  0  0
 13 33  1  0  0  0  0
 14 34  1  0  0  0  0
 14 35  1  0  0  0  0
M  END
> <Chemgauss4 Score>
-5.11336231231689

> <Number of Confs>
200

$$$$
ANT-DIA-b7f-9
  -OEChem-03242005443D

 44 45  0     0  0  0  0  0  0999 V2000
    7.8838   -5.5422   28.9285 C   0  0  0  0  0  0  0  0  0  0  0  0
    9.4310   -3.8796   28.0221 C   0  0  0  0  0  0  0  0  0  0  0  0
    9.8240   -3.0211   26.9955 C   0  0  0  0  0  0  0  0  0  0  0  0
    7.5326   -4.5857   26.7050 C   0  0  0  0  0  0  0  0  0  0  0  0
    8.2853   -4.6619   27.8769 C   0  0  0  0  0  0  0  0  0  0  0  0
    7.9257   -3.7271   25.6783 C   0  0  0  0  0  0  0  0  0  0  0  0
    9.0714   -2.9448   25.8236 C   0  0  0  0  0  0  0  0  0  0  0  0
   10.1838   -0.8669   24.9307 C   0  0  0  0  0  0  0  0  0  0  0  0
   11.2222   -1.3654   22.6340 C   0  0  0  0  0  0  0  0  0  0  0  0
   11.6695    0.7652   23.7940 C   0  0  0  0  0  0  0  0  0  0  0  0
   12.6911   -1.3743   22.2234 C   0  0  0  0  0  0  0  0  0  0  0  0
   13.1196    0.6419   23.3535 C   0  0  0  0  0  0  0  0  0  0  0  0
    4.7953   -5.9456   22.2904 C   0  0  0  0  0  0  0  0  0  0  0  0
    7.1015   -3.6665   24.4332 C   0  0  0  0  0  0  0  0  0  0  0  0
    7.7263   -4.4152   23.2509 C   0  0  0  0  0  0  0  0  0  0  0  0
    7.5577   -6.2571   29.7825 N   0  0  0  0  0  0  0  0  0  0  0  0
   11.0206   -0.5474   23.8392 N   0  0  0  0  0  0  0  0  0  0  0  0
    9.4885   -2.0681   24.7912 N   0  0  0  0  0  0  0  0  0  0  0  0
    6.9249   -4.3240   22.0600 N   0  0  0  0  0  0  0  0  0  0  0  0
   10.0750   -0.1180   25.9049 O   0  0  0  0  0  0  0  0  0  0  0  0
    7.1543   -6.8695   21.6333 O   0  0  0  0  0  0  0  0  0  0  0  0
    5.8847   -5.4637   19.9695 O   0  0  0  0  0  0  0  0  0  0  0  0
   13.1922   -0.0427   22.1016 O   0  0  0  0  0  0  0  0  0  0  0  0
    6.2820   -5.7507   21.3345 S   0  0  0  0  0  0  0  0  0  0  0  0
   10.0289   -3.9293   28.9291 H   0  0  0  0  0  0  0  0  0  0  0  0
   10.7200   -2.4179   27.1194 H   0  0  0  0  0  0  0  0  0  0  0  0
    6.6374   -5.1930   26.5873 H   0  0  0  0  0  0  0  0  0  0  0  0
   10.6112   -0.9085   21.8471 H   0  0  0  0  0  0  0  0  0  0  0  0
   10.8925   -2.3957   22.7722 H   0  0  0  0  0  0  0  0  0  0  0  0
   11.6082    1.2730   24.7610 H   0  0  0  0  0  0  0  0  0  0  0  0
   11.1051    1.3600   23.0659 H   0  0  0  0  0  0  0  0  0  0  0  0
   13.3028   -1.9337   22.9414 H   0  0  0  0  0  0  0  0  0  0  0  0
   12.7999   -1.8601   21.2486 H   0  0  0  0  0  0  0  0  0  0  0  0
   13.5521    1.6375   23.2124 H   0  0  0  0  0  0  0  0  0  0  0  0
   13.7272    0.1180   24.1008 H   0  0  0  0  0  0  0  0  0  0  0  0
    4.2703   -6.8330   21.9335 H   0  0  0  0  0  0  0  0  0  0  0  0
    5.0729   -6.0614   23.3392 H   0  0  0  0  0  0  0  0  0  0  0  0
    4.1790   -5.0558   22.1537 H   0  0  0  0  0  0  0  0  0  0  0  0
    6.9562   -2.6127   24.1455 H   0  0  0  0  0  0  0  0  0  0  0  0
    6.0885   -4.0588   24.6218 H   0  0  0  0  0  0  0  0  0  0  0  0
    8.7056   -3.9921   23.0056 H   0  0  0  0  0  0  0  0  0  0  0  0
    7.8607   -5.4778   23.4781 H   0  0  0  0  0  0  0  0  0  0  0  0
    9.2435   -2.3604   23.8059 H   0  0  0  0  0  0  0  0  0  0  0  0
    6.3055   -3.4871   21.9939 H   0  0  0  0  0  0  0  0  0  0  0  0
  1  5  1  0  0  0  0
  1 16  3  0  0  0  0
  2  3  2  0  0  0  0
  2  5  1  0  0  0  0
  3  7  1  0  0  0  0
  4  5  2  0  0  0  0
  4  6  1  0  0  0  0
  6  7  2  0  0  0  0
  6 14  1  0  0  0  0
  7 18  1  0  0  0  0
  8 17  1  0  0  0  0
  8 18  1  0  0  0  0
  8 20  2  0  0  0  0
  9 11  1  0  0  0  0
  9 17  1  0  0  0  0
 10 12  1  0  0  0  0
 10 17  1  0  0  0  0
 11 23  1  0  0  0  0
 12 23  1  0  0  0  0
 13 24  1  0  0  0  0
 14 15  1  0  0  0  0
 15 19  1  0  0  0  0
 19 24  1  0  0  0  0
 21 24  2  0  0  0  0
 22 24  2  0  0  0  0
  2 25  1  0  0  0  0
  3 26  1  0  0  0  0
  4 27  1  0  0  0  0
  9 28  1  0  0  0  0
  9 29  1  0  0  0  0
 10 30  1  0  0  0  0
 10 31  1  0  0  0  0
 11 32  1  0  0  0  0
 11 33  1  0  0  0  0
 12 34  1  0  0  0  0
 12 35  1  0  0  0  0
 13 36  1  0  0  0  0
 13 37  1  0  0  0  0
 13 38  1  0  0  0  0
 14 39  1  0  0  0  0
 14 40  1  0  0  0  0
 15 41  1  0  0  0  0
 15 42  1  0  0  0  0
 18 43  1  0  0  0  0
 19 44  1  0  0  0  0
M  END
> <Chemgauss4 Score>
-5.11093616485596

> <Number of Confs>
200

$$$$
DAN-LON-a5f-2
  -OEChem-03242005443D

 41 43  0     1  0  0  0  0  0999 V2000
   11.4177   -0.1111   24.4033 C   0  0  0  0  0  0  0  0  0  0  0  0
    7.9775   -0.9075   22.2352 C   0  0  0  0  0  0  0  0  0  0  0  0
   11.1862   -1.3820   24.9293 C   0  0  0  0  0  0  0  0  0  0  0  0
   11.8422    0.0302   23.0821 C   0  0  0  0  0  0  0  0  0  0  0  0
    8.5513   -2.2095   22.3105 C   0  0  0  0  0  0  0  0  0  0  0  0
   11.8039   -2.3705   22.8130 C   0  0  0  0  0  0  0  0  0  0  0  0
    7.3617   -0.5446   23.4128 C   0  0  0  0  0  0  0  0  0  0  0  0
   11.3794   -2.5117   24.1342 C   0  0  0  0  0  0  0  0  0  0  0  0
   12.0353   -1.0995   22.2870 C   0  0  0  0  0  0  0  0  0  0  0  0
    8.3525   -2.7920   23.5429 C   0  0  0  0  0  0  0  0  0  0  0  0
    5.8605   -4.8407   26.2020 C   0  0  0  0  0  0  0  0  0  0  0  0
    8.2371   -5.1566   26.7245 C   0  0  0  0  0  0  0  0  0  0  0  0
    9.6349   -5.1471   26.1084 C   0  0  0  0  0  0  0  0  0  0  0  0
    7.5740   -5.0516   24.3373 C   0  0  0  0  0  0  0  0  0  0  0  0
    8.8052   -4.1641   24.0273 C   0  0  2  0  0  0  0  0  0  0  0  0
   11.1312   -3.8795   24.7015 C   0  0  0  0  0  0  0  0  0  0  0  0
    4.7682   -5.3345   25.2881 C   0  0  0  0  0  0  0  0  0  0  0  0
    7.1703   -4.9753   25.7431 N   0  0  0  0  0  0  0  0  0  0  0  0
    9.7516   -4.0400   25.1593 N   0  0  2  0  0  0  0  0  0  0  0  0
    5.5645   -4.3447   27.2923 O   0  0  0  0  0  0  0  0  0  0  0  0
    7.4769   -1.7708   24.6025 S   0  0  0  0  0  0  0  0  0  0  0  0
   12.5602   -0.9246   20.6573 Cl  0  0  0  0  0  0  0  0  0  0  0  0
    5.0836   -7.0425   25.0033 Cl  0  0  0  0  0  0  0  0  0  0  0  0
   11.2673    0.7683   25.0228 H   0  0  0  0  0  0  0  0  0  0  0  0
    8.0147   -0.2687   21.3625 H   0  0  0  0  0  0  0  0  0  0  0  0
   10.8557   -1.4827   25.9598 H   0  0  0  0  0  0  0  0  0  0  0  0
   12.0190    1.0270   22.6855 H   0  0  0  0  0  0  0  0  0  0  0  0
    9.0836   -2.6895   21.4990 H   0  0  0  0  0  0  0  0  0  0  0  0
   11.9525   -3.2543   22.1970 H   0  0  0  0  0  0  0  0  0  0  0  0
    6.8495    0.3818   23.6313 H   0  0  0  0  0  0  0  0  0  0  0  0
    8.0893   -6.0965   27.2874 H   0  0  0  0  0  0  0  0  0  0  0  0
    8.1371   -4.3409   27.4662 H   0  0  0  0  0  0  0  0  0  0  0  0
   10.3561   -5.0249   26.9153 H   0  0  0  0  0  0  0  0  0  0  0  0
    9.8209   -6.1054   25.6234 H   0  0  0  0  0  0  0  0  0  0  0  0
    6.7029   -4.7300   23.7449 H   0  0  0  0  0  0  0  0  0  0  0  0
    7.7838   -6.0845   24.0354 H   0  0  0  0  0  0  0  0  0  0  0  0
    9.3504   -4.6278   23.1615 H   0  0  0  0  0  0  0  0  0  0  0  0
   11.3289   -4.6511   23.9495 H   0  0  0  0  0  0  0  0  0  0  0  0
   11.7915   -4.0778   25.5523 H   0  0  0  0  0  0  0  0  0  0  0  0
    4.8168   -4.7863   24.3542 H   0  0  0  0  0  0  0  0  0  0  0  0
    3.8124   -5.2099   25.7838 H   0  0  0  0  0  0  0  0  0  0  0  0
  1  3  2  0  0  0  0
  1  4  1  0  0  0  0
  2  5  1  0  0  0  0
  2  7  2  0  0  0  0
  3  8  1  0  0  0  0
  4  9  2  0  0  0  0
  5 10  2  0  0  0  0
  6  8  2  0  0  0  0
  6  9  1  0  0  0  0
  7 21  1  0  0  0  0
  8 16  1  0  0  0  0
  9 22  1  0  0  0  0
 10 15  1  6  0  0  0
 10 21  1  0  0  0  0
 11 17  1  0  0  0  0
 11 18  1  0  0  0  0
 11 20  2  0  0  0  0
 12 13  1  0  0  0  0
 12 18  1  0  0  0  0
 13 19  1  0  0  0  0
 14 15  1  0  0  0  0
 14 18  1  0  0  0  0
 15 19  1  0  0  0  0
 16 19  1  1  0  0  0
 17 23  1  0  0  0  0
  1 24  1  0  0  0  0
  2 25  1  0  0  0  0
  3 26  1  0  0  0  0
  4 27  1  0  0  0  0
  5 28  1  0  0  0  0
  6 29  1  0  0  0  0
  7 30  1  0  0  0  0
 12 31  1  0  0  0  0
 12 32  1  0  0  0  0
 13 33  1  0  0  0  0
 13 34  1  0  0  0  0
 14 35  1  0  0  0  0
 14 36  1  0  0  0  0
 15 37  1  0  0  0  0
 16 38  1  0  0  0  0
 16 39  1  0  0  0  0
 17 40  1  0  0  0  0
 17 41  1  0  0  0  0
M  END
> <Chemgauss4 Score>
-5.11088609695435

> <Number of Confs>
200

$$$$
PAT-GYR-359-3
  -OEChem-03242005443D

 40 41  0     0  0  0  0  0  0999 V2000
    7.9655   -0.3502   20.3397 C   0  0  0  0  0  0  0  0  0  0  0  0
    7.2514    0.0955   19.4830 C   0  0  0  0  0  0  0  0  0  0  0  0
    8.3929   -1.9677   22.1234 C   0  0  0  0  0  0  0  0  0  0  0  0
   10.0671   -0.3098   21.5890 C   0  0  0  0  0  0  0  0  0  0  0  0
    9.2229   -2.4854   23.1177 C   0  0  0  0  0  0  0  0  0  0  0  0
   10.8971   -0.8275   22.5834 C   0  0  0  0  0  0  0  0  0  0  0  0
    8.8150   -0.8799   21.3590 C   0  0  0  0  0  0  0  0  0  0  0  0
   10.4750   -1.9153   23.3477 C   0  0  0  0  0  0  0  0  0  0  0  0
    6.3964    0.6286   18.4551 C   0  0  0  0  0  0  0  0  0  0  0  0
   10.2245   -4.3740   25.5298 C   0  0  0  0  0  0  0  0  0  0  0  0
    9.7278   -4.1120   27.9402 C   0  0  0  0  0  0  0  0  0  0  0  0
    8.5777   -5.9276   26.7318 C   0  0  0  0  0  0  0  0  0  0  0  0
    8.4189   -3.8314   28.6615 C   0  0  0  0  0  0  0  0  0  0  0  0
    7.3257   -5.5776   27.5290 C   0  0  0  0  0  0  0  0  0  0  0  0
    4.6241    2.1151   17.9922 C   0  0  0  0  0  0  0  0  0  0  0  0
   11.3677   -2.4715   24.4191 C   0  0  0  0  0  0  0  0  0  0  0  0
    9.4885   -4.7764   26.6570 N   0  0  0  0  0  0  0  0  0  0  0  0
   10.6114   -3.0391   25.5128 N   0  0  0  0  0  0  0  0  0  0  0  0
    6.5097    0.2648   17.2942 O   0  0  0  0  0  0  0  0  0  0  0  0
   10.5092   -5.1446   24.6070 O   0  0  0  0  0  0  0  0  0  0  0  0
    7.6721   -5.0408   28.8062 O   0  0  0  0  0  0  0  0  0  0  0  0
    5.5126    1.5342   18.9522 O   0  0  0  0  0  0  0  0  0  0  0  0
    7.4204   -2.4241   21.9546 H   0  0  0  0  0  0  0  0  0  0  0  0
   10.4101    0.5395   21.0028 H   0  0  0  0  0  0  0  0  0  0  0  0
    8.8861   -3.3336   23.7077 H   0  0  0  0  0  0  0  0  0  0  0  0
   11.8703   -0.3758   22.7569 H   0  0  0  0  0  0  0  0  0  0  0  0
   10.2961   -3.1864   27.8092 H   0  0  0  0  0  0  0  0  0  0  0  0
   10.3417   -4.8019   28.5316 H   0  0  0  0  0  0  0  0  0  0  0  0
    9.1344   -6.7290   27.2310 H   0  0  0  0  0  0  0  0  0  0  0  0
    8.2748   -6.2795   25.7448 H   0  0  0  0  0  0  0  0  0  0  0  0
    8.6222   -3.4451   29.6653 H   0  0  0  0  0  0  0  0  0  0  0  0
    7.8172   -3.0829   28.1323 H   0  0  0  0  0  0  0  0  0  0  0  0
    6.6943   -4.8626   26.9879 H   0  0  0  0  0  0  0  0  0  0  0  0
    6.7306   -6.4805   27.6991 H   0  0  0  0  0  0  0  0  0  0  0  0
    3.9597    2.8243   18.4919 H   0  0  0  0  0  0  0  0  0  0  0  0
    4.0385    1.3267   17.5125 H   0  0  0  0  0  0  0  0  0  0  0  0
    5.2121    2.6407   17.2361 H   0  0  0  0  0  0  0  0  0  0  0  0
   12.0148   -3.2567   24.0132 H   0  0  0  0  0  0  0  0  0  0  0  0
   12.0192   -1.6936   24.8308 H   0  0  0  0  0  0  0  0  0  0  0  0
   10.3555   -2.4454   26.2910 H   0  0  0  0  0  0  0  0  0  0  0  0
  1  2  3  0  0  0  0
  1  7  1  0  0  0  0
  2  9  1  0  0  0  0
  3  5  2  0  0  0  0
  3  7  1  0  0  0  0
  4  6  1  0  0  0  0
  4  7  2  0  0  0  0
  5  8  1  0  0  0  0
  6  8  2  0  0  0  0
  8 16  1  0  0  0  0
  9 19  2  0  0  0  0
  9 22  1  0  0  0  0
 10 17  1  0  0  0  0
 10 18  1  0  0  0  0
 10 20  2  0  0  0  0
 11 13  1  0  0  0  0
 11 17  1  0  0  0  0
 12 14  1  0  0  0  0
 12 17  1  0  0  0  0
 13 21  1  0  0  0  0
 14 21  1  0  0  0  0
 15 22  1  0  0  0  0
 16 18  1  0  0  0  0
  3 23  1  0  0  0  0
  4 24  1  0  0  0  0
  5 25  1  0  0  0  0
  6 26  1  0  0  0  0
 11 27  1  0  0  0  0
 11 28  1  0  0  0  0
 12 29  1  0  0  0  0
 12 30  1  0  0  0  0
 13 31  1  0  0  0  0
 13 32  1  0  0  0  0
 14 33  1  0  0  0  0
 14 34  1  0  0  0  0
 15 35  1  0  0  0  0
 15 36  1  0  0  0  0
 15 37  1  0  0  0  0
 16 38  1  0  0  0  0
 16 39  1  0  0  0  0
 18 40  1  0  0  0  0
M  END
> <Chemgauss4 Score>
-5.10954666137695

> <Number of Confs>
80

$$$$
DAR-DIA-842-10
  -OEChem-03242005443D

 25 26  0     0  0  0  0  0  0999 V2000
    9.0434   -4.5357   28.1143 C   0  0  0  0  0  0  0  0  0  0  0  0
    9.1811   -3.5884   27.1058 C   0  0  0  0  0  0  0  0  0  0  0  0
   11.4908   -2.2521   22.2802 C   0  0  0  0  0  0  0  0  0  0  0  0
    8.5624   -5.7877   27.7666 C   0  0  0  0  0  0  0  0  0  0  0  0
    8.3668   -5.1972   25.5550 C   0  0  0  0  0  0  0  0  0  0  0  0
   12.6975   -1.6114   22.4560 C   0  0  0  0  0  0  0  0  0  0  0  0
   10.8000   -0.2198   23.1717 C   0  0  0  0  0  0  0  0  0  0  0  0
   10.3915   -1.4459   22.6947 C   0  0  0  0  0  0  0  0  0  0  0  0
    8.8385   -3.9174   25.7990 C   0  0  0  0  0  0  0  0  0  0  0  0
    8.6668   -3.1564   23.4040 C   0  0  0  0  0  0  0  0  0  0  0  0
    8.9526   -1.8851   22.6200 C   0  0  0  0  0  0  0  0  0  0  0  0
    8.2193   -6.1441   26.5085 N   0  0  0  0  0  0  0  0  0  0  0  0
    8.9654   -2.9896   24.7682 N   0  0  0  0  0  0  0  0  0  0  0  0
    8.2337   -4.1725   22.8700 O   0  0  0  0  0  0  0  0  0  0  0  0
   12.5025   -0.0444   23.1184 S   0  0  0  0  0  0  0  0  0  0  0  0
    9.3044   -4.3012   29.1400 H   0  0  0  0  0  0  0  0  0  0  0  0
    9.5560   -2.5977   27.3491 H   0  0  0  0  0  0  0  0  0  0  0  0
   11.4054   -3.2519   21.8736 H   0  0  0  0  0  0  0  0  0  0  0  0
    8.4359   -6.5614   28.5167 H   0  0  0  0  0  0  0  0  0  0  0  0
    8.0834   -5.5133   24.5555 H   0  0  0  0  0  0  0  0  0  0  0  0
   13.6844   -1.9888   22.2279 H   0  0  0  0  0  0  0  0  0  0  0  0
   10.1837    0.5836   23.5509 H   0  0  0  0  0  0  0  0  0  0  0  0
    8.3033   -1.0854   22.9985 H   0  0  0  0  0  0  0  0  0  0  0  0
    8.6721   -2.0465   21.5714 H   0  0  0  0  0  0  0  0  0  0  0  0
    9.3230   -2.0649   25.0389 H   0  0  0  0  0  0  0  0  0  0  0  0
  1  2  2  0  0  0  0
  1  4  1  0  0  0  0
  2  9  1  0  0  0  0
  3  6  2  0  0  0  0
  3  8  1  0  0  0  0
  4 12  2  0  0  0  0
  5  9  2  0  0  0  0
  5 12  1  0  0  0  0
  6 15  1  0  0  0  0
  7  8  2  0  0  0  0
  7 15  1  0  0  0  0
  8 11  1  0  0  0  0
  9 13  1  0  0  0  0
 10 11  1  0  0  0  0
 10 13  1  0  0  0  0
 10 14  2  0  0  0  0
  1 16  1  0  0  0  0
  2 17  1  0  0  0  0
  3 18  1  0  0  0  0
  4 19  1  0  0  0  0
  5 20  1  0  0  0  0
  6 21  1  0  0  0  0
  7 22  1  0  0  0  0
 11 23  1  0  0  0  0
 11 24  1  0  0  0  0
 13 25  1  0  0  0  0
M  END
> <Chemgauss4 Score>
-5.10952377319336

> <Number of Confs>
26

$$$$
DUN-NEW-f8c-22
  -OEChem-03242005443D

 37 38  0     1  0  0  0  0  0999 V2000
   13.4557   -0.1720   22.9617 C   0  0  0  0  0  0  0  0  0  0  0  0
   12.6590    0.2374   24.0309 C   0  0  0  0  0  0  0  0  0  0  0  0
   13.1278   -1.3255   22.2491 C   0  0  0  0  0  0  0  0  0  0  0  0
   11.5344   -0.5066   24.3876 C   0  0  0  0  0  0  0  0  0  0  0  0
   12.0032   -2.0695   22.6058 C   0  0  0  0  0  0  0  0  0  0  0  0
   11.2064   -1.6601   23.6751 C   0  0  0  0  0  0  0  0  0  0  0  0
    8.7573   -5.4681   25.7107 C   0  0  0  0  0  0  0  0  0  0  0  0
    8.1602   -3.1037   26.3551 C   0  0  0  0  0  0  0  0  0  0  0  0
    8.5525   -1.6794   25.9883 C   0  0  0  0  0  0  0  0  0  0  0  0
   10.2517   -3.5834   25.1096 C   0  0  0  0  0  0  0  0  0  0  0  0
    9.9747   -2.4758   24.0655 C   0  0  1  0  0  0  0  0  0  0  0  0
    6.7467   -0.0133   24.1227 C   0  0  0  0  0  0  0  0  0  0  0  0
    7.4995   -5.8996   26.4253 C   0  0  0  0  0  0  0  0  0  0  0  0
    9.0201   -4.0977   25.7077 N   0  0  0  0  0  0  0  0  0  0  0  0
    8.8305   -1.5983   24.5298 N   0  0  1  0  0  0  0  0  0  0  0  0
    9.4718   -6.3153   25.1703 O   0  0  0  0  0  0  0  0  0  0  0  0
    6.5784   -2.6035   23.8228 O   0  0  0  0  0  0  0  0  0  0  0  0
    7.9227   -1.2650   22.1534 O   0  0  0  0  0  0  0  0  0  0  0  0
    7.4628   -1.5101   23.4991 S   0  0  0  0  0  0  0  0  0  0  0  0
    6.2015   -5.8449   25.2379 Cl  0  0  0  0  0  0  0  0  0  0  0  0
   14.3306    0.4082   22.6832 H   0  0  0  0  0  0  0  0  0  0  0  0
   12.9136    1.1361   24.5851 H   0  0  0  0  0  0  0  0  0  0  0  0
   13.7472   -1.6439   21.4159 H   0  0  0  0  0  0  0  0  0  0  0  0
   10.9195   -0.1802   25.2222 H   0  0  0  0  0  0  0  0  0  0  0  0
   11.7555   -2.9669   22.0450 H   0  0  0  0  0  0  0  0  0  0  0  0
    8.2498   -3.2615   27.4431 H   0  0  0  0  0  0  0  0  0  0  0  0
    7.1035   -3.2767   26.0977 H   0  0  0  0  0  0  0  0  0  0  0  0
    7.7530   -0.9815   26.2548 H   0  0  0  0  0  0  0  0  0  0  0  0
    9.4534   -1.4102   26.5465 H   0  0  0  0  0  0  0  0  0  0  0  0
   10.8455   -4.3834   24.6499 H   0  0  0  0  0  0  0  0  0  0  0  0
   10.8615   -3.1884   25.9385 H   0  0  0  0  0  0  0  0  0  0  0  0
    9.6119   -2.9676   23.1083 H   0  0  0  0  0  0  0  0  0  0  0  0
    5.8371    0.1949   23.5572 H   0  0  0  0  0  0  0  0  0  0  0  0
    6.5158   -0.1563   25.1794 H   0  0  0  0  0  0  0  0  0  0  0  0
    7.4698    0.7936   23.9948 H   0  0  0  0  0  0  0  0  0  0  0  0
    7.2965   -5.2032   27.2309 H   0  0  0  0  0  0  0  0  0  0  0  0
    7.6309   -6.9129   26.7870 H   0  0  0  0  0  0  0  0  0  0  0  0
  1  2  1  0  0  0  0
  1  3  2  0  0  0  0
  2  4  2  0  0  0  0
  3  5  1  0  0  0  0
  4  6  1  0  0  0  0
  5  6  2  0  0  0  0
  6 11  1  6  0  0  0
  7 13  1  0  0  0  0
  7 14  1  0  0  0  0
  7 16  2  0  0  0  0
  8  9  1  0  0  0  0
  8 14  1  0  0  0  0
  9 15  1  0  0  0  0
 10 11  1  0  0  0  0
 10 14  1  0  0  0  0
 11 15  1  0  0  0  0
 12 19  1  0  0  0  0
 13 20  1  0  0  0  0
 15 19  1  6  0  0  0
 17 19  2  0  0  0  0
 18 19  2  0  0  0  0
  1 21  1  0  0  0  0
  2 22  1  0  0  0  0
  3 23  1  0  0  0  0
  4 24  1  0  0  0  0
  5 25  1  0  0  0  0
  8 26  1  0  0  0  0
  8 27  1  0  0  0  0
  9 28  1  0  0  0  0
  9 29  1  0  0  0  0
 10 30  1  0  0  0  0
 10 31  1  0  0  0  0
 11 32  1  0  0  0  0
 12 33  1  0  0  0  0
 12 34  1  0  0  0  0
 12 35  1  0  0  0  0
 13 36  1  0  0  0  0
 13 37  1  0  0  0  0
M  END
> <Chemgauss4 Score>
-5.1087212562561

> <Number of Confs>
33

$$$$
DAR-DIA-842-19
  -OEChem-03242005443D

 30 32  0     0  0  0  0  0  0999 V2000
    4.0936   -6.1207   23.8179 C   0  0  0  0  0  0  0  0  0  0  0  0
   11.7014   -0.7510   22.6347 C   0  0  0  0  0  0  0  0  0  0  0  0
    4.6377   -5.5017   26.1616 C   0  0  0  0  0  0  0  0  0  0  0  0
   11.6591   -2.0424   23.1570 C   0  0  0  0  0  0  0  0  0  0  0  0
    5.7262   -5.0085   26.9376 C   0  0  0  0  0  0  0  0  0  0  0  0
   10.9643   -3.3010   25.3432 C   0  0  0  0  0  0  0  0  0  0  0  0
   11.2622    0.3034   23.4240 C   0  0  0  0  0  0  0  0  0  0  0  0
    4.9737   -5.6490   24.8339 C   0  0  0  0  0  0  0  0  0  0  0  0
   11.1704   -2.2056   24.4634 C   0  0  0  0  0  0  0  0  0  0  0  0
   10.4443   -2.8000   26.5172 C   0  0  0  0  0  0  0  0  0  0  0  0
   10.7629   -1.0610   25.1423 C   0  0  0  0  0  0  0  0  0  0  0  0
    6.8528   -4.7978   26.1733 C   0  0  0  0  0  0  0  0  0  0  0  0
    8.5812   -3.9416   27.7934 C   0  0  0  0  0  0  0  0  0  0  0  0
   10.0445   -3.4847   27.7611 C   0  0  0  0  0  0  0  0  0  0  0  0
    3.3767   -6.5049   22.9901 N   0  0  0  0  0  0  0  0  0  0  0  0
   10.7826    0.2055   24.6857 N   0  0  0  0  0  0  0  0  0  0  0  0
   10.3261   -1.4408   26.3841 N   0  0  0  0  0  0  0  0  0  0  0  0
    8.1376   -4.3232   26.5297 N   0  0  0  0  0  0  0  0  0  0  0  0
    7.9385   -3.9440   28.8384 O   0  0  0  0  0  0  0  0  0  0  0  0
    6.5957   -5.1938   24.5273 S   0  0  0  0  0  0  0  0  0  0  0  0
   12.0704   -0.5751   21.6300 H   0  0  0  0  0  0  0  0  0  0  0  0
    3.6603   -5.7327   26.5674 H   0  0  0  0  0  0  0  0  0  0  0  0
   11.9934   -2.8897   22.5669 H   0  0  0  0  0  0  0  0  0  0  0  0
    5.6809   -4.8195   28.0028 H   0  0  0  0  0  0  0  0  0  0  0  0
   11.1721   -4.3432   25.1411 H   0  0  0  0  0  0  0  0  0  0  0  0
   11.2879    1.3169   23.0324 H   0  0  0  0  0  0  0  0  0  0  0  0
   10.6719   -4.3799   27.9437 H   0  0  0  0  0  0  0  0  0  0  0  0
   10.2062   -2.8340   28.6434 H   0  0  0  0  0  0  0  0  0  0  0  0
    9.9718   -0.8116   27.0914 H   0  0  0  0  0  0  0  0  0  0  0  0
    8.8164   -4.2526   25.7744 H   0  0  0  0  0  0  0  0  0  0  0  0
  1  8  1  0  0  0  0
  1 15  3  0  0  0  0
  2  4  2  0  0  0  0
  2  7  1  0  0  0  0
  3  5  1  0  0  0  0
  3  8  2  0  0  0  0
  4  9  1  0  0  0  0
  5 12  2  0  0  0  0
  6  9  1  0  0  0  0
  6 10  2  0  0  0  0
  7 16  2  0  0  0  0
  8 20  1  0  0  0  0
  9 11  2  0  0  0  0
 10 14  1  0  0  0  0
 10 17  1  0  0  0  0
 11 16  1  0  0  0  0
 11 17  1  0  0  0  0
 12 18  1  0  0  0  0
 12 20  1  0  0  0  0
 13 14  1  0  0  0  0
 13 18  1  0  0  0  0
 13 19  2  0  0  0  0
  2 21  1  0  0  0  0
  3 22  1  0  0  0  0
  4 23  1  0  0  0  0
  5 24  1  0  0  0  0
  6 25  1  0  0  0  0
  7 26  1  0  0  0  0
 14 27  1  0  0  0  0
 14 28  1  0  0  0  0
 17 29  1  0  0  0  0
 18 30  1  0  0  0  0
M  END
> <Chemgauss4 Score>
-5.10619831085205

> <Number of Confs>
65

$$$$
MIH-UNI-6b9-2
  -OEChem-03242005443D

 44 46  0     1  0  0  0  0  0999 V2000
   12.6452   -0.7914   22.9720 C   0  0  0  0  0  0  0  0  0  0  0  0
    6.0017   -3.5981   23.6283 C   0  0  0  0  0  0  0  0  0  0  0  0
   12.5079    0.4454   23.5813 C   0  0  0  0  0  0  0  0  0  0  0  0
   10.6327   -0.2268   24.7258 C   0  0  0  0  0  0  0  0  0  0  0  0
    5.7492   -4.1170   22.3775 C   0  0  0  0  0  0  0  0  0  0  0  0
    7.9365   -4.8289   23.2485 C   0  0  0  0  0  0  0  0  0  0  0  0
   11.7107   -1.7746   23.2773 C   0  0  0  0  0  0  0  0  0  0  0  0
    7.2688   -4.0103   24.1329 C   0  0  0  0  0  0  0  0  0  0  0  0
   10.6820   -1.4950   24.1700 C   0  0  0  0  0  0  0  0  0  0  0  0
    8.6335   -2.3125   25.3871 C   0  0  0  0  0  0  0  0  0  0  0  0
    6.9234   -5.8859   27.4084 C   0  0  0  0  0  0  0  0  0  0  0  0
    8.3891   -4.1555   28.4971 C   0  0  0  0  0  0  0  0  0  0  0  0
    7.9050   -5.9102   26.2299 C   0  0  0  0  0  0  0  0  0  0  0  0
    9.3191   -4.2438   27.2809 C   0  0  0  0  0  0  0  0  0  0  0  0
    7.6057   -5.4512   28.7039 C   0  0  0  0  0  0  0  0  0  0  0  0
   11.8344   -3.1170   22.6343 C   0  0  0  0  0  0  0  0  0  0  0  0
    7.8145   -3.5973   25.4821 C   0  0  2  0  0  0  0  0  0  0  0  0
   11.5222    0.7542   24.4535 N   0  0  0  0  0  0  0  0  0  0  0  0
    8.6488   -4.6581   26.0417 N   0  0  0  0  0  0  0  0  0  0  0  0
    9.7072   -2.4618   24.5129 N   0  0  0  0  0  0  0  0  0  0  0  0
    8.3390   -1.3109   26.0341 O   0  0  0  0  0  0  0  0  0  0  0  0
    8.4910   -6.4881   29.1230 O   0  0  0  0  0  0  0  0  0  0  0  0
    7.0366   -5.0970   21.8165 S   0  0  0  0  0  0  0  0  0  0  0  0
   13.4593   -0.9773   22.2797 H   0  0  0  0  0  0  0  0  0  0  0  0
    5.3073   -2.9541   24.1530 H   0  0  0  0  0  0  0  0  0  0  0  0
   13.2107    1.2464   23.3767 H   0  0  0  0  0  0  0  0  0  0  0  0
    9.8539    0.0519   25.4296 H   0  0  0  0  0  0  0  0  0  0  0  0
    4.8702   -3.9682   21.7665 H   0  0  0  0  0  0  0  0  0  0  0  0
    8.9090   -5.2852   23.3714 H   0  0  0  0  0  0  0  0  0  0  0  0
    6.0867   -5.2112   27.1855 H   0  0  0  0  0  0  0  0  0  0  0  0
    6.4728   -6.8798   27.5405 H   0  0  0  0  0  0  0  0  0  0  0  0
    8.9730   -3.9260   29.3996 H   0  0  0  0  0  0  0  0  0  0  0  0
    7.6928   -3.3161   28.3750 H   0  0  0  0  0  0  0  0  0  0  0  0
    8.6172   -6.7431   26.4016 H   0  0  0  0  0  0  0  0  0  0  0  0
    7.3533   -6.1786   25.3033 H   0  0  0  0  0  0  0  0  0  0  0  0
    9.8274   -3.2656   27.1405 H   0  0  0  0  0  0  0  0  0  0  0  0
   10.1256   -4.9652   27.5251 H   0  0  0  0  0  0  0  0  0  0  0  0
    6.8537   -5.3163   29.4893 H   0  0  0  0  0  0  0  0  0  0  0  0
   12.4559   -3.7773   23.2501 H   0  0  0  0  0  0  0  0  0  0  0  0
   10.8512   -3.5853   22.5021 H   0  0  0  0  0  0  0  0  0  0  0  0
   12.2873   -3.0390   21.6381 H   0  0  0  0  0  0  0  0  0  0  0  0
    6.9908   -3.4327   26.1876 H   0  0  0  0  0  0  0  0  0  0  0  0
    9.8018   -3.3727   24.0688 H   0  0  0  0  0  0  0  0  0  0  0  0
    7.9478   -7.2806   29.2611 H   0  0  0  0  0  0  0  0  0  0  0  0
  1  3  2  0  0  0  0
  1  7  1  0  0  0  0
  2  5  2  0  0  0  0
  2  8  1  0  0  0  0
  3 18  1  0  0  0  0
  4  9  1  0  0  0  0
  4 18  2  0  0  0  0
  5 23  1  0  0  0  0
  6  8  2  0  0  0  0
  6 23  1  0  0  0  0
  7  9  2  0  0  0  0
  7 16  1  0  0  0  0
  8 17  1  0  0  0  0
  9 20  1  0  0  0  0
 10 17  1  0  0  0  0
 10 20  1  0  0  0  0
 10 21  2  0  0  0  0
 11 13  1  0  0  0  0
 11 15  1  0  0  0  0
 12 14  1  0  0  0  0
 12 15  1  0  0  0  0
 13 19  1  0  0  0  0
 14 19  1  0  0  0  0
 15 22  1  0  0  0  0
 17 19  1  0  0  0  0
  1 24  1  0  0  0  0
  2 25  1  0  0  0  0
  3 26  1  0  0  0  0
  4 27  1  0  0  0  0
  5 28  1  0  0  0  0
  6 29  1  0  0  0  0
 11 30  1  0  0  0  0
 11 31  1  0  0  0  0
 12 32  1  0  0  0  0
 12 33  1  0  0  0  0
 13 34  1  0  0  0  0
 13 35  1  0  0  0  0
 14 36  1  0  0  0  0
 14 37  1  0  0  0  0
 15 38  1  0  0  0  0
 16 39  1  0  0  0  0
 16 40  1  0  0  0  0
 16 41  1  0  0  0  0
 17 42  1  6  0  0  0
 20 43  1  0  0  0  0
 22 44  1  0  0  0  0
M  END
> <Chemgauss4 Score>
-5.1054835319519

> <Number of Confs>
40

$$$$
CHR-SOS-54d-4
  -OEChem-03242005443D

 51 53  0     1  0  0  0  0  0999 V2000
    8.7605   -0.7806   22.4086 C   0  0  0  0  0  0  0  0  0  0  0  0
    9.9042   -0.9197   22.7472 C   0  0  0  0  0  0  0  0  0  0  0  0
    7.0747   -4.1117   27.4325 C   0  0  0  0  0  0  0  0  0  0  0  0
    8.0724   -3.5395   26.6512 C   0  0  0  0  0  0  0  0  0  0  0  0
    7.0206   -5.4943   27.5051 C   0  0  0  0  0  0  0  0  0  0  0  0
    8.8340   -5.7276   26.1138 C   0  0  0  0  0  0  0  0  0  0  0  0
    8.9729   -4.3559   25.9759 C   0  0  0  0  0  0  0  0  0  0  0  0
   10.2613   -2.4558   24.9407 C   0  0  0  0  0  0  0  0  0  0  0  0
   14.1456    0.0068   23.0341 C   0  0  0  0  0  0  0  0  0  0  0  0
   13.7545   -1.2355   22.2417 C   0  0  0  0  0  0  0  0  0  0  0  0
   13.3125    0.1498   24.3027 C   0  0  0  0  0  0  0  0  0  0  0  0
    6.2928   -0.1878   24.2696 C   0  0  0  0  0  0  0  0  0  0  0  0
    5.5773   -1.5259   24.1253 C   0  0  0  0  0  0  0  0  0  0  0  0
    6.6214    0.3926   22.8948 C   0  0  0  0  0  0  0  0  0  0  0  0
   12.2569   -1.2573   21.9274 C   0  0  0  0  0  0  0  0  0  0  0  0
   11.8127    0.1353   23.9987 C   0  0  0  0  0  0  0  0  0  0  0  0
    6.3617   -2.4802   23.2292 C   0  0  0  0  0  0  0  0  0  0  0  0
    7.3561   -0.6096   21.9928 C   0  0  2  0  0  0  0  0  0  0  0  0
   11.3695   -1.0971   23.1808 C   0  0  0  0  0  0  0  0  0  0  0  0
   11.4537   -2.3165   24.0186 C   0  0  0  0  0  0  0  0  0  0  0  0
    7.8776   -6.3199   26.8636 N   0  0  0  0  0  0  0  0  0  0  0  0
    6.6405   -1.8890   21.9206 N   0  0  0  0  0  0  0  0  0  0  0  0
    9.9987   -3.8029   25.1730 N   0  0  0  0  0  0  0  0  0  0  0  0
    9.6529   -1.4895   25.3886 O   0  0  0  0  0  0  0  0  0  0  0  0
    6.3619   -3.4947   27.9677 H   0  0  0  0  0  0  0  0  0  0  0  0
    8.1391   -2.4574   26.5755 H   0  0  0  0  0  0  0  0  0  0  0  0
    6.2606   -5.9894   28.1005 H   0  0  0  0  0  0  0  0  0  0  0  0
    9.5066   -6.4164   25.6115 H   0  0  0  0  0  0  0  0  0  0  0  0
   15.2086   -0.0498   23.3001 H   0  0  0  0  0  0  0  0  0  0  0  0
   14.0210    0.8977   22.4085 H   0  0  0  0  0  0  0  0  0  0  0  0
   14.3322   -1.2746   21.3102 H   0  0  0  0  0  0  0  0  0  0  0  0
   14.0204   -2.1320   22.8136 H   0  0  0  0  0  0  0  0  0  0  0  0
   13.5531   -0.6681   24.9917 H   0  0  0  0  0  0  0  0  0  0  0  0
   13.5805    1.0815   24.8157 H   0  0  0  0  0  0  0  0  0  0  0  0
    5.6527    0.5133   24.8182 H   0  0  0  0  0  0  0  0  0  0  0  0
    7.2110   -0.3130   24.8535 H   0  0  0  0  0  0  0  0  0  0  0  0
    5.4424   -1.9777   25.1171 H   0  0  0  0  0  0  0  0  0  0  0  0
    4.5752   -1.3667   23.7099 H   0  0  0  0  0  0  0  0  0  0  0  0
    5.6892    0.7229   22.4107 H   0  0  0  0  0  0  0  0  0  0  0  0
    7.2312    1.3018   23.0259 H   0  0  0  0  0  0  0  0  0  0  0  0
   12.0361   -0.4697   21.1949 H   0  0  0  0  0  0  0  0  0  0  0  0
   12.0248   -2.2121   21.4363 H   0  0  0  0  0  0  0  0  0  0  0  0
   11.2704    0.1528   24.9538 H   0  0  0  0  0  0  0  0  0  0  0  0
   11.5475    1.0625   23.4739 H   0  0  0  0  0  0  0  0  0  0  0  0
    7.3118   -2.7362   23.7119 H   0  0  0  0  0  0  0  0  0  0  0  0
    5.8124   -3.4217   23.1020 H   0  0  0  0  0  0  0  0  0  0  0  0
    7.3756   -0.1784   20.9551 H   0  0  0  0  0  0  0  0  0  0  0  0
   12.3659   -2.2651   24.6123 H   0  0  0  0  0  0  0  0  0  0  0  0
   11.5064   -3.1841   23.3617 H   0  0  0  0  0  0  0  0  0  0  0  0
    7.2052   -2.5557   21.3793 H   0  0  0  0  0  0  0  0  0  0  0  0
   10.6082   -4.4799   24.7188 H   0  0  0  0  0  0  0  0  0  0  0  0
  1  2  3  0  0  0  0
  1 18  1  1  0  0  0
  2 19  1  0  0  0  0
  3  4  2  0  0  0  0
  3  5  1  0  0  0  0
  4  7  1  0  0  0  0
  5 21  2  0  0  0  0
  6  7  2  0  0  0  0
  6 21  1  0  0  0  0
  7 23  1  0  0  0  0
  8 20  1  0  0  0  0
  8 23  1  0  0  0  0
  8 24  2  0  0  0  0
  9 10  1  0  0  0  0
  9 11  1  0  0  0  0
 10 15  1  0  0  0  0
 11 16  1  0  0  0  0
 12 13  1  0  0  0  0
 12 14  1  0  0  0  0
 13 17  1  0  0  0  0
 14 18  1  0  0  0  0
 15 19  1  0  0  0  0
 16 19  1  0  0  0  0
 17 22  1  0  0  0  0
 18 22  1  0  0  0  0
 19 20  1  0  0  0  0
  3 25  1  0  0  0  0
  4 26  1  0  0  0  0
  5 27  1  0  0  0  0
  6 28  1  0  0  0  0
  9 29  1  0  0  0  0
  9 30  1  0  0  0  0
 10 31  1  0  0  0  0
 10 32  1  0  0  0  0
 11 33  1  0  0  0  0
 11 34  1  0  0  0  0
 12 35  1  0  0  0  0
 12 36  1  0  0  0  0
 13 37  1  0  0  0  0
 13 38  1  0  0  0  0
 14 39  1  0  0  0  0
 14 40  1  0  0  0  0
 15 41  1  0  0  0  0
 15 42  1  0  0  0  0
 16 43  1  0  0  0  0
 16 44  1  0  0  0  0
 17 45  1  0  0  0  0
 17 46  1  0  0  0  0
 18 47  1  0  0  0  0
 20 48  1  0  0  0  0
 20 49  1  0  0  0  0
 22 50  1  0  0  0  0
 23 51  1  0  0  0  0
M  END
> <Chemgauss4 Score>
-5.09993934631348

> <Number of Confs>
138

$$$$
KIM-UNI-7d1-4
  -OEChem-03242005443D

 40 42  0     1  0  0  0  0  0999 V2000
    5.2253   -5.6019   24.5929 C   0  0  0  0  0  0  0  0  0  0  0  0
    5.2263   -5.8314   23.2162 C   0  0  0  0  0  0  0  0  0  0  0  0
    7.5869   -5.3522   23.1400 C   0  0  0  0  0  0  0  0  0  0  0  0
    7.5968   -5.1238   24.5254 C   0  0  0  0  0  0  0  0  0  0  0  0
    6.4007   -5.2329   25.2644 C   0  0  0  0  0  0  0  0  0  0  0  0
    6.4059   -5.7039   22.4897 C   0  0  0  0  0  0  0  0  0  0  0  0
   11.8103   -0.4492   23.2863 C   0  0  0  0  0  0  0  0  0  0  0  0
    8.8193   -5.0270   26.7204 C   0  0  0  0  0  0  0  0  0  0  0  0
    7.5276   -4.4828   27.3241 C   0  0  0  0  0  0  0  0  0  0  0  0
   10.8288   -1.5127   25.3749 C   0  0  0  0  0  0  0  0  0  0  0  0
    9.6427   -1.6364   23.2203 C   0  0  0  0  0  0  0  0  0  0  0  0
   10.4837   -2.9829   25.6190 C   0  0  0  0  0  0  0  0  0  0  0  0
    9.3259   -3.1046   23.5026 C   0  0  0  0  0  0  0  0  0  0  0  0
    8.8904   -4.7456   25.2135 C   0  0  2  0  0  0  0  0  0  0  0  0
   12.0634   -0.7878   21.8389 C   0  0  0  0  0  0  0  0  0  0  0  0
    6.3745   -5.0320   26.6391 N   0  0  0  0  0  0  0  0  0  0  0  0
   10.8381   -1.2032   23.9421 N   0  0  0  0  0  0  0  0  0  0  0  0
    9.2266   -3.3472   24.9492 N   0  0  0  0  0  0  0  0  0  0  0  0
   12.4546    0.4600   23.8154 O   0  0  0  0  0  0  0  0  0  0  0  0
    6.4071   -5.9843   20.7921 Cl  0  0  0  0  0  0  0  0  0  0  0  0
    4.2924   -5.7101   25.1422 H   0  0  0  0  0  0  0  0  0  0  0  0
    4.2971   -6.1099   22.7256 H   0  0  0  0  0  0  0  0  0  0  0  0
    8.5117   -5.2571   22.5745 H   0  0  0  0  0  0  0  0  0  0  0  0
    9.6867   -4.6026   27.2408 H   0  0  0  0  0  0  0  0  0  0  0  0
    8.8623   -6.1120   26.8891 H   0  0  0  0  0  0  0  0  0  0  0  0
    7.4751   -4.7475   28.3856 H   0  0  0  0  0  0  0  0  0  0  0  0
    7.5019   -3.3887   27.2630 H   0  0  0  0  0  0  0  0  0  0  0  0
   10.0777   -0.8607   25.8378 H   0  0  0  0  0  0  0  0  0  0  0  0
   11.7876   -1.2859   25.8452 H   0  0  0  0  0  0  0  0  0  0  0  0
    9.7644   -1.4851   22.1428 H   0  0  0  0  0  0  0  0  0  0  0  0
    8.8162   -0.9939   23.5485 H   0  0  0  0  0  0  0  0  0  0  0  0
   11.3115   -3.6169   25.2742 H   0  0  0  0  0  0  0  0  0  0  0  0
   10.3838   -3.1360   26.7004 H   0  0  0  0  0  0  0  0  0  0  0  0
    8.3711   -3.3476   23.0206 H   0  0  0  0  0  0  0  0  0  0  0  0
   10.0944   -3.7430   23.0468 H   0  0  0  0  0  0  0  0  0  0  0  0
    9.6999   -5.3828   24.8008 H   0  0  0  0  0  0  0  0  0  0  0  0
   11.4068   -0.1907   21.2147 H   0  0  0  0  0  0  0  0  0  0  0  0
   11.8663   -1.8434   21.6811 H   0  0  0  0  0  0  0  0  0  0  0  0
   13.0998   -0.5723   21.5998 H   0  0  0  0  0  0  0  0  0  0  0  0
    5.4836   -5.0562   27.1209 H   0  0  0  0  0  0  0  0  0  0  0  0
  1  2  2  0  0  0  0
  1  5  1  0  0  0  0
  2  6  1  0  0  0  0
  3  4  1  0  0  0  0
  3  6  2  0  0  0  0
  4  5  2  0  0  0  0
  4 14  1  0  0  0  0
  5 16  1  0  0  0  0
  6 20  1  0  0  0  0
  7 15  1  0  0  0  0
  7 17  1  0  0  0  0
  7 19  2  0  0  0  0
  8  9  1  0  0  0  0
  8 14  1  0  0  0  0
  9 16  1  0  0  0  0
 10 12  1  0  0  0  0
 10 17  1  0  0  0  0
 11 13  1  0  0  0  0
 11 17  1  0  0  0  0
 12 18  1  0  0  0  0
 13 18  1  0  0  0  0
 14 18  1  6  0  0  0
  1 21  1  0  0  0  0
  2 22  1  0  0  0  0
  3 23  1  0  0  0  0
  8 24  1  0  0  0  0
  8 25  1  0  0  0  0
  9 26  1  0  0  0  0
  9 27  1  0  0  0  0
 10 28  1  0  0  0  0
 10 29  1  0  0  0  0
 11 30  1  0  0  0  0
 11 31  1  0  0  0  0
 12 32  1  0  0  0  0
 12 33  1  0  0  0  0
 13 34  1  0  0  0  0
 13 35  1  0  0  0  0
 14 36  1  0  0  0  0
 15 37  1  0  0  0  0
 15 38  1  0  0  0  0
 15 39  1  0  0  0  0
 16 40  1  0  0  0  0
M  END
> <Chemgauss4 Score>
-5.09683990478516

> <Number of Confs>
4

$$$$
DAN-LON-a5f-9
  -OEChem-03242005443D

 40 41  0     1  0  0  0  0  0999 V2000
   11.9074    0.2051   24.6630 C   0  0  0  0  0  0  0  0  0  0  0  0
   11.4142   -1.0025   25.1569 C   0  0  0  0  0  0  0  0  0  0  0  0
   12.2940    0.3062   23.3265 C   0  0  0  0  0  0  0  0  0  0  0  0
   11.6943   -2.0080   22.9780 C   0  0  0  0  0  0  0  0  0  0  0  0
   11.3077   -2.1091   24.3144 C   0  0  0  0  0  0  0  0  0  0  0  0
   12.1875   -0.8003   22.4840 C   0  0  0  0  0  0  0  0  0  0  0  0
    5.9025   -5.6086   24.5135 C   0  0  0  0  0  0  0  0  0  0  0  0
    7.6265   -3.9339   23.7488 C   0  0  0  0  0  0  0  0  0  0  0  0
    8.4786   -2.8188   24.3466 C   0  0  0  0  0  0  0  0  0  0  0  0
    7.3989   -4.5092   26.1524 C   0  0  0  0  0  0  0  0  0  0  0  0
    8.9420   -4.3832   26.2273 C   0  0  0  0  0  0  0  0  0  0  0  0
    9.5612   -5.7638   25.9002 C   0  0  0  0  0  0  0  0  0  0  0  0
    9.3168   -4.0233   27.6793 C   0  0  0  0  0  0  0  0  0  0  0  0
   10.7779   -3.4090   24.8470 C   0  0  0  0  0  0  0  0  0  0  0  0
    5.4960   -5.7415   23.0660 C   0  0  0  0  0  0  0  0  0  0  0  0
    6.9395   -4.7142   24.7786 N   0  0  0  0  0  0  0  0  0  0  0  0
    9.4241   -3.2729   25.3707 N   0  0  1  0  0  0  0  0  0  0  0  0
    5.3185   -6.2698   25.3748 O   0  0  0  0  0  0  0  0  0  0  0  0
   12.6657   -0.6753   20.8356 Cl  0  0  0  0  0  0  0  0  0  0  0  0
    6.5082   -7.0033   22.3722 Cl  0  0  0  0  0  0  0  0  0  0  0  0
   11.9903    1.0666   25.3194 H   0  0  0  0  0  0  0  0  0  0  0  0
   11.1154   -1.0722   26.1996 H   0  0  0  0  0  0  0  0  0  0  0  0
   12.6768    1.2537   22.9554 H   0  0  0  0  0  0  0  0  0  0  0  0
   11.6089   -2.8736   22.3250 H   0  0  0  0  0  0  0  0  0  0  0  0
    6.8482   -3.5135   23.0937 H   0  0  0  0  0  0  0  0  0  0  0  0
    8.2510   -4.5840   23.1208 H   0  0  0  0  0  0  0  0  0  0  0  0
    9.0037   -2.2839   23.5331 H   0  0  0  0  0  0  0  0  0  0  0  0
    7.7863   -2.0783   24.7877 H   0  0  0  0  0  0  0  0  0  0  0  0
    7.0522   -5.3061   26.8137 H   0  0  0  0  0  0  0  0  0  0  0  0
    6.9201   -3.5850   26.5016 H   0  0  0  0  0  0  0  0  0  0  0  0
   10.6399   -5.6853   25.9501 H   0  0  0  0  0  0  0  0  0  0  0  0
    9.2566   -6.0577   24.9037 H   0  0  0  0  0  0  0  0  0  0  0  0
    9.2080   -6.4871   26.6245 H   0  0  0  0  0  0  0  0  0  0  0  0
   10.3930   -3.9309   27.7508 H   0  0  0  0  0  0  0  0  0  0  0  0
    8.9673   -4.8094   28.3365 H   0  0  0  0  0  0  0  0  0  0  0  0
    8.8455   -3.0842   27.9403 H   0  0  0  0  0  0  0  0  0  0  0  0
   10.7599   -4.1703   24.0595 H   0  0  0  0  0  0  0  0  0  0  0  0
   11.4122   -3.7908   25.6540 H   0  0  0  0  0  0  0  0  0  0  0  0
    5.6780   -4.7992   22.5617 H   0  0  0  0  0  0  0  0  0  0  0  0
    4.4530   -6.0331   23.0191 H   0  0  0  0  0  0  0  0  0  0  0  0
  1  2  2  0  0  0  0
  1  3  1  0  0  0  0
  2  5  1  0  0  0  0
  3  6  2  0  0  0  0
  4  5  2  0  0  0  0
  4  6  1  0  0  0  0
  5 14  1  0  0  0  0
  6 19  1  0  0  0  0
  7 15  1  0  0  0  0
  7 16  1  0  0  0  0
  7 18  2  0  0  0  0
  8  9  1  0  0  0  0
  8 16  1  0  0  0  0
  9 17  1  0  0  0  0
 10 11  1  0  0  0  0
 10 16  1  0  0  0  0
 11 12  1  0  0  0  0
 11 13  1  0  0  0  0
 11 17  1  0  0  0  0
 14 17  1  6  0  0  0
 15 20  1  0  0  0  0
  1 21  1  0  0  0  0
  2 22  1  0  0  0  0
  3 23  1  0  0  0  0
  4 24  1  0  0  0  0
  8 25  1  0  0  0  0
  8 26  1  0  0  0  0
  9 27  1  0  0  0  0
  9 28  1  0  0  0  0
 10 29  1  0  0  0  0
 10 30  1  0  0  0  0
 12 31  1  0  0  0  0
 12 32  1  0  0  0  0
 12 33  1  0  0  0  0
 13 34  1  0  0  0  0
 13 35  1  0  0  0  0
 13 36  1  0  0  0  0
 14 37  1  0  0  0  0
 14 38  1  0  0  0  0
 15 39  1  0  0  0  0
 15 40  1  0  0  0  0
M  END
> <Chemgauss4 Score>
-5.09587717056274

> <Number of Confs>
54

$$$$
CHR-SOS-363-1
  -OEChem-03242005443D

 27 28  0     0  0  0  0  0  0999 V2000
    7.0229   -5.7496   28.2697 C   0  0  0  0  0  0  0  0  0  0  0  0
   13.4400   -0.7688   22.4427 C   0  0  0  0  0  0  0  0  0  0  0  0
   12.5084   -1.8008   22.4586 C   0  0  0  0  0  0  0  0  0  0  0  0
    7.9083   -4.9556   26.1251 C   0  0  0  0  0  0  0  0  0  0  0  0
   13.1958    0.3376   23.2403 C   0  0  0  0  0  0  0  0  0  0  0  0
    5.8658   -6.1736   26.1547 C   0  0  0  0  0  0  0  0  0  0  0  0
   11.2254   -0.5486   24.0213 C   0  0  0  0  0  0  0  0  0  0  0  0
    6.6876   -5.4341   24.1408 C   0  0  0  0  0  0  0  0  0  0  0  0
    6.9313   -5.6271   26.8516 C   0  0  0  0  0  0  0  0  0  0  0  0
   11.3771   -1.6965   23.2602 C   0  0  0  0  0  0  0  0  0  0  0  0
    7.7916   -4.8527   24.7434 C   0  0  0  0  0  0  0  0  0  0  0  0
    9.5784   -3.0964   24.3664 C   0  0  0  0  0  0  0  0  0  0  0  0
    7.0973   -5.8493   29.4236 N   0  0  0  0  0  0  0  0  0  0  0  0
   12.1087    0.4748   24.0320 N   0  0  0  0  0  0  0  0  0  0  0  0
    5.7182   -6.0941   24.8133 N   0  0  0  0  0  0  0  0  0  0  0  0
   10.4115   -2.7300   23.2973 N   0  0  0  0  0  0  0  0  0  0  0  0
    8.7539   -4.1862   23.9886 N   0  0  0  0  0  0  0  0  0  0  0  0
    9.5604   -2.5579   25.4687 O   0  0  0  0  0  0  0  0  0  0  0  0
   14.3291   -0.8286   21.8255 H   0  0  0  0  0  0  0  0  0  0  0  0
   12.6737   -2.6811   21.8431 H   0  0  0  0  0  0  0  0  0  0  0  0
    8.7622   -4.5110   26.6322 H   0  0  0  0  0  0  0  0  0  0  0  0
   13.8916    1.1699   23.2627 H   0  0  0  0  0  0  0  0  0  0  0  0
    5.0700   -6.7103   26.6634 H   0  0  0  0  0  0  0  0  0  0  0  0
   10.3634   -0.4092   24.6670 H   0  0  0  0  0  0  0  0  0  0  0  0
    6.5415   -5.3876   23.0657 H   0  0  0  0  0  0  0  0  0  0  0  0
   10.3081   -3.2743   22.4447 H   0  0  0  0  0  0  0  0  0  0  0  0
    8.8968   -4.5181   23.0277 H   0  0  0  0  0  0  0  0  0  0  0  0
  1  9  1  0  0  0  0
  1 13  3  0  0  0  0
  2  3  2  0  0  0  0
  2  5  1  0  0  0  0
  3 10  1  0  0  0  0
  4  9  2  0  0  0  0
  4 11  1  0  0  0  0
  5 14  2  0  0  0  0
  6  9  1  0  0  0  0
  6 15  2  0  0  0  0
  7 10  2  0  0  0  0
  7 14  1  0  0  0  0
  8 11  2  0  0  0  0
  8 15  1  0  0  0  0
 10 16  1  0  0  0  0
 11 17  1  0  0  0  0
 12 16  1  0  0  0  0
 12 17  1  0  0  0  0
 12 18  2  0  0  0  0
  2 19  1  0  0  0  0
  3 20  1  0  0  0  0
  4 21  1  0  0  0  0
  5 22  1  0  0  0  0
  6 23  1  0  0  0  0
  7 24  1  0  0  0  0
  8 25  1  0  0  0  0
 16 26  1  0  0  0  0
 17 27  1  0  0  0  0
M  END
> <Chemgauss4 Score>
-5.09509563446045

> <Number of Confs>
12

$$$$
HAN-NEW-5f5-4
  -OEChem-03242005443D

 62 64  0     1  0  0  0  0  0999 V2000
   10.0903   -1.3111   26.8380 C   0  0  0  0  0  0  0  0  0  0  0  0
   10.7078   -0.6361   25.7787 C   0  0  0  0  0  0  0  0  0  0  0  0
    9.9264   -2.6945   26.8033 C   0  0  0  0  0  0  0  0  0  0  0  0
   12.0209   -2.1903   22.7421 C   0  0  0  0  0  0  0  0  0  0  0  0
   11.1658   -1.3727   24.6682 C   0  0  0  0  0  0  0  0  0  0  0  0
   10.3725   -3.4460   25.7124 C   0  0  0  0  0  0  0  0  0  0  0  0
   11.8185   -1.0289   23.4514 C   0  0  0  0  0  0  0  0  0  0  0  0
   10.9880   -2.7578   24.6607 C   0  0  0  0  0  0  0  0  0  0  0  0
    5.8945   -5.5936   27.1660 C   0  0  0  0  0  0  0  0  0  0  0  0
    5.6188   -2.2752   22.7278 C   0  0  0  0  0  0  0  0  0  0  0  0
    8.9097    1.5894   21.6356 C   0  0  0  0  0  0  0  0  0  0  0  0
    4.6773   -2.8339   24.9439 C   0  0  0  0  0  0  0  0  0  0  0  0
    5.4629   -3.3072   26.1615 C   0  0  0  0  0  0  0  0  0  0  0  0
    5.5996   -4.6646   23.5921 C   0  0  0  0  0  0  0  0  0  0  0  0
    6.4184   -5.1756   24.7839 C   0  0  1  0  0  0  0  0  0  0  0  0
    5.5104   -5.0162   28.5054 C   0  0  0  0  0  0  0  0  0  0  0  0
    7.5834    1.6317   22.3193 C   0  0  0  0  0  0  0  0  0  0  0  0
   10.1791   -4.9415   25.7078 C   0  0  0  0  0  0  0  0  0  0  0  0
   12.2117    0.3272   23.0177 C   0  0  0  0  0  0  0  0  0  0  0  0
    6.3016   -2.7701   21.4778 C   0  0  0  0  0  0  0  0  0  0  0  0
    7.8916   -4.7710   24.6728 C   0  0  0  0  0  0  0  0  0  0  0  0
    8.7008   -5.3171   25.8438 C   0  0  0  0  0  0  0  0  0  0  0  0
   11.2885    0.9357   21.9466 C   0  0  0  0  0  0  0  0  0  0  0  0
   11.5163   -3.2277   23.4795 N   0  0  0  0  0  0  0  0  0  0  0  0
    5.3333   -3.2298   23.7025 N   0  0  0  0  0  0  0  0  0  0  0  0
    5.8513   -4.7236   26.0703 N   0  0  0  0  0  0  0  0  0  0  0  0
    9.9336    1.0687   22.4106 N   0  0  0  0  0  0  0  0  0  0  0  0
    6.2196   -6.7817   27.0933 O   0  0  0  0  0  0  0  0  0  0  0  0
    5.3511   -1.0757   22.8343 O   0  0  0  0  0  0  0  0  0  0  0  0
    9.0092    1.9968   20.4842 O   0  0  0  0  0  0  0  0  0  0  0  0
    6.5011   -1.3730   20.4261 Cl  0  0  0  0  0  0  0  0  0  0  0  0
    9.7345   -0.7480   27.6968 H   0  0  0  0  0  0  0  0  0  0  0  0
   10.8278    0.4426   25.8217 H   0  0  0  0  0  0  0  0  0  0  0  0
    9.4416   -3.1896   27.6417 H   0  0  0  0  0  0  0  0  0  0  0  0
   12.4778   -2.3732   21.7794 H   0  0  0  0  0  0  0  0  0  0  0  0
    3.6765   -3.2825   24.9412 H   0  0  0  0  0  0  0  0  0  0  0  0
    4.5464   -1.7481   24.9886 H   0  0  0  0  0  0  0  0  0  0  0  0
    6.3887   -2.7288   26.2632 H   0  0  0  0  0  0  0  0  0  0  0  0
    4.8682   -3.1161   27.0573 H   0  0  0  0  0  0  0  0  0  0  0  0
    6.0995   -4.9201   22.6555 H   0  0  0  0  0  0  0  0  0  0  0  0
    4.6233   -5.1652   23.5730 H   0  0  0  0  0  0  0  0  0  0  0  0
    6.3843   -6.2717   24.7589 H   0  0  0  0  0  0  0  0  0  0  0  0
    4.4428   -5.1408   28.6521 H   0  0  0  0  0  0  0  0  0  0  0  0
    5.7672   -3.9620   28.5244 H   0  0  0  0  0  0  0  0  0  0  0  0
    6.0557   -5.5371   29.2857 H   0  0  0  0  0  0  0  0  0  0  0  0
    7.4198    2.5769   22.8615 H   0  0  0  0  0  0  0  0  0  0  0  0
    6.7428    1.5529   21.6113 H   0  0  0  0  0  0  0  0  0  0  0  0
    7.4110    0.8374   23.0630 H   0  0  0  0  0  0  0  0  0  0  0  0
   10.5865   -5.3650   24.7807 H   0  0  0  0  0  0  0  0  0  0  0  0
   10.7540   -5.3922   26.5271 H   0  0  0  0  0  0  0  0  0  0  0  0
   13.2414    0.3119   22.6092 H   0  0  0  0  0  0  0  0  0  0  0  0
   12.2648    1.0256   23.8772 H   0  0  0  0  0  0  0  0  0  0  0  0
    5.6677   -3.5083   20.9998 H   0  0  0  0  0  0  0  0  0  0  0  0
    7.2703   -3.1771   21.7442 H   0  0  0  0  0  0  0  0  0  0  0  0
    7.9518   -3.6805   24.6450 H   0  0  0  0  0  0  0  0  0  0  0  0
    8.2865   -5.1510   23.7276 H   0  0  0  0  0  0  0  0  0  0  0  0
    8.3011   -4.9220   26.7864 H   0  0  0  0  0  0  0  0  0  0  0  0
    8.5962   -6.4085   25.8899 H   0  0  0  0  0  0  0  0  0  0  0  0
   11.6246    1.9379   21.6623 H   0  0  0  0  0  0  0  0  0  0  0  0
   11.2695    0.3137   21.0456 H   0  0  0  0  0  0  0  0  0  0  0  0
   11.5306   -4.1979   23.1967 H   0  0  0  0  0  0  0  0  0  0  0  0
    9.7154    0.7643   23.3581 H   0  0  0  0  0  0  0  0  0  0  0  0
  1  2  2  0  0  0  0
  1  3  1  0  0  0  0
  2  5  1  0  0  0  0
  3  6  2  0  0  0  0
  4  7  2  0  0  0  0
  4 24  1  0  0  0  0
  5  7  1  0  0  0  0
  5  8  2  0  0  0  0
  6  8  1  0  0  0  0
  6 18  1  0  0  0  0
  7 19  1  0  0  0  0
  8 24  1  0  0  0  0
  9 16  1  0  0  0  0
  9 26  1  0  0  0  0
  9 28  2  0  0  0  0
 10 20  1  0  0  0  0
 10 25  1  0  0  0  0
 10 29  2  0  0  0  0
 11 17  1  0  0  0  0
 11 27  1  0  0  0  0
 11 30  2  0  0  0  0
 12 13  1  0  0  0  0
 12 25  1  0  0  0  0
 13 26  1  0  0  0  0
 14 15  1  0  0  0  0
 14 25  1  0  0  0  0
 15 21  1  1  0  0  0
 15 26  1  0  0  0  0
 18 22  1  0  0  0  0
 19 23  1  0  0  0  0
 20 31  1  0  0  0  0
 21 22  1  0  0  0  0
 23 27  1  0  0  0  0
  1 32  1  0  0  0  0
  2 33  1  0  0  0  0
  3 34  1  0  0  0  0
  4 35  1  0  0  0  0
 12 36  1  0  0  0  0
 12 37  1  0  0  0  0
 13 38  1  0  0  0  0
 13 39  1  0  0  0  0
 14 40  1  0  0  0  0
 14 41  1  0  0  0  0
 15 42  1  0  0  0  0
 16 43  1  0  0  0  0
 16 44  1  0  0  0  0
 16 45  1  0  0  0  0
 17 46  1  0  0  0  0
 17 47  1  0  0  0  0
 17 48  1  0  0  0  0
 18 49  1  0  0  0  0
 18 50  1  0  0  0  0
 19 51  1  0  0  0  0
 19 52  1  0  0  0  0
 20 53  1  0  0  0  0
 20 54  1  0  0  0  0
 21 55  1  0  0  0  0
 21 56  1  0  0  0  0
 22 57  1  0  0  0  0
 22 58  1  0  0  0  0
 23 59  1  0  0  0  0
 23 60  1  0  0  0  0
 24 61  1  0  0  0  0
 27 62  1  0  0  0  0
M  END
> <Chemgauss4 Score>
-5.09333419799805

> <Number of Confs>
200

$$$$
JOH-MSK-a63-8
  -OEChem-03242005443D

 29 31  0     0  0  0  0  0  0999 V2000
   11.7072   -1.8742   22.7758 C   0  0  0  0  0  0  0  0  0  0  0  0
   11.7966   -0.4796   22.7978 C   0  0  0  0  0  0  0  0  0  0  0  0
   10.7883   -0.3911   25.0049 C   0  0  0  0  0  0  0  0  0  0  0  0
   10.6856   -1.7966   25.0069 C   0  0  0  0  0  0  0  0  0  0  0  0
   10.1919   -2.7570   25.9298 C   0  0  0  0  0  0  0  0  0  0  0  0
   11.1488   -2.5069   23.8925 C   0  0  0  0  0  0  0  0  0  0  0  0
   11.3453    0.2524   23.8940 C   0  0  0  0  0  0  0  0  0  0  0  0
   10.3692   -4.0023   25.3681 C   0  0  0  0  0  0  0  0  0  0  0  0
    9.5946   -2.6089   27.2859 C   0  0  0  0  0  0  0  0  0  0  0  0
    9.9689   -5.2904   25.9905 C   0  0  0  0  0  0  0  0  0  0  0  0
    8.9045   -3.9220   27.7213 C   0  0  0  0  0  0  0  0  0  0  0  0
   10.9675    2.3028   25.0381 C   0  0  0  0  0  0  0  0  0  0  0  0
   10.9415   -3.8488   24.1396 N   0  0  0  0  0  0  0  0  0  0  0  0
    9.7340   -5.1088   27.4376 N   0  0  0  0  0  0  0  0  0  0  0  0
   11.4471    1.6115   23.8868 O   0  0  0  0  0  0  0  0  0  0  0  0
   12.0594   -2.4427   21.9217 H   0  0  0  0  0  0  0  0  0  0  0  0
   12.2278    0.0352   21.9423 H   0  0  0  0  0  0  0  0  0  0  0  0
   10.4387    0.1877   25.8557 H   0  0  0  0  0  0  0  0  0  0  0  0
   10.3918   -2.3611   27.9974 H   0  0  0  0  0  0  0  0  0  0  0  0
    8.8675   -1.7895   27.2991 H   0  0  0  0  0  0  0  0  0  0  0  0
    9.0556   -5.6632   25.5122 H   0  0  0  0  0  0  0  0  0  0  0  0
   10.7524   -6.0430   25.8527 H   0  0  0  0  0  0  0  0  0  0  0  0
    8.7002   -3.8758   28.7967 H   0  0  0  0  0  0  0  0  0  0  0  0
    7.9355   -4.0243   27.2162 H   0  0  0  0  0  0  0  0  0  0  0  0
   11.1076    3.3780   24.9030 H   0  0  0  0  0  0  0  0  0  0  0  0
   11.5123    1.9618   25.9221 H   0  0  0  0  0  0  0  0  0  0  0  0
    9.9034    2.0891   25.1634 H   0  0  0  0  0  0  0  0  0  0  0  0
   11.1774   -4.5983   23.5035 H   0  0  0  0  0  0  0  0  0  0  0  0
    9.2736   -5.9408   27.8056 H   0  0  0  0  0  0  0  0  0  0  0  0
  1  2  2  0  0  0  0
  1  6  1  0  0  0  0
  2  7  1  0  0  0  0
  3  4  1  0  0  0  0
  3  7  2  0  0  0  0
  4  5  1  0  0  0  0
  4  6  2  0  0  0  0
  5  8  2  0  0  0  0
  5  9  1  0  0  0  0
  6 13  1  0  0  0  0
  7 15  1  0  0  0  0
  8 10  1  0  0  0  0
  8 13  1  0  0  0  0
  9 11  1  0  0  0  0
 10 14  1  0  0  0  0
 11 14  1  0  0  0  0
 12 15  1  0  0  0  0
  1 16  1  0  0  0  0
  2 17  1  0  0  0  0
  3 18  1  0  0  0  0
  9 19  1  0  0  0  0
  9 20  1  0  0  0  0
 10 21  1  0  0  0  0
 10 22  1  0  0  0  0
 11 23  1  0  0  0  0
 11 24  1  0  0  0  0
 12 25  1  0  0  0  0
 12 26  1  0  0  0  0
 12 27  1  0  0  0  0
 13 28  1  0  0  0  0
 14 29  1  0  0  0  0
M  END
> <Chemgauss4 Score>
-5.08693265914917

> <Number of Confs>
2

$$$$
DAR-DIA-033-10
  -OEChem-03242005443D

 51 53  0     0  0  0  0  0  0999 V2000
   13.9481   -0.5523   22.7385 C   0  0  0  0  0  0  0  0  0  0  0  0
   13.4848   -1.4252   21.7542 C   0  0  0  0  0  0  0  0  0  0  0  0
   13.0472    0.0503   23.6166 C   0  0  0  0  0  0  0  0  0  0  0  0
   12.1205   -1.6955   21.6478 C   0  0  0  0  0  0  0  0  0  0  0  0
   11.6829   -0.2200   23.5102 C   0  0  0  0  0  0  0  0  0  0  0  0
    9.2845   -3.5804   28.0916 C   0  0  0  0  0  0  0  0  0  0  0  0
    8.2361   -2.7925   28.5386 C   0  0  0  0  0  0  0  0  0  0  0  0
    8.0759   -1.7045   26.5215 C   0  0  0  0  0  0  0  0  0  0  0  0
   11.2195   -1.0929   22.5258 C   0  0  0  0  0  0  0  0  0  0  0  0
    9.7274   -3.3952   26.7866 C   0  0  0  0  0  0  0  0  0  0  0  0
    9.1170   -2.4413   25.9800 C   0  0  0  0  0  0  0  0  0  0  0  0
    9.0078   -1.2985   23.7379 C   0  0  0  0  0  0  0  0  0  0  0  0
    8.0836   -5.6798   25.1680 C   0  0  0  0  0  0  0  0  0  0  0  0
    5.7836   -5.7181   24.2546 C   0  0  0  0  0  0  0  0  0  0  0  0
    7.6463   -5.9745   22.6596 C   0  0  0  0  0  0  0  0  0  0  0  0
    5.1024   -4.8173   23.2365 C   0  0  0  0  0  0  0  0  0  0  0  0
    6.8653   -5.0792   21.7034 C   0  0  0  0  0  0  0  0  0  0  0  0
    9.7461   -1.3841   22.4113 C   0  0  0  0  0  0  0  0  0  0  0  0
   10.8682   -4.2393   26.2736 C   0  0  0  0  0  0  0  0  0  0  0  0
   10.4459   -5.6655   25.9293 C   0  0  0  0  0  0  0  0  0  0  0  0
    7.6182   -1.8560   27.7845 N   0  0  0  0  0  0  0  0  0  0  0  0
    7.2339   -5.7388   24.0506 N   0  0  0  0  0  0  0  0  0  0  0  0
    9.5251   -2.2191   24.6651 N   0  0  0  0  0  0  0  0  0  0  0  0
    9.4446   -5.7114   24.8874 N   0  0  0  0  0  0  0  0  0  0  0  0
    8.0849   -0.5121   23.9250 O   0  0  0  0  0  0  0  0  0  0  0  0
    7.6608   -5.6107   26.3268 O   0  0  0  0  0  0  0  0  0  0  0  0
    5.4597   -5.2191   21.9128 O   0  0  0  0  0  0  0  0  0  0  0  0
   15.0106   -0.3430   22.8221 H   0  0  0  0  0  0  0  0  0  0  0  0
   14.1862   -1.8954   21.0711 H   0  0  0  0  0  0  0  0  0  0  0  0
   13.4077    0.7291   24.3837 H   0  0  0  0  0  0  0  0  0  0  0  0
   11.7685   -2.3768   20.8776 H   0  0  0  0  0  0  0  0  0  0  0  0
   10.9883    0.2542   24.1985 H   0  0  0  0  0  0  0  0  0  0  0  0
    9.7394   -4.3158   28.7465 H   0  0  0  0  0  0  0  0  0  0  0  0
    7.8536   -2.8979   29.5485 H   0  0  0  0  0  0  0  0  0  0  0  0
    7.5593   -0.9455   25.9415 H   0  0  0  0  0  0  0  0  0  0  0  0
    5.5293   -5.4038   25.2712 H   0  0  0  0  0  0  0  0  0  0  0  0
    5.4426   -6.7526   24.1279 H   0  0  0  0  0  0  0  0  0  0  0  0
    7.4354   -7.0294   22.4502 H   0  0  0  0  0  0  0  0  0  0  0  0
    8.7122   -5.7981   22.5091 H   0  0  0  0  0  0  0  0  0  0  0  0
    4.0154   -4.9070   23.3283 H   0  0  0  0  0  0  0  0  0  0  0  0
    5.3636   -3.7634   23.3893 H   0  0  0  0  0  0  0  0  0  0  0  0
    7.1518   -4.0268   21.8174 H   0  0  0  0  0  0  0  0  0  0  0  0
    7.0770   -5.3686   20.6691 H   0  0  0  0  0  0  0  0  0  0  0  0
    9.2853   -0.6803   21.7065 H   0  0  0  0  0  0  0  0  0  0  0  0
    9.6020   -2.3876   21.9912 H   0  0  0  0  0  0  0  0  0  0  0  0
   11.6520   -4.2685   27.0410 H   0  0  0  0  0  0  0  0  0  0  0  0
   11.3213   -3.7578   25.3976 H   0  0  0  0  0  0  0  0  0  0  0  0
   11.3082   -6.2318   25.5636 H   0  0  0  0  0  0  0  0  0  0  0  0
   10.0393   -6.1881   26.8014 H   0  0  0  0  0  0  0  0  0  0  0  0
   10.3022   -2.8020   24.3322 H   0  0  0  0  0  0  0  0  0  0  0  0
    9.7443   -5.7684   23.9228 H   0  0  0  0  0  0  0  0  0  0  0  0
  1  2  1  0  0  0  0
  1  3  2  0  0  0  0
  2  4  2  0  0  0  0
  3  5  1  0  0  0  0
  4  9  1  0  0  0  0
  5  9  2  0  0  0  0
  6  7  2  0  0  0  0
  6 10  1  0  0  0  0
  7 21  1  0  0  0  0
  8 11  1  0  0  0  0
  8 21  2  0  0  0  0
  9 18  1  0  0  0  0
 10 11  2  0  0  0  0
 10 19  1  0  0  0  0
 11 23  1  0  0  0  0
 12 18  1  0  0  0  0
 12 23  1  0  0  0  0
 12 25  2  0  0  0  0
 13 22  1  0  0  0  0
 13 24  1  0  0  0  0
 13 26  2  0  0  0  0
 14 16  1  0  0  0  0
 14 22  1  0  0  0  0
 15 17  1  0  0  0  0
 15 22  1  0  0  0  0
 16 27  1  0  0  0  0
 17 27  1  0  0  0  0
 19 20  1  0  0  0  0
 20 24  1  0  0  0  0
  1 28  1  0  0  0  0
  2 29  1  0  0  0  0
  3 30  1  0  0  0  0
  4 31  1  0  0  0  0
  5 32  1  0  0  0  0
  6 33  1  0  0  0  0
  7 34  1  0  0  0  0
  8 35  1  0  0  0  0
 14 36  1  0  0  0  0
 14 37  1  0  0  0  0
 15 38  1  0  0  0  0
 15 39  1  0  0  0  0
 16 40  1  0  0  0  0
 16 41  1  0  0  0  0
 17 42  1  0  0  0  0
 17 43  1  0  0  0  0
 18 44  1  0  0  0  0
 18 45  1  0  0  0  0
 19 46  1  0  0  0  0
 19 47  1  0  0  0  0
 20 48  1  0  0  0  0
 20 49  1  0  0  0  0
 23 50  1  0  0  0  0
 24 51  1  0  0  0  0
M  END
> <Chemgauss4 Score>
-5.07908535003662

> <Number of Confs>
200

$$$$
TRY-UNI-714-18
  -OEChem-03242005443D

 34 35  0     1  0  0  0  0  0999 V2000
    6.0053   -5.8121   26.7157 C   0  0  0  0  0  0  0  0  0  0  0  0
    7.2649   -5.3943   27.1452 C   0  0  0  0  0  0  0  0  0  0  0  0
    5.7259   -5.8960   25.3517 C   0  0  0  0  0  0  0  0  0  0  0  0
   11.9269   -1.0386   22.2643 C   0  0  0  0  0  0  0  0  0  0  0  0
    7.9657   -5.1440   24.8467 C   0  0  0  0  0  0  0  0  0  0  0  0
   11.7440    0.1932   22.8716 C   0  0  0  0  0  0  0  0  0  0  0  0
   10.8017   -0.7650   24.7349 C   0  0  0  0  0  0  0  0  0  0  0  0
    8.2451   -5.0602   26.2107 C   0  0  0  0  0  0  0  0  0  0  0  0
   11.5146   -2.1725   22.9554 C   0  0  0  0  0  0  0  0  0  0  0  0
   10.9403   -2.0418   24.2149 C   0  0  0  0  0  0  0  0  0  0  0  0
    6.7061   -5.5619   24.4172 C   0  0  0  0  0  0  0  0  0  0  0  0
    9.9147   -3.1727   26.2190 C   0  0  0  0  0  0  0  0  0  0  0  0
   11.6992   -3.5134   22.3240 C   0  0  0  0  0  0  0  0  0  0  0  0
   10.7094   -5.5659   26.2079 C   0  0  0  0  0  0  0  0  0  0  0  0
    9.5913   -4.6123   26.6708 C   0  0  2  0  0  0  0  0  0  0  0  0
   11.1901    0.3599   24.0934 N   0  0  0  0  0  0  0  0  0  0  0  0
   10.5053   -3.1649   24.9577 N   0  0  0  0  0  0  0  0  0  0  0  0
    9.6408   -2.1986   26.9142 O   0  0  0  0  0  0  0  0  0  0  0  0
    6.3604   -5.6644   22.7344 Cl  0  0  0  0  0  0  0  0  0  0  0  0
    5.2423   -6.0720   27.4438 H   0  0  0  0  0  0  0  0  0  0  0  0
    7.4738   -5.3318   28.2100 H   0  0  0  0  0  0  0  0  0  0  0  0
    4.7397   -6.2229   25.0314 H   0  0  0  0  0  0  0  0  0  0  0  0
   12.3781   -1.1063   21.2802 H   0  0  0  0  0  0  0  0  0  0  0  0
    8.7335   -4.8829   24.1220 H   0  0  0  0  0  0  0  0  0  0  0  0
   12.0485    1.1082   22.3742 H   0  0  0  0  0  0  0  0  0  0  0  0
   10.3612   -0.5981   25.7135 H   0  0  0  0  0  0  0  0  0  0  0  0
   12.6764   -3.9295   22.5951 H   0  0  0  0  0  0  0  0  0  0  0  0
   10.9192   -4.2141   22.6464 H   0  0  0  0  0  0  0  0  0  0  0  0
   11.6379   -3.4484   21.2306 H   0  0  0  0  0  0  0  0  0  0  0  0
   10.7424   -5.6451   25.1154 H   0  0  0  0  0  0  0  0  0  0  0  0
   11.6966   -5.2255   26.5399 H   0  0  0  0  0  0  0  0  0  0  0  0
   10.5489   -6.5704   26.6152 H   0  0  0  0  0  0  0  0  0  0  0  0
    9.6420   -4.6023   27.7777 H   0  0  0  0  0  0  0  0  0  0  0  0
   10.6438   -4.0648   24.5029 H   0  0  0  0  0  0  0  0  0  0  0  0
  1  2  2  0  0  0  0
  1  3  1  0  0  0  0
  2  8  1  0  0  0  0
  3 11  2  0  0  0  0
  4  6  2  0  0  0  0
  4  9  1  0  0  0  0
  5  8  2  0  0  0  0
  5 11  1  0  0  0  0
  6 16  1  0  0  0  0
  7 10  1  0  0  0  0
  7 16  2  0  0  0  0
  8 15  1  0  0  0  0
  9 10  2  0  0  0  0
  9 13  1  0  0  0  0
 10 17  1  0  0  0  0
 11 19  1  0  0  0  0
 12 15  1  0  0  0  0
 12 17  1  0  0  0  0
 12 18  2  0  0  0  0
 14 15  1  6  0  0  0
  1 20  1  0  0  0  0
  2 21  1  0  0  0  0
  3 22  1  0  0  0  0
  4 23  1  0  0  0  0
  5 24  1  0  0  0  0
  6 25  1  0  0  0  0
  7 26  1  0  0  0  0
 13 27  1  0  0  0  0
 13 28  1  0  0  0  0
 13 29  1  0  0  0  0
 14 30  1  0  0  0  0
 14 31  1  0  0  0  0
 14 32  1  0  0  0  0
 15 33  1  0  0  0  0
 17 34  1  0  0  0  0
M  END
> <Chemgauss4 Score>
-5.07466173171997

> <Number of Confs>
41

$$$$
DAV-AUT-fa2-5
  -OEChem-03242005443D

 45 47  0     1  0  0  0  0  0999 V2000
    9.4810   -2.4894   23.5596 C   0  0  0  0  0  0  0  0  0  0  0  0
   10.8030   -1.2734   25.1630 C   0  0  0  0  0  0  0  0  0  0  0  0
    9.2151   -2.9684   25.9163 C   0  0  0  0  0  0  0  0  0  0  0  0
    8.8204   -3.2161   24.5740 C   0  0  0  0  0  0  0  0  0  0  0  0
   10.1824   -1.9797   26.1889 C   0  0  0  0  0  0  0  0  0  0  0  0
   10.4583   -1.5345   23.8471 C   0  0  0  0  0  0  0  0  0  0  0  0
    5.9034   -4.0371   22.7649 C   0  0  0  0  0  0  0  0  0  0  0  0
    7.6549   -5.8117   22.4774 C   0  0  0  0  0  0  0  0  0  0  0  0
    6.9871   -4.6598   25.3495 C   0  0  0  0  0  0  0  0  0  0  0  0
    5.4128   -4.3943   21.3676 C   0  0  0  0  0  0  0  0  0  0  0  0
    7.0674   -6.0683   21.0954 C   0  0  0  0  0  0  0  0  0  0  0  0
    8.5599   -3.7139   27.0729 C   0  0  1  0  0  0  0  0  0  0  0  0
    7.3874   -4.3718   22.9180 C   0  0  0  0  0  0  0  0  0  0  0  0
    7.8212   -4.9547   26.5752 C   0  0  0  0  0  0  0  0  0  0  0  0
    9.5259   -4.1222   28.1938 C   0  0  0  0  0  0  0  0  0  0  0  0
   12.9780   -1.0457   22.6919 C   0  0  0  0  0  0  0  0  0  0  0  0
   10.7532   -1.3188   21.2306 N   0  0  0  0  0  0  0  0  0  0  0  0
    7.8279   -4.1517   24.2729 N   0  0  1  0  0  0  0  0  0  0  0  0
   11.1508    0.7575   22.8515 O   0  0  0  0  0  0  0  0  0  0  0  0
    5.6723   -5.7672   21.0751 O   0  0  0  0  0  0  0  0  0  0  0  0
   10.5205   -1.7034   27.4602 F   0  0  0  0  0  0  0  0  0  0  0  0
    8.7001   -5.9496   26.2890 F   0  0  0  0  0  0  0  0  0  0  0  0
    7.0107   -5.4268   27.5572 F   0  0  0  0  0  0  0  0  0  0  0  0
   11.2431   -0.6686   22.5502 S   0  0  1  0  0  0  0  0  0  0  0  0
    9.2368   -2.6614   22.5130 H   0  0  0  0  0  0  0  0  0  0  0  0
   11.5517   -0.5240   25.4069 H   0  0  0  0  0  0  0  0  0  0  0  0
    5.7842   -2.9589   22.9094 H   0  0  0  0  0  0  0  0  0  0  0  0
    5.3015   -4.5379   23.5259 H   0  0  0  0  0  0  0  0  0  0  0  0
    7.2679   -6.5292   23.2021 H   0  0  0  0  0  0  0  0  0  0  0  0
    8.7381   -5.9501   22.4233 H   0  0  0  0  0  0  0  0  0  0  0  0
    6.4507   -5.5517   25.0160 H   0  0  0  0  0  0  0  0  0  0  0  0
    6.2324   -3.9150   25.6180 H   0  0  0  0  0  0  0  0  0  0  0  0
    4.3420   -4.1906   21.2481 H   0  0  0  0  0  0  0  0  0  0  0  0
    5.9445   -3.7915   20.6237 H   0  0  0  0  0  0  0  0  0  0  0  0
    7.5566   -5.4231   20.3590 H   0  0  0  0  0  0  0  0  0  0  0  0
    7.2214   -7.1055   20.7767 H   0  0  0  0  0  0  0  0  0  0  0  0
    7.7776   -3.0619   27.5267 H   0  0  0  0  0  0  0  0  0  0  0  0
    7.9704   -3.6892   22.2619 H   0  0  0  0  0  0  0  0  0  0  0  0
   10.3057   -4.7613   27.7875 H   0  0  0  0  0  0  0  0  0  0  0  0
    8.9818   -4.6625   28.9643 H   0  0  0  0  0  0  0  0  0  0  0  0
    9.9773   -3.2332   28.6269 H   0  0  0  0  0  0  0  0  0  0  0  0
   13.5103   -0.5223   21.8961 H   0  0  0  0  0  0  0  0  0  0  0  0
   13.3248   -0.7088   23.6699 H   0  0  0  0  0  0  0  0  0  0  0  0
   13.1051   -2.1246   22.5916 H   0  0  0  0  0  0  0  0  0  0  0  0
   11.1504   -0.8900   20.3894 H   0  0  0  0  0  0  0  0  0  0  0  0
  1  4  1  0  0  0  0
  1  6  2  0  0  0  0
  2  5  2  0  0  0  0
  2  6  1  0  0  0  0
  3  4  2  0  0  0  0
  3  5  1  0  0  0  0
  3 12  1  0  0  0  0
  4 18  1  0  0  0  0
  5 21  1  0  0  0  0
  6 24  1  0  0  0  0
  7 10  1  0  0  0  0
  7 13  1  0  0  0  0
  8 11  1  0  0  0  0
  8 13  1  0  0  0  0
  9 14  1  0  0  0  0
  9 18  1  0  0  0  0
 10 20  1  0  0  0  0
 11 20  1  0  0  0  0
 12 14  1  0  0  0  0
 12 15  1  0  0  0  0
 13 18  1  1  0  0  0
 14 22  1  0  0  0  0
 14 23  1  0  0  0  0
 16 24  1  6  0  0  0
 17 24  2  0  0  0  0
 19 24  2  0  0  0  0
  1 25  1  0  0  0  0
  2 26  1  0  0  0  0
  7 27  1  0  0  0  0
  7 28  1  0  0  0  0
  8 29  1  0  0  0  0
  8 30  1  0  0  0  0
  9 31  1  0  0  0  0
  9 32  1  0  0  0  0
 10 33  1  0  0  0  0
 10 34  1  0  0  0  0
 11 35  1  0  0  0  0
 11 36  1  0  0  0  0
 12 37  1  1  0  0  0
 13 38  1  0  0  0  0
 15 39  1  0  0  0  0
 15 40  1  0  0  0  0
 15 41  1  0  0  0  0
 16 42  1  0  0  0  0
 16 43  1  0  0  0  0
 16 44  1  0  0  0  0
 17 45  1  0  0  0  0
M  END
> <Chemgauss4 Score>
-5.07347345352173

> <Number of Confs>
13

$$$$
SAL-INS-1ea-4
  -OEChem-03242005443D

 51 53  0     1  0  0  0  0  0999 V2000
   11.5199   -0.0925   24.9115 C   0  0  0  0  0  0  0  0  0  0  0  0
   12.0220    0.2332   23.6516 C   0  0  0  0  0  0  0  0  0  0  0  0
   11.0302   -1.3754   25.1569 C   0  0  0  0  0  0  0  0  0  0  0  0
   12.0345   -0.7239   22.6370 C   0  0  0  0  0  0  0  0  0  0  0  0
    7.5709   -2.6288   21.5194 C   0  0  0  0  0  0  0  0  0  0  0  0
    5.8153   -2.5106   23.1750 C   0  0  0  0  0  0  0  0  0  0  0  0
    7.6838   -1.2387   21.5399 C   0  0  0  0  0  0  0  0  0  0  0  0
    5.9283   -1.1204   23.1956 C   0  0  0  0  0  0  0  0  0  0  0  0
   11.0426   -2.3325   24.1423 C   0  0  0  0  0  0  0  0  0  0  0  0
   11.5448   -2.0068   22.8824 C   0  0  0  0  0  0  0  0  0  0  0  0
    6.6365   -3.2647   22.3369 C   0  0  0  0  0  0  0  0  0  0  0  0
    6.8626   -0.4845   22.3780 C   0  0  0  0  0  0  0  0  0  0  0  0
    8.7540   -4.6719   27.7290 C   0  0  0  0  0  0  0  0  0  0  0  0
    6.7599   -4.6737   26.1837 C   0  0  0  0  0  0  0  0  0  0  0  0
    6.2167   -5.4663   25.0036 C   0  0  0  0  0  0  0  0  0  0  0  0
    8.8947   -5.7772   25.5222 C   0  0  0  0  0  0  0  0  0  0  0  0
    8.5861   -5.3153   24.0947 C   0  0  2  0  0  0  0  0  0  0  0  0
   10.5089   -3.7140   24.4256 C   0  0  0  0  0  0  0  0  0  0  0  0
    7.9038   -3.8961   28.7056 C   0  0  0  0  0  0  0  0  0  0  0  0
    9.1149   -3.9065   23.8281 C   0  0  0  0  0  0  0  0  0  0  0  0
    8.1420   -5.0226   26.5243 N   0  0  0  0  0  0  0  0  0  0  0  0
    7.1233   -5.3945   23.8365 N   0  0  2  0  0  0  0  0  0  0  0  0
    9.9155   -4.9594   28.0270 O   0  0  0  0  0  0  0  0  0  0  0  0
    5.0842   -5.3531   22.2885 O   0  0  0  0  0  0  0  0  0  0  0  0
    7.3930   -5.5292   21.2956 O   0  0  0  0  0  0  0  0  0  0  0  0
   11.5635   -2.9297   21.8802 O   0  0  0  0  0  0  0  0  0  0  0  0
    6.4935   -5.0242   22.3108 S   0  0  0  0  0  0  0  0  0  0  0  0
    7.0020    1.2305   22.4034 Cl  0  0  0  0  0  0  0  0  0  0  0  0
    7.0646   -5.0839   29.6968 Cl  0  0  0  0  0  0  0  0  0  0  0  0
   11.5094    0.6527   25.7018 H   0  0  0  0  0  0  0  0  0  0  0  0
   12.4023    1.2323   23.4608 H   0  0  0  0  0  0  0  0  0  0  0  0
   10.6396   -1.6187   26.1415 H   0  0  0  0  0  0  0  0  0  0  0  0
   12.4269   -0.4643   21.6576 H   0  0  0  0  0  0  0  0  0  0  0  0
    8.2156   -3.2067   20.8627 H   0  0  0  0  0  0  0  0  0  0  0  0
    5.0840   -2.9959   23.8159 H   0  0  0  0  0  0  0  0  0  0  0  0
    8.4163   -0.7566   20.8975 H   0  0  0  0  0  0  0  0  0  0  0  0
    5.2817   -0.5455   23.8536 H   0  0  0  0  0  0  0  0  0  0  0  0
    6.7575   -3.5934   25.9572 H   0  0  0  0  0  0  0  0  0  0  0  0
    6.0851   -4.8061   27.0420 H   0  0  0  0  0  0  0  0  0  0  0  0
    6.0763   -6.5242   25.2829 H   0  0  0  0  0  0  0  0  0  0  0  0
    5.2160   -5.0986   24.7236 H   0  0  0  0  0  0  0  0  0  0  0  0
    8.6884   -6.8534   25.6179 H   0  0  0  0  0  0  0  0  0  0  0  0
    9.9615   -5.6409   25.7586 H   0  0  0  0  0  0  0  0  0  0  0  0
    9.0851   -5.9787   23.3816 H   0  0  0  0  0  0  0  0  0  0  0  0
   11.1962   -4.4674   24.0194 H   0  0  0  0  0  0  0  0  0  0  0  0
   10.4768   -3.8842   25.5096 H   0  0  0  0  0  0  0  0  0  0  0  0
    7.1872   -3.3005   28.1516 H   0  0  0  0  0  0  0  0  0  0  0  0
    8.5497   -3.2840   29.3245 H   0  0  0  0  0  0  0  0  0  0  0  0
    8.4153   -3.1783   24.2530 H   0  0  0  0  0  0  0  0  0  0  0  0
    9.1375   -3.7344   22.7464 H   0  0  0  0  0  0  0  0  0  0  0  0
   11.9414   -2.5423   21.0752 H   0  0  0  0  0  0  0  0  0  0  0  0
  1  2  1  0  0  0  0
  1  3  2  0  0  0  0
  2  4  2  0  0  0  0
  3  9  1  0  0  0  0
  4 10  1  0  0  0  0
  5  7  2  0  0  0  0
  5 11  1  0  0  0  0
  6  8  1  0  0  0  0
  6 11  2  0  0  0  0
  7 12  1  0  0  0  0
  8 12  2  0  0  0  0
  9 10  2  0  0  0  0
  9 18  1  0  0  0  0
 10 26  1  0  0  0  0
 11 27  1  0  0  0  0
 12 28  1  0  0  0  0
 13 19  1  0  0  0  0
 13 21  1  0  0  0  0
 13 23  2  0  0  0  0
 14 15  1  0  0  0  0
 14 21  1  0  0  0  0
 15 22  1  0  0  0  0
 16 17  1  0  0  0  0
 16 21  1  0  0  0  0
 17 20  1  0  0  0  0
 17 22  1  0  0  0  0
 18 20  1  0  0  0  0
 19 29  1  0  0  0  0
 22 27  1  1  0  0  0
 24 27  2  0  0  0  0
 25 27  2  0  0  0  0
  1 30  1  0  0  0  0
  2 31  1  0  0  0  0
  3 32  1  0  0  0  0
  4 33  1  0  0  0  0
  5 34  1  0  0  0  0
  6 35  1  0  0  0  0
  7 36  1  0  0  0  0
  8 37  1  0  0  0  0
 14 38  1  0  0  0  0
 14 39  1  0  0  0  0
 15 40  1  0  0  0  0
 15 41  1  0  0  0  0
 16 42  1  0  0  0  0
 16 43  1  0  0  0  0
 17 44  1  6  0  0  0
 18 45  1  0  0  0  0
 18 46  1  0  0  0  0
 19 47  1  0  0  0  0
 19 48  1  0  0  0  0
 20 49  1  0  0  0  0
 20 50  1  0  0  0  0
 26 51  1  0  0  0  0
M  END
> <Chemgauss4 Score>
-5.06978273391724

> <Number of Confs>
200

$$$$
SAL-INS-cba-2
  -OEChem-03242005443D

 39 42  0     0  0  0  0  0  0999 V2000
   10.4079   -3.8053   23.0955 C   0  0  0  0  0  0  0  0  0  0  0  0
    5.2464   -4.6234   25.8258 C   0  0  0  0  0  0  0  0  0  0  0  0
    5.7784   -5.8616   25.5530 C   0  0  0  0  0  0  0  0  0  0  0  0
   10.7524   -5.1775   26.4418 C   0  0  0  0  0  0  0  0  0  0  0  0
    6.3908    1.3317   20.7859 C   0  0  0  0  0  0  0  0  0  0  0  0
    6.3921    1.9511   18.6710 C   0  0  0  0  0  0  0  0  0  0  0  0
    9.8137   -4.1800   26.5919 C   0  0  0  0  0  0  0  0  0  0  0  0
   10.4760   -4.2764   24.4327 C   0  0  0  0  0  0  0  0  0  0  0  0
    9.6500   -3.6150   25.2945 C   0  0  0  0  0  0  0  0  0  0  0  0
    7.2677    0.5783   20.0418 C   0  0  0  0  0  0  0  0  0  0  0  0
    9.4986   -2.7725   23.0104 C   0  0  0  0  0  0  0  0  0  0  0  0
    6.8820   -4.8484   27.1692 C   0  0  0  0  0  0  0  0  0  0  0  0
    8.1723   -0.9566   21.8431 C   0  0  0  0  0  0  0  0  0  0  0  0
    9.0901   -3.7297   27.7845 C   0  0  0  0  0  0  0  0  0  0  0  0
    7.9322   -4.6592   28.2365 C   0  0  0  0  0  0  0  0  0  0  0  0
    5.9381   -3.9977   26.8326 N   0  0  0  0  0  0  0  0  0  0  0  0
    7.2641    0.9690   18.7261 N   0  0  0  0  0  0  0  0  0  0  0  0
    5.8377    2.2070   19.8943 N   0  0  0  0  0  0  0  0  0  0  0  0
   11.1568   -5.2399   25.1353 N   0  0  0  0  0  0  0  0  0  0  0  0
    6.8256   -5.9914   26.4212 N   0  0  0  0  0  0  0  0  0  0  0  0
    8.0833   -0.4703   20.5290 N   0  0  0  0  0  0  0  0  0  0  0  0
    9.1178   -2.0298   21.9248 N   0  0  0  0  0  0  0  0  0  0  0  0
    7.5347   -0.5320   22.8014 O   0  0  0  0  0  0  0  0  0  0  0  0
    8.7396   -2.3716   24.5028 S   0  0  0  0  0  0  0  0  0  0  0  0
   10.9792   -4.1924   22.2615 H   0  0  0  0  0  0  0  0  0  0  0  0
    4.4016   -4.1501   25.3474 H   0  0  0  0  0  0  0  0  0  0  0  0
    5.5175   -6.6359   24.8464 H   0  0  0  0  0  0  0  0  0  0  0  0
   11.1745   -5.8605   27.1658 H   0  0  0  0  0  0  0  0  0  0  0  0
    6.1161    1.3288   21.8312 H   0  0  0  0  0  0  0  0  0  0  0  0
    6.1210    2.5130   17.7886 H   0  0  0  0  0  0  0  0  0  0  0  0
    9.7865   -3.6347   28.6465 H   0  0  0  0  0  0  0  0  0  0  0  0
    8.6844   -2.7006   27.6609 H   0  0  0  0  0  0  0  0  0  0  0  0
    7.4425   -4.2543   29.1319 H   0  0  0  0  0  0  0  0  0  0  0  0
    8.3377   -5.6338   28.5369 H   0  0  0  0  0  0  0  0  0  0  0  0
    5.1442    2.9135   20.1010 H   0  0  0  0  0  0  0  0  0  0  0  0
   11.8341   -5.8706   24.7249 H   0  0  0  0  0  0  0  0  0  0  0  0
    7.4430   -6.7890   26.4974 H   0  0  0  0  0  0  0  0  0  0  0  0
    8.6783   -0.9279   19.8430 H   0  0  0  0  0  0  0  0  0  0  0  0
    9.5578   -2.2473   21.0109 H   0  0  0  0  0  0  0  0  0  0  0  0
  1  8  1  0  0  0  0
  1 11  2  0  0  0  0
  2  3  2  0  0  0  0
  2 16  1  0  0  0  0
  3 20  1  0  0  0  0
  4  7  2  0  0  0  0
  4 19  1  0  0  0  0
  5 10  2  0  0  0  0
  5 18  1  0  0  0  0
  6 17  2  0  0  0  0
  6 18  1  0  0  0  0
  7  9  1  0  0  0  0
  7 14  1  0  0  0  0
  8  9  2  0  0  0  0
  8 19  1  0  0  0  0
  9 24  1  0  0  0  0
 10 17  1  0  0  0  0
 10 21  1  0  0  0  0
 11 22  1  0  0  0  0
 11 24  1  0  0  0  0
 12 15  1  0  0  0  0
 12 16  2  0  0  0  0
 12 20  1  0  0  0  0
 13 21  1  0  0  0  0
 13 22  1  0  0  0  0
 13 23  2  0  0  0  0
 14 15  1  0  0  0  0
  1 25  1  0  0  0  0
  2 26  1  0  0  0  0
  3 27  1  0  0  0  0
  4 28  1  0  0  0  0
  5 29  1  0  0  0  0
  6 30  1  0  0  0  0
 14 31  1  0  0  0  0
 14 32  1  0  0  0  0
 15 33  1  0  0  0  0
 15 34  1  0  0  0  0
 18 35  1  0  0  0  0
 19 36  1  0  0  0  0
 20 37  1  0  0  0  0
 21 38  1  0  0  0  0
 22 39  1  0  0  0  0
M  END
> <Chemgauss4 Score>
-5.06589603424072

> <Number of Confs>
98

$$$$
ADA-UNI-f8e-8
  -OEChem-03242005443D

 42 43  0     1  0  0  0  0  0999 V2000
   10.7144    0.3444   23.5148 C   0  0  0  0  0  0  0  0  0  0  0  0
    6.2454   -6.4235   21.3202 C   0  0  0  0  0  0  0  0  0  0  0  0
   10.0283   -0.6797   24.1676 C   0  0  0  0  0  0  0  0  0  0  0  0
    7.1760   -5.6939   22.0515 C   0  0  0  0  0  0  0  0  0  0  0  0
   11.8133    0.0448   22.7096 C   0  0  0  0  0  0  0  0  0  0  0  0
   11.5403   -2.3029   23.2103 C   0  0  0  0  0  0  0  0  0  0  0  0
    4.9068   -6.2812   21.6485 C   0  0  0  0  0  0  0  0  0  0  0  0
    5.3848   -4.7838   23.3241 C   0  0  0  0  0  0  0  0  0  0  0  0
   10.4413   -2.0033   24.0154 C   0  0  0  0  0  0  0  0  0  0  0  0
    6.7457   -4.8561   23.0744 C   0  0  0  0  0  0  0  0  0  0  0  0
   12.2263   -1.2788   22.5574 C   0  0  0  0  0  0  0  0  0  0  0  0
    9.0552   -4.0699   23.7037 C   0  0  0  0  0  0  0  0  0  0  0  0
    7.9673   -6.5676   28.8289 C   0  0  0  0  0  0  0  0  0  0  0  0
   10.5912   -3.9086   25.7087 C   0  0  0  0  0  0  0  0  0  0  0  0
    9.8883   -5.0679   26.4144 C   0  0  0  0  0  0  0  0  0  0  0  0
    9.6941   -3.1183   24.7280 C   0  0  1  0  0  0  0  0  0  0  0  0
    4.4509   -5.4773   22.6352 N   0  0  0  0  0  0  0  0  0  0  0  0
    7.6689   -4.1013   23.8362 N   0  0  0  0  0  0  0  0  0  0  0  0
    8.7554   -4.5705   27.2238 N   0  0  0  0  0  0  0  0  0  0  0  0
    9.7363   -4.7056   22.9040 O   0  0  0  0  0  0  0  0  0  0  0  0
    7.2312   -6.4551   26.3198 O   0  0  0  0  0  0  0  0  0  0  0  0
    6.3033   -4.7642   27.9435 O   0  0  0  0  0  0  0  0  0  0  0  0
    7.4021   -5.5797   27.4628 S   0  0  0  0  0  0  0  0  0  0  0  0
   13.5829   -1.6476   21.5648 Cl  0  0  0  0  0  0  0  0  0  0  0  0
   10.3926    1.3750   23.6336 H   0  0  0  0  0  0  0  0  0  0  0  0
    6.5581   -7.0828   20.5185 H   0  0  0  0  0  0  0  0  0  0  0  0
    9.1732   -0.4370   24.7931 H   0  0  0  0  0  0  0  0  0  0  0  0
    8.2331   -5.7856   21.8163 H   0  0  0  0  0  0  0  0  0  0  0  0
   12.3387    0.8532   22.2070 H   0  0  0  0  0  0  0  0  0  0  0  0
   11.8580   -3.3365   23.0945 H   0  0  0  0  0  0  0  0  0  0  0  0
    4.1417   -6.8293   21.1086 H   0  0  0  0  0  0  0  0  0  0  0  0
    4.9880   -4.1473   24.1094 H   0  0  0  0  0  0  0  0  0  0  0  0
    7.1790   -7.2747   29.0920 H   0  0  0  0  0  0  0  0  0  0  0  0
    8.8694   -7.0981   28.5203 H   0  0  0  0  0  0  0  0  0  0  0  0
    8.1818   -5.9042   29.6681 H   0  0  0  0  0  0  0  0  0  0  0  0
   10.9796   -3.2162   26.4681 H   0  0  0  0  0  0  0  0  0  0  0  0
   11.4701   -4.3057   25.1850 H   0  0  0  0  0  0  0  0  0  0  0  0
   10.5906   -5.5718   27.0870 H   0  0  0  0  0  0  0  0  0  0  0  0
    9.5191   -5.8114   25.7020 H   0  0  0  0  0  0  0  0  0  0  0  0
    8.8673   -2.6866   25.3091 H   0  0  0  0  0  0  0  0  0  0  0  0
    7.2738   -3.5126   24.5663 H   0  0  0  0  0  0  0  0  0  0  0  0
    9.0399   -3.9740   28.0092 H   0  0  0  0  0  0  0  0  0  0  0  0
  1  3  2  0  0  0  0
  1  5  1  0  0  0  0
  2  4  2  0  0  0  0
  2  7  1  0  0  0  0
  3  9  1  0  0  0  0
  4 10  1  0  0  0  0
  5 11  2  0  0  0  0
  6  9  2  0  0  0  0
  6 11  1  0  0  0  0
  7 17  2  0  0  0  0
  8 10  2  0  0  0  0
  8 17  1  0  0  0  0
  9 16  1  0  0  0  0
 10 18  1  0  0  0  0
 11 24  1  0  0  0  0
 12 16  1  0  0  0  0
 12 18  1  0  0  0  0
 12 20  2  0  0  0  0
 13 23  1  0  0  0  0
 14 15  1  0  0  0  0
 14 16  1  6  0  0  0
 15 19  1  0  0  0  0
 19 23  1  0  0  0  0
 21 23  2  0  0  0  0
 22 23  2  0  0  0  0
  1 25  1  0  0  0  0
  2 26  1  0  0  0  0
  3 27  1  0  0  0  0
  4 28  1  0  0  0  0
  5 29  1  0  0  0  0
  6 30  1  0  0  0  0
  7 31  1  0  0  0  0
  8 32  1  0  0  0  0
 13 33  1  0  0  0  0
 13 34  1  0  0  0  0
 13 35  1  0  0  0  0
 14 36  1  0  0  0  0
 14 37  1  0  0  0  0
 15 38  1  0  0  0  0
 15 39  1  0  0  0  0
 16 40  1  0  0  0  0
 18 41  1  0  0  0  0
 19 42  1  0  0  0  0
M  END
> <Chemgauss4 Score>
-5.06557846069336

> <Number of Confs>
200

$$$$
DAN-LON-a5f-5
  -OEChem-03242005443D

 44 46  0     1  0  0  0  0  0999 V2000
   11.6458   -0.2458   25.0440 C   0  0  0  0  0  0  0  0  0  0  0  0
    8.7059   -2.1698   21.9957 C   0  0  0  0  0  0  0  0  0  0  0  0
    8.2447   -1.3452   24.2194 C   0  0  0  0  0  0  0  0  0  0  0  0
   11.0872   -1.4549   25.4582 C   0  0  0  0  0  0  0  0  0  0  0  0
   12.4113   -0.1939   23.8791 C   0  0  0  0  0  0  0  0  0  0  0  0
    8.6266   -0.8695   21.4971 C   0  0  0  0  0  0  0  0  0  0  0  0
    8.1655   -0.0449   23.7207 C   0  0  0  0  0  0  0  0  0  0  0  0
   12.0596   -2.5603   23.5426 C   0  0  0  0  0  0  0  0  0  0  0  0
    8.5149   -2.4076   23.3569 C   0  0  0  0  0  0  0  0  0  0  0  0
   11.2941   -2.6122   24.7075 C   0  0  0  0  0  0  0  0  0  0  0  0
    8.3564    0.1929   22.3596 C   0  0  0  0  0  0  0  0  0  0  0  0
   12.6182   -1.3512   23.1284 C   0  0  0  0  0  0  0  0  0  0  0  0
    5.1308   -3.9880   25.2351 C   0  0  0  0  0  0  0  0  0  0  0  0
    7.2122   -4.6766   26.3371 C   0  0  0  0  0  0  0  0  0  0  0  0
    8.7041   -4.9022   26.0980 C   0  0  0  0  0  0  0  0  0  0  0  0
    7.2079   -4.5000   23.8635 C   0  0  0  0  0  0  0  0  0  0  0  0
    8.6030   -3.8278   23.9023 C   0  0  2  0  0  0  0  0  0  0  0  0
   10.6935   -3.9135   25.1546 C   0  0  0  0  0  0  0  0  0  0  0  0
    4.2444   -4.3117   24.0597 C   0  0  0  0  0  0  0  0  0  0  0  0
    6.4755   -4.3393   25.1216 N   0  0  0  0  0  0  0  0  0  0  0  0
    9.2354   -3.8422   25.2411 N   0  0  2  0  0  0  0  0  0  0  0  0
    4.6489   -3.4352   26.2274 O   0  0  0  0  0  0  0  0  0  0  0  0
    8.2589    1.7968   21.7443 Cl  0  0  0  0  0  0  0  0  0  0  0  0
   13.5637   -1.2868   21.6918 Cl  0  0  0  0  0  0  0  0  0  0  0  0
    4.3447   -6.0521   23.8174 Cl  0  0  0  0  0  0  0  0  0  0  0  0
   11.4846    0.6552   25.6290 H   0  0  0  0  0  0  0  0  0  0  0  0
    8.9166   -2.9923   21.3173 H   0  0  0  0  0  0  0  0  0  0  0  0
    8.0949   -1.5220   25.2812 H   0  0  0  0  0  0  0  0  0  0  0  0
   10.4923   -1.4860   26.3673 H   0  0  0  0  0  0  0  0  0  0  0  0
   12.8408    0.7554   23.5685 H   0  0  0  0  0  0  0  0  0  0  0  0
    8.7780   -0.6994   20.4343 H   0  0  0  0  0  0  0  0  0  0  0  0
    7.9541    0.7731   24.4046 H   0  0  0  0  0  0  0  0  0  0  0  0
   12.2176   -3.4653   22.9605 H   0  0  0  0  0  0  0  0  0  0  0  0
    6.7773   -5.5722   26.8176 H   0  0  0  0  0  0  0  0  0  0  0  0
    7.0576   -3.8450   27.0511 H   0  0  0  0  0  0  0  0  0  0  0  0
    9.2052   -4.8865   27.0648 H   0  0  0  0  0  0  0  0  0  0  0  0
    8.8521   -5.8849   25.6500 H   0  0  0  0  0  0  0  0  0  0  0  0
    6.5798   -4.0505   23.0783 H   0  0  0  0  0  0  0  0  0  0  0  0
    7.3195   -5.5575   23.5969 H   0  0  0  0  0  0  0  0  0  0  0  0
    9.2753   -4.3823   23.1907 H   0  0  0  0  0  0  0  0  0  0  0  0
   10.9511   -4.7176   24.4567 H   0  0  0  0  0  0  0  0  0  0  0  0
   11.0735   -4.2038   26.1398 H   0  0  0  0  0  0  0  0  0  0  0  0
    4.6174   -3.7919   23.1847 H   0  0  0  0  0  0  0  0  0  0  0  0
    3.2262   -4.0270   24.2988 H   0  0  0  0  0  0  0  0  0  0  0  0
  1  4  2  0  0  0  0
  1  5  1  0  0  0  0
  2  6  2  0  0  0  0
  2  9  1  0  0  0  0
  3  7  1  0  0  0  0
  3  9  2  0  0  0  0
  4 10  1  0  0  0  0
  5 12  2  0  0  0  0
  6 11  1  0  0  0  0
  7 11  2  0  0  0  0
  8 10  2  0  0  0  0
  8 12  1  0  0  0  0
  9 17  1  6  0  0  0
 10 18  1  0  0  0  0
 11 23  1  0  0  0  0
 12 24  1  0  0  0  0
 13 19  1  0  0  0  0
 13 20  1  0  0  0  0
 13 22  2  0  0  0  0
 14 15  1  0  0  0  0
 14 20  1  0  0  0  0
 15 21  1  0  0  0  0
 16 17  1  0  0  0  0
 16 20  1  0  0  0  0
 17 21  1  0  0  0  0
 18 21  1  1  0  0  0
 19 25  1  0  0  0  0
  1 26  1  0  0  0  0
  2 27  1  0  0  0  0
  3 28  1  0  0  0  0
  4 29  1  0  0  0  0
  5 30  1  0  0  0  0
  6 31  1  0  0  0  0
  7 32  1  0  0  0  0
  8 33  1  0  0  0  0
 14 34  1  0  0  0  0
 14 35  1  0  0  0  0
 15 36  1  0  0  0  0
 15 37  1  0  0  0  0
 16 38  1  0  0  0  0
 16 39  1  0  0  0  0
 17 40  1  0  0  0  0
 18 41  1  0  0  0  0
 18 42  1  0  0  0  0
 19 43  1  0  0  0  0
 19 44  1  0  0  0  0
M  END
> <Chemgauss4 Score>
-5.06172466278076

> <Number of Confs>
102

$$$$
JOH-MSK-a63-5
  -OEChem-03242005443D

 33 34  0     0  0  0  0  0  0999 V2000
   11.2592   -3.7253   23.8713 C   0  0  0  0  0  0  0  0  0  0  0  0
   11.0977   -2.4382   23.3506 C   0  0  0  0  0  0  0  0  0  0  0  0
    9.4004   -1.9181   25.0076 C   0  0  0  0  0  0  0  0  0  0  0  0
    9.4896   -5.1648   26.6842 C   0  0  0  0  0  0  0  0  0  0  0  0
    9.5456   -3.2105   25.5497 C   0  0  0  0  0  0  0  0  0  0  0  0
    8.9349   -3.9069   26.6300 C   0  0  0  0  0  0  0  0  0  0  0  0
   10.4698   -4.0825   24.9702 C   0  0  0  0  0  0  0  0  0  0  0  0
   10.1833   -1.5468   23.9084 C   0  0  0  0  0  0  0  0  0  0  0  0
    6.2430   -5.1817   25.2676 C   0  0  0  0  0  0  0  0  0  0  0  0
    5.6728   -6.5486   25.0810 C   0  0  0  0  0  0  0  0  0  0  0  0
    7.8935   -3.3836   27.5368 C   0  0  0  0  0  0  0  0  0  0  0  0
    6.4860   -3.3350   26.9148 C   0  0  0  0  0  0  0  0  0  0  0  0
   10.4144   -5.2612   25.6794 N   0  0  0  0  0  0  0  0  0  0  0  0
    6.0213   -4.6386   26.5230 N   0  0  0  0  0  0  0  0  0  0  0  0
   11.9669    0.6594   24.5530 O   0  5  0  0  0  0  0  0  0  0  0  0
    6.8459   -4.6473   24.3442 O   0  0  0  0  0  0  0  0  0  0  0  0
   10.5773    2.0961   23.1378 O   0  0  0  0  0  0  0  0  0  0  0  0
   12.0477    0.3991   22.1193 O   0  0  0  0  0  0  0  0  0  0  0  0
   10.0488   -0.2980   23.3792 O   0  0  0  0  0  0  0  0  0  0  0  0
   11.2605    0.8109   23.2810 S   0  0  0  0  0  0  0  0  0  0  0  0
   11.9710   -4.4185   23.4359 H   0  0  0  0  0  0  0  0  0  0  0  0
   11.6980   -2.1352   22.4958 H   0  0  0  0  0  0  0  0  0  0  0  0
    8.6903   -1.2159   25.4361 H   0  0  0  0  0  0  0  0  0  0  0  0
    9.3100   -6.0002   27.3466 H   0  0  0  0  0  0  0  0  0  0  0  0
    4.6401   -6.5247   24.6975 H   0  0  0  0  0  0  0  0  0  0  0  0
    6.2413   -7.1451   24.3495 H   0  0  0  0  0  0  0  0  0  0  0  0
    5.6300   -7.1695   25.9901 H   0  0  0  0  0  0  0  0  0  0  0  0
    8.1550   -2.3579   27.8645 H   0  0  0  0  0  0  0  0  0  0  0  0
    7.8448   -3.9705   28.4764 H   0  0  0  0  0  0  0  0  0  0  0  0
    5.7551   -2.9405   27.6277 H   0  0  0  0  0  0  0  0  0  0  0  0
    6.4725   -2.6981   26.0243 H   0  0  0  0  0  0  0  0  0  0  0  0
   10.9753   -6.0791   25.4850 H   0  0  0  0  0  0  0  0  0  0  0  0
    5.5023   -5.1912   27.2036 H   0  0  0  0  0  0  0  0  0  0  0  0
  1  2  2  0  0  0  0
  1  7  1  0  0  0  0
  2  8  1  0  0  0  0
  3  5  1  0  0  0  0
  3  8  2  0  0  0  0
  4  6  2  0  0  0  0
  4 13  1  0  0  0  0
  5  6  1  0  0  0  0
  5  7  2  0  0  0  0
  6 11  1  0  0  0  0
  7 13  1  0  0  0  0
  8 19  1  0  0  0  0
  9 10  1  0  0  0  0
  9 14  1  0  0  0  0
  9 16  2  0  0  0  0
 11 12  1  0  0  0  0
 12 14  1  0  0  0  0
 15 20  1  0  0  0  0
 17 20  2  0  0  0  0
 18 20  2  0  0  0  0
 19 20  1  0  0  0  0
  1 21  1  0  0  0  0
  2 22  1  0  0  0  0
  3 23  1  0  0  0  0
  4 24  1  0  0  0  0
 10 25  1  0  0  0  0
 10 26  1  0  0  0  0
 10 27  1  0  0  0  0
 11 28  1  0  0  0  0
 11 29  1  0  0  0  0
 12 30  1  0  0  0  0
 12 31  1  0  0  0  0
 13 32  1  0  0  0  0
 14 33  1  0  0  0  0
M  CHG  1  15  -1
M  END
> <Chemgauss4 Score>
-5.05524253845215

> <Number of Confs>
200

$$$$
AGN-NEW-891-5
  -OEChem-03242005443D

 37 38  0     0  0  0  0  0  0999 V2000
    5.8177   -6.0886   22.1139 C   0  0  0  0  0  0  0  0  0  0  0  0
    6.8403   -5.5458   22.8839 C   0  0  0  0  0  0  0  0  0  0  0  0
   10.8508   -2.9239   24.7656 C   0  0  0  0  0  0  0  0  0  0  0  0
   10.1016   -0.6542   24.4136 C   0  0  0  0  0  0  0  0  0  0  0  0
    9.0766   -2.0123   26.1288 C   0  0  0  0  0  0  0  0  0  0  0  0
    4.6220   -6.3922   22.7449 C   0  0  0  0  0  0  0  0  0  0  0  0
    5.4065   -5.6638   24.7776 C   0  0  0  0  0  0  0  0  0  0  0  0
    6.6390   -5.3263   24.2420 C   0  0  0  0  0  0  0  0  0  0  0  0
   10.9427   -1.7146   24.0765 C   0  0  0  0  0  0  0  0  0  0  0  0
    9.9177   -3.0728   25.7917 C   0  0  0  0  0  0  0  0  0  0  0  0
    9.1685   -0.8030   25.4397 C   0  0  0  0  0  0  0  0  0  0  0  0
    7.7027   -4.7532   25.0848 C   0  0  0  0  0  0  0  0  0  0  0  0
    8.6381   -5.4668   25.7236 C   0  0  0  0  0  0  0  0  0  0  0  0
   12.9809   -0.4603   23.2854 C   0  0  0  0  0  0  0  0  0  0  0  0
   11.2802   -1.2826   21.6161 C   0  0  0  0  0  0  0  0  0  0  0  0
   11.9414   -1.5555   22.9804 C   0  0  0  0  0  0  0  0  0  0  0  0
    4.3892   -6.1930   24.0616 N   0  0  0  0  0  0  0  0  0  0  0  0
   11.0871   -5.2724   26.5567 O   0  0  0  0  0  0  0  0  0  0  0  0
    9.2490   -4.3058   27.9732 O   0  0  0  0  0  0  0  0  0  0  0  0
    9.8044   -4.5861   26.6549 S   0  0  0  0  0  0  0  0  0  0  0  0
    8.1325    0.5062   25.8573 Cl  0  0  0  0  0  0  0  0  0  0  0  0
    5.9521   -6.2683   21.0535 H   0  0  0  0  0  0  0  0  0  0  0  0
    7.7882   -5.2992   22.4121 H   0  0  0  0  0  0  0  0  0  0  0  0
   11.5077   -3.7494   24.5016 H   0  0  0  0  0  0  0  0  0  0  0  0
   10.1780    0.2869   23.8737 H   0  0  0  0  0  0  0  0  0  0  0  0
    8.3494   -2.1322   26.9286 H   0  0  0  0  0  0  0  0  0  0  0  0
    3.7938   -6.8182   22.1882 H   0  0  0  0  0  0  0  0  0  0  0  0
    5.1856   -5.5170   25.8311 H   0  0  0  0  0  0  0  0  0  0  0  0
    7.7077   -3.6674   25.1566 H   0  0  0  0  0  0  0  0  0  0  0  0
    8.7096   -6.5460   25.6828 H   0  0  0  0  0  0  0  0  0  0  0  0
   12.5072    0.5174   23.4258 H   0  0  0  0  0  0  0  0  0  0  0  0
   13.7100   -0.3627   22.4737 H   0  0  0  0  0  0  0  0  0  0  0  0
   13.5305   -0.6997   24.2027 H   0  0  0  0  0  0  0  0  0  0  0  0
   10.6876   -0.3617   21.6558 H   0  0  0  0  0  0  0  0  0  0  0  0
   10.6110   -2.0994   21.3248 H   0  0  0  0  0  0  0  0  0  0  0  0
   12.0264   -1.1656   20.8226 H   0  0  0  0  0  0  0  0  0  0  0  0
   12.5157   -2.4934   22.8570 H   0  0  0  0  0  0  0  0  0  0  0  0
  1  2  2  0  0  0  0
  1  6  1  0  0  0  0
  2  8  1  0  0  0  0
  3  9  2  0  0  0  0
  3 10  1  0  0  0  0
  4  9  1  0  0  0  0
  4 11  2  0  0  0  0
  5 10  2  0  0  0  0
  5 11  1  0  0  0  0
  6 17  2  0  0  0  0
  7  8  2  0  0  0  0
  7 17  1  0  0  0  0
  8 12  1  0  0  0  0
  9 16  1  0  0  0  0
 10 20  1  0  0  0  0
 11 21  1  0  0  0  0
 12 13  2  0  0  0  0
 13 20  1  0  0  0  0
 14 16  1  0  0  0  0
 15 16  1  0  0  0  0
 18 20  2  0  0  0  0
 19 20  2  0  0  0  0
  1 22  1  0  0  0  0
  2 23  1  0  0  0  0
  3 24  1  0  0  0  0
  4 25  1  0  0  0  0
  5 26  1  0  0  0  0
  6 27  1  0  0  0  0
  7 28  1  0  0  0  0
 12 29  1  0  0  0  0
 13 30  1  0  0  0  0
 14 31  1  0  0  0  0
 14 32  1  0  0  0  0
 14 33  1  0  0  0  0
 15 34  1  0  0  0  0
 15 35  1  0  0  0  0
 15 36  1  0  0  0  0
 16 37  1  0  0  0  0
M  END
> <Chemgauss4 Score>
-5.04507303237915

> <Number of Confs>
98

$$$$
CHR-SOS-54d-8
  -OEChem-03242005443D

 46 48  0     0  0  0  0  0  0999 V2000
    8.9541   -2.0006   22.5673 C   0  0  0  0  0  0  0  0  0  0  0  0
    9.9773   -2.1932   23.1662 C   0  0  0  0  0  0  0  0  0  0  0  0
    5.3663   -5.5633   24.7942 C   0  0  0  0  0  0  0  0  0  0  0  0
    6.6250   -5.2613   24.2865 C   0  0  0  0  0  0  0  0  0  0  0  0
    7.4861   -1.9032   20.4759 C   0  0  0  0  0  0  0  0  0  0  0  0
    5.1654   -5.4196   26.1575 C   0  0  0  0  0  0  0  0  0  0  0  0
    7.3278   -4.7198   26.4931 C   0  0  0  0  0  0  0  0  0  0  0  0
    7.7353   -1.7692   21.8550 C   0  0  0  0  0  0  0  0  0  0  0  0
    7.6301   -4.8310   25.1455 C   0  0  0  0  0  0  0  0  0  0  0  0
    6.1647   -1.5581   20.3307 C   0  0  0  0  0  0  0  0  0  0  0  0
   10.0205   -4.0772   25.3905 C   0  0  0  0  0  0  0  0  0  0  0  0
   12.8211    0.0997   23.6849 C   0  0  0  0  0  0  0  0  0  0  0  0
   12.6906   -0.8479   22.4978 C   0  0  0  0  0  0  0  0  0  0  0  0
   11.6137    0.0098   24.6114 C   0  0  0  0  0  0  0  0  0  0  0  0
   12.4440   -2.2891   22.9494 C   0  0  0  0  0  0  0  0  0  0  0  0
   11.3614   -1.4271   25.0736 C   0  0  0  0  0  0  0  0  0  0  0  0
   11.2397   -2.4297   23.9055 C   0  0  0  0  0  0  0  0  0  0  0  0
    5.2911   -1.4903   19.1480 C   0  0  0  0  0  0  0  0  0  0  0  0
   11.1999   -3.8616   24.4664 C   0  0  0  0  0  0  0  0  0  0  0  0
    6.1170   -5.0041   27.0232 N   0  0  0  0  0  0  0  0  0  0  0  0
    6.6585   -1.3700   22.5371 N   0  0  0  0  0  0  0  0  0  0  0  0
    5.7200   -1.2501   21.5827 N   0  0  0  0  0  0  0  0  0  0  0  0
    8.9211   -4.5165   24.6584 N   0  0  0  0  0  0  0  0  0  0  0  0
   10.0803   -3.8790   26.5994 O   0  0  0  0  0  0  0  0  0  0  0  0
    4.5679   -5.9005   24.1431 H   0  0  0  0  0  0  0  0  0  0  0  0
    6.8117   -5.3648   23.2208 H   0  0  0  0  0  0  0  0  0  0  0  0
    8.1675   -2.2067   19.6937 H   0  0  0  0  0  0  0  0  0  0  0  0
    4.2016   -5.6432   26.6030 H   0  0  0  0  0  0  0  0  0  0  0  0
    8.0705   -4.3888   27.2128 H   0  0  0  0  0  0  0  0  0  0  0  0
   13.7314   -0.1430   24.2472 H   0  0  0  0  0  0  0  0  0  0  0  0
   12.9340    1.1284   23.3249 H   0  0  0  0  0  0  0  0  0  0  0  0
   11.8715   -0.5143   21.8492 H   0  0  0  0  0  0  0  0  0  0  0  0
   13.6051   -0.8058   21.8950 H   0  0  0  0  0  0  0  0  0  0  0  0
   11.7758    0.6511   25.4855 H   0  0  0  0  0  0  0  0  0  0  0  0
   10.7260    0.3981   24.0975 H   0  0  0  0  0  0  0  0  0  0  0  0
   12.3080   -2.9212   22.0619 H   0  0  0  0  0  0  0  0  0  0  0  0
   13.3518   -2.6499   23.4517 H   0  0  0  0  0  0  0  0  0  0  0  0
   12.1927   -1.7270   25.7259 H   0  0  0  0  0  0  0  0  0  0  0  0
   10.4564   -1.4467   25.6949 H   0  0  0  0  0  0  0  0  0  0  0  0
    4.7808   -2.4528   18.9701 H   0  0  0  0  0  0  0  0  0  0  0  0
    4.5105   -0.7148   19.2488 H   0  0  0  0  0  0  0  0  0  0  0  0
    5.8505   -1.2367   18.2293 H   0  0  0  0  0  0  0  0  0  0  0  0
   12.1251   -4.0444   25.0121 H   0  0  0  0  0  0  0  0  0  0  0  0
   11.1372   -4.5582   23.6310 H   0  0  0  0  0  0  0  0  0  0  0  0
    4.7928   -0.9518   21.8590 H   0  0  0  0  0  0  0  0  0  0  0  0
    9.0465   -4.6293   23.6545 H   0  0  0  0  0  0  0  0  0  0  0  0
  1  2  3  0  0  0  0
  1  8  1  0  0  0  0
  2 17  1  0  0  0  0
  3  4  2  0  0  0  0
  3  6  1  0  0  0  0
  4  9  1  0  0  0  0
  5  8  1  0  0  0  0
  5 10  2  0  0  0  0
  6 20  2  0  0  0  0
  7  9  2  0  0  0  0
  7 20  1  0  0  0  0
  8 21  2  0  0  0  0
  9 23  1  0  0  0  0
 10 18  1  0  0  0  0
 10 22  1  0  0  0  0
 11 19  1  0  0  0  0
 11 23  1  0  0  0  0
 11 24  2  0  0  0  0
 12 13  1  0  0  0  0
 12 14  1  0  0  0  0
 13 15  1  0  0  0  0
 14 16  1  0  0  0  0
 15 17  1  0  0  0  0
 16 17  1  0  0  0  0
 17 19  1  0  0  0  0
 21 22  1  0  0  0  0
  3 25  1  0  0  0  0
  4 26  1  0  0  0  0
  5 27  1  0  0  0  0
  6 28  1  0  0  0  0
  7 29  1  0  0  0  0
 12 30  1  0  0  0  0
 12 31  1  0  0  0  0
 13 32  1  0  0  0  0
 13 33  1  0  0  0  0
 14 34  1  0  0  0  0
 14 35  1  0  0  0  0
 15 36  1  0  0  0  0
 15 37  1  0  0  0  0
 16 38  1  0  0  0  0
 16 39  1  0  0  0  0
 18 40  1  0  0  0  0
 18 41  1  0  0  0  0
 18 42  1  0  0  0  0
 19 43  1  0  0  0  0
 19 44  1  0  0  0  0
 22 45  1  0  0  0  0
 23 46  1  0  0  0  0
M  END
> <Chemgauss4 Score>
-5.04434537887573

> <Number of Confs>
78

$$$$
DAR-DIA-033-15
  -OEChem-03242005443D

 36 37  0     0  0  0  0  0  0999 V2000
   12.8755    0.4056   21.9817 C   0  0  0  0  0  0  0  0  0  0  0  0
   13.4780   -0.8418   21.8190 C   0  0  0  0  0  0  0  0  0  0  0  0
   11.8282    0.5612   22.8899 C   0  0  0  0  0  0  0  0  0  0  0  0
   13.0333   -1.9337   22.5645 C   0  0  0  0  0  0  0  0  0  0  0  0
   11.3835   -0.5307   23.6353 C   0  0  0  0  0  0  0  0  0  0  0  0
    7.0006   -5.0917   27.3617 C   0  0  0  0  0  0  0  0  0  0  0  0
    7.2530   -4.5723   28.6212 C   0  0  0  0  0  0  0  0  0  0  0  0
    9.3786   -3.9323   28.0294 C   0  0  0  0  0  0  0  0  0  0  0  0
    8.0111   -5.0112   26.4101 C   0  0  0  0  0  0  0  0  0  0  0  0
    9.2259   -4.4219   26.7423 C   0  0  0  0  0  0  0  0  0  0  0  0
   11.9861   -1.7781   23.4726 C   0  0  0  0  0  0  0  0  0  0  0  0
   10.5107   -2.9097   25.1720 C   0  0  0  0  0  0  0  0  0  0  0  0
   10.3534   -4.3073   25.7501 C   0  0  0  0  0  0  0  0  0  0  0  0
    7.7701   -5.5607   25.0432 C   0  0  0  0  0  0  0  0  0  0  0  0
    7.9263   -4.5193   23.9289 C   0  0  0  0  0  0  0  0  0  0  0  0
    8.4201   -3.9926   28.9809 N   0  0  0  0  0  0  0  0  0  0  0  0
    7.0254   -3.4093   24.0873 N   0  0  0  0  0  0  0  0  0  0  0  0
   11.5415   -2.8704   24.2182 N   0  0  0  0  0  0  0  0  0  0  0  0
    9.8054   -1.9705   25.5264 O   0  0  0  0  0  0  0  0  0  0  0  0
   13.2220    1.2562   21.4020 H   0  0  0  0  0  0  0  0  0  0  0  0
   14.2940   -0.9631   21.1127 H   0  0  0  0  0  0  0  0  0  0  0  0
   11.3599    1.5329   23.0170 H   0  0  0  0  0  0  0  0  0  0  0  0
   13.5107   -2.9010   22.4293 H   0  0  0  0  0  0  0  0  0  0  0  0
   10.5665   -0.3975   24.3402 H   0  0  0  0  0  0  0  0  0  0  0  0
    6.0422   -5.5456   27.1341 H   0  0  0  0  0  0  0  0  0  0  0  0
    6.4975   -4.6103   29.3991 H   0  0  0  0  0  0  0  0  0  0  0  0
   10.3035   -3.4614   28.3479 H   0  0  0  0  0  0  0  0  0  0  0  0
   11.2969   -4.5976   26.2297 H   0  0  0  0  0  0  0  0  0  0  0  0
   10.1905   -5.0138   24.9263 H   0  0  0  0  0  0  0  0  0  0  0  0
    6.7507   -5.9781   24.9930 H   0  0  0  0  0  0  0  0  0  0  0  0
    8.4419   -6.4127   24.8443 H   0  0  0  0  0  0  0  0  0  0  0  0
    8.9398   -4.1059   23.9306 H   0  0  0  0  0  0  0  0  0  0  0  0
    7.7387   -4.9591   22.9439 H   0  0  0  0  0  0  0  0  0  0  0  0
    6.4153   -3.3606   23.2969 H   0  0  0  0  0  0  0  0  0  0  0  0
    6.4853   -3.5360   24.9189 H   0  0  0  0  0  0  0  0  0  0  0  0
   12.0294   -3.7576   24.0485 H   0  0  0  0  0  0  0  0  0  0  0  0
  1  2  1  0  0  0  0
  1  3  2  0  0  0  0
  2  4  2  0  0  0  0
  3  5  1  0  0  0  0
  4 11  1  0  0  0  0
  5 11  2  0  0  0  0
  6  7  2  0  0  0  0
  6  9  1  0  0  0  0
  7 16  1  0  0  0  0
  8 10  1  0  0  0  0
  8 16  2  0  0  0  0
  9 10  2  0  0  0  0
  9 14  1  0  0  0  0
 10 13  1  0  0  0  0
 11 18  1  0  0  0  0
 12 13  1  0  0  0  0
 12 18  1  0  0  0  0
 12 19  2  0  0  0  0
 14 15  1  0  0  0  0
 15 17  1  0  0  0  0
  1 20  1  0  0  0  0
  2 21  1  0  0  0  0
  3 22  1  0  0  0  0
  4 23  1  0  0  0  0
  5 24  1  0  0  0  0
  6 25  1  0  0  0  0
  7 26  1  0  0  0  0
  8 27  1  0  0  0  0
 13 28  1  0  0  0  0
 13 29  1  0  0  0  0
 14 30  1  0  0  0  0
 14 31  1  0  0  0  0
 15 32  1  0  0  0  0
 15 33  1  0  0  0  0
 17 34  1  0  0  0  0
 17 35  1  0  0  0  0
 18 36  1  0  0  0  0
M  END
> <Chemgauss4 Score>
-5.04109525680542

> <Number of Confs>
126

$$$$
JOH-MEM-5e3-3
  -OEChem-03242005443D

 53 55  0     1  0  0  0  0  0999 V2000
    7.3377   -1.9440   23.2141 C   0  0  0  0  0  0  0  0  0  0  0  0
    6.9020   -1.2440   22.0854 C   0  0  0  0  0  0  0  0  0  0  0  0
    9.1788   -1.0281   21.2690 C   0  0  0  0  0  0  0  0  0  0  0  0
   10.7553   -2.8064   24.0462 C   0  0  0  0  0  0  0  0  0  0  0  0
    9.6416   -1.7316   22.3987 C   0  0  0  0  0  0  0  0  0  0  0  0
   10.9264   -2.1389   22.8553 C   0  0  0  0  0  0  0  0  0  0  0  0
    8.7123   -2.1725   23.3433 C   0  0  0  0  0  0  0  0  0  0  0  0
    7.8066   -0.7922   21.1266 C   0  0  0  0  0  0  0  0  0  0  0  0
    9.0684   -3.4150   28.5945 C   0  0  0  0  0  0  0  0  0  0  0  0
   11.9861    0.4828   24.5078 C   0  0  0  0  0  0  0  0  0  0  0  0
    9.4151   -4.5230   27.6431 C   0  0  1  0  0  0  0  0  0  0  0  0
    8.2982   -5.5639   27.4987 C   0  0  1  0  0  0  0  0  0  0  0  0
    7.2122   -5.1743   26.4877 C   0  0  2  0  0  0  0  0  0  0  0  0
    7.8054   -4.5672   25.2132 C   0  0  1  0  0  0  0  0  0  0  0  0
    8.8137   -3.4632   25.5680 C   0  0  2  0  0  0  0  0  0  0  0  0
   12.4337    0.7699   25.9026 C   0  0  0  0  0  0  0  0  0  0  0  0
    8.3257    0.3228   19.0912 C   0  0  0  0  0  0  0  0  0  0  0  0
   12.2176   -1.8928   22.1819 C   0  0  0  0  0  0  0  0  0  0  0  0
   12.7376   -0.4513   22.3295 C   0  0  0  0  0  0  0  0  0  0  0  0
    9.4165   -2.8217   24.3321 N   0  0  0  0  0  0  0  0  0  0  0  0
   12.9578   -0.0925   23.7049 N   0  0  0  0  0  0  0  0  0  0  0  0
    9.0705   -2.2250   28.3167 O   0  0  0  0  0  0  0  0  0  0  0  0
   10.8402    0.7585   24.1722 O   0  0  0  0  0  0  0  0  0  0  0  0
    9.8523   -3.9811   26.4043 O   0  0  0  0  0  0  0  0  0  0  0  0
    8.7522   -3.9133   29.8148 O   0  0  0  0  0  0  0  0  0  0  0  0
    8.8830   -6.7944   27.0631 O   0  0  0  0  0  0  0  0  0  0  0  0
    6.3278   -4.2194   27.0682 O   0  0  0  0  0  0  0  0  0  0  0  0
    8.4587   -5.5919   24.4655 O   0  0  0  0  0  0  0  0  0  0  0  0
    7.3510   -0.1132   20.0362 O   0  0  0  0  0  0  0  0  0  0  0  0
    6.6289   -2.2933   23.9576 H   0  0  0  0  0  0  0  0  0  0  0  0
    5.8384   -1.0545   21.9598 H   0  0  0  0  0  0  0  0  0  0  0  0
    9.8761   -0.6714   20.5157 H   0  0  0  0  0  0  0  0  0  0  0  0
   11.4724   -3.2670   24.7130 H   0  0  0  0  0  0  0  0  0  0  0  0
   10.3288   -5.0536   28.1410 H   0  0  0  0  0  0  0  0  0  0  0  0
    7.8302   -5.7723   28.4765 H   0  0  0  0  0  0  0  0  0  0  0  0
    6.5841   -6.0512   26.2361 H   0  0  0  0  0  0  0  0  0  0  0  0
    7.0121   -4.1602   24.6154 H   0  0  0  0  0  0  0  0  0  0  0  0
    8.3183   -2.6268   26.0647 H   0  0  0  0  0  0  0  0  0  0  0  0
   12.8687    1.7769   26.0058 H   0  0  0  0  0  0  0  0  0  0  0  0
   11.6033    0.7360   26.6261 H   0  0  0  0  0  0  0  0  0  0  0  0
   13.1955    0.0826   26.3039 H   0  0  0  0  0  0  0  0  0  0  0  0
    7.8301    0.8499   18.2722 H   0  0  0  0  0  0  0  0  0  0  0  0
    8.8720   -0.5413   18.7048 H   0  0  0  0  0  0  0  0  0  0  0  0
    9.0241    1.0006   19.5878 H   0  0  0  0  0  0  0  0  0  0  0  0
   12.1297   -2.1126   21.0996 H   0  0  0  0  0  0  0  0  0  0  0  0
   13.0002   -2.5899   22.5437 H   0  0  0  0  0  0  0  0  0  0  0  0
   13.6944   -0.3245   21.8132 H   0  0  0  0  0  0  0  0  0  0  0  0
   12.0257    0.2674   21.9105 H   0  0  0  0  0  0  0  0  0  0  0  0
   13.8756   -0.2706   24.1096 H   0  0  0  0  0  0  0  0  0  0  0  0
    8.5241   -3.2036   30.4524 H   0  0  0  0  0  0  0  0  0  0  0  0
    9.5215   -7.0517   27.7455 H   0  0  0  0  0  0  0  0  0  0  0  0
    5.9368   -4.6460   27.8453 H   0  0  0  0  0  0  0  0  0  0  0  0
    7.7822   -6.2539   24.2533 H   0  0  0  0  0  0  0  0  0  0  0  0
  1  2  2  0  0  0  0
  1  7  1  0  0  0  0
  2  8  1  0  0  0  0
  3  5  1  0  0  0  0
  3  8  2  0  0  0  0
  4  6  2  0  0  0  0
  4 20  1  0  0  0  0
  5  6  1  0  0  0  0
  5  7  2  0  0  0  0
  6 18  1  0  0  0  0
  7 20  1  0  0  0  0
  8 29  1  0  0  0  0
  9 11  1  1  0  0  0
  9 22  2  0  0  0  0
  9 25  1  0  0  0  0
 10 16  1  0  0  0  0
 10 21  1  0  0  0  0
 10 23  2  0  0  0  0
 11 12  1  0  0  0  0
 11 24  1  0  0  0  0
 12 13  1  0  0  0  0
 12 26  1  6  0  0  0
 13 14  1  0  0  0  0
 13 27  1  1  0  0  0
 14 15  1  0  0  0  0
 14 28  1  6  0  0  0
 15 20  1  1  0  0  0
 15 24  1  0  0  0  0
 17 29  1  0  0  0  0
 18 19  1  0  0  0  0
 19 21  1  0  0  0  0
  1 30  1  0  0  0  0
  2 31  1  0  0  0  0
  3 32  1  0  0  0  0
  4 33  1  0  0  0  0
 11 34  1  0  0  0  0
 12 35  1  0  0  0  0
 13 36  1  0  0  0  0
 14 37  1  0  0  0  0
 15 38  1  0  0  0  0
 16 39  1  0  0  0  0
 16 40  1  0  0  0  0
 16 41  1  0  0  0  0
 17 42  1  0  0  0  0
 17 43  1  0  0  0  0
 17 44  1  0  0  0  0
 18 45  1  0  0  0  0
 18 46  1  0  0  0  0
 19 47  1  0  0  0  0
 19 48  1  0  0  0  0
 21 49  1  0  0  0  0
 25 50  1  0  0  0  0
 26 51  1  0  0  0  0
 27 52  1  0  0  0  0
 28 53  1  0  0  0  0
M  END
> <Chemgauss4 Score>
-5.03456687927246

> <Number of Confs>
200

$$$$
PAU-WEI-b9b-1
  -OEChem-03242005443D

 50 52  0     1  0  0  0  0  0999 V2000
    6.6549    2.8531   21.5590 C   0  0  0  0  0  0  0  0  0  0  0  0
    5.8971    1.7674   21.1202 C   0  0  0  0  0  0  0  0  0  0  0  0
    8.0223    2.7016   21.7894 C   0  0  0  0  0  0  0  0  0  0  0  0
   12.5317    0.3748   24.0308 C   0  0  0  0  0  0  0  0  0  0  0  0
    6.5065    0.5302   20.9119 C   0  0  0  0  0  0  0  0  0  0  0  0
    8.6318    1.4643   21.5810 C   0  0  0  0  0  0  0  0  0  0  0  0
   11.1690    0.0849   24.0998 C   0  0  0  0  0  0  0  0  0  0  0  0
   13.3639   -0.3780   23.2023 C   0  0  0  0  0  0  0  0  0  0  0  0
   11.4707   -1.7108   22.5118 C   0  0  0  0  0  0  0  0  0  0  0  0
    7.8739    0.3786   21.1422 C   0  0  0  0  0  0  0  0  0  0  0  0
   10.6386   -0.9579   23.3403 C   0  0  0  0  0  0  0  0  0  0  0  0
   12.8334   -1.4208   22.4429 C   0  0  0  0  0  0  0  0  0  0  0  0
    6.9766   -5.4998   26.2563 C   0  0  0  0  0  0  0  0  0  0  0  0
    7.2132   -2.9715   26.1661 C   0  0  0  0  0  0  0  0  0  0  0  0
    9.0627   -4.4370   25.4620 C   0  0  0  0  0  0  0  0  0  0  0  0
    7.4863   -2.0865   24.9486 C   0  0  0  0  0  0  0  0  0  0  0  0
    9.2962   -3.5282   24.2557 C   0  0  0  0  0  0  0  0  0  0  0  0
    8.5332   -0.9584   20.9175 C   0  0  0  0  0  0  0  0  0  0  0  0
    5.4725   -5.4076   26.2005 C   0  0  0  0  0  0  0  0  0  0  0  0
    8.5612   -1.8949   22.1368 C   0  0  0  0  0  0  0  0  0  0  0  0
    9.1600   -1.2727   23.4167 C   0  0  1  0  0  0  0  0  0  0  0  0
    7.6843   -4.3411   25.9398 N   0  0  0  0  0  0  0  0  0  0  0  0
    8.9036   -2.1450   24.5620 N   0  0  0  0  0  0  0  0  0  0  0  0
    7.5048   -6.5702   26.5677 O   0  0  0  0  0  0  0  0  0  0  0  0
   13.8608   -2.3500   21.4217 Cl  0  0  0  0  0  0  0  0  0  0  0  0
    5.0576   -4.9326   24.5573 Cl  0  0  0  0  0  0  0  0  0  0  0  0
    6.1804    3.8167   21.7199 H   0  0  0  0  0  0  0  0  0  0  0  0
    4.8326    1.8855   20.9398 H   0  0  0  0  0  0  0  0  0  0  0  0
    8.6128    3.5469   22.1299 H   0  0  0  0  0  0  0  0  0  0  0  0
   12.9444    1.1868   24.6225 H   0  0  0  0  0  0  0  0  0  0  0  0
    5.9081   -0.3103   20.5701 H   0  0  0  0  0  0  0  0  0  0  0  0
    9.6977    1.3556   21.7632 H   0  0  0  0  0  0  0  0  0  0  0  0
   10.5281    0.6766   24.7482 H   0  0  0  0  0  0  0  0  0  0  0  0
   14.4240   -0.1409   23.1588 H   0  0  0  0  0  0  0  0  0  0  0  0
   11.0522   -2.5225   21.9213 H   0  0  0  0  0  0  0  0  0  0  0  0
    7.7484   -2.5905   27.0447 H   0  0  0  0  0  0  0  0  0  0  0  0
    6.1470   -2.9425   26.3994 H   0  0  0  0  0  0  0  0  0  0  0  0
    9.3108   -5.4707   25.1996 H   0  0  0  0  0  0  0  0  0  0  0  0
    9.7147   -4.1466   26.2951 H   0  0  0  0  0  0  0  0  0  0  0  0
    6.8385   -2.3950   24.1172 H   0  0  0  0  0  0  0  0  0  0  0  0
    7.2164   -1.0555   25.2075 H   0  0  0  0  0  0  0  0  0  0  0  0
   10.3629   -3.5624   24.0028 H   0  0  0  0  0  0  0  0  0  0  0  0
    8.7419   -3.9135   23.3895 H   0  0  0  0  0  0  0  0  0  0  0  0
    9.5670   -0.7627   20.6029 H   0  0  0  0  0  0  0  0  0  0  0  0
    8.0619   -1.4782   20.0738 H   0  0  0  0  0  0  0  0  0  0  0  0
    5.1406   -4.6505   26.9018 H   0  0  0  0  0  0  0  0  0  0  0  0
    5.0523   -6.3814   26.4240 H   0  0  0  0  0  0  0  0  0  0  0  0
    9.0557   -2.8422   21.8908 H   0  0  0  0  0  0  0  0  0  0  0  0
    7.5162   -2.1593   22.3527 H   0  0  0  0  0  0  0  0  0  0  0  0
    8.6027   -0.3532   23.6354 H   0  0  0  0  0  0  0  0  0  0  0  0
  1  2  1  0  0  0  0
  1  3  2  0  0  0  0
  2  5  2  0  0  0  0
  3  6  1  0  0  0  0
  4  7  2  0  0  0  0
  4  8  1  0  0  0  0
  5 10  1  0  0  0  0
  6 10  2  0  0  0  0
  7 11  1  0  0  0  0
  8 12  2  0  0  0  0
  9 11  2  0  0  0  0
  9 12  1  0  0  0  0
 10 18  1  0  0  0  0
 11 21  1  0  0  0  0
 12 25  1  0  0  0  0
 13 19  1  0  0  0  0
 13 22  1  0  0  0  0
 13 24  2  0  0  0  0
 14 16  1  0  0  0  0
 14 22  1  0  0  0  0
 15 17  1  0  0  0  0
 15 22  1  0  0  0  0
 16 23  1  0  0  0  0
 17 23  1  0  0  0  0
 18 20  1  0  0  0  0
 19 26  1  0  0  0  0
 20 21  1  6  0  0  0
 21 23  1  0  0  0  0
  1 27  1  0  0  0  0
  2 28  1  0  0  0  0
  3 29  1  0  0  0  0
  4 30  1  0  0  0  0
  5 31  1  0  0  0  0
  6 32  1  0  0  0  0
  7 33  1  0  0  0  0
  8 34  1  0  0  0  0
  9 35  1  0  0  0  0
 14 36  1  0  0  0  0
 14 37  1  0  0  0  0
 15 38  1  0  0  0  0
 15 39  1  0  0  0  0
 16 40  1  0  0  0  0
 16 41  1  0  0  0  0
 17 42  1  0  0  0  0
 17 43  1  0  0  0  0
 18 44  1  0  0  0  0
 18 45  1  0  0  0  0
 19 46  1  0  0  0  0
 19 47  1  0  0  0  0
 20 48  1  0  0  0  0
 20 49  1  0  0  0  0
 21 50  1  0  0  0  0
M  END
> <Chemgauss4 Score>
-5.03277826309204

> <Number of Confs>
187

$$$$
JOH-MSK-a63-3
  -OEChem-03242005443D

 54 56  0     1  0  0  0  0  0999 V2000
    6.0766   -4.6212   26.3770 C   0  0  0  0  0  0  0  0  0  0  0  0
    6.6637   -4.2926   25.1496 C   0  0  0  0  0  0  0  0  0  0  0  0
    6.5962   -5.7302   28.6801 C   0  0  0  0  0  0  0  0  0  0  0  0
    8.7913   -5.2303   25.8557 C   0  0  0  0  0  0  0  0  0  0  0  0
    7.7594   -6.2836   29.1636 C   0  0  0  0  0  0  0  0  0  0  0  0
    6.8543   -5.2637   27.3607 C   0  0  0  0  0  0  0  0  0  0  0  0
    8.1910   -5.5528   27.0779 C   0  0  0  0  0  0  0  0  0  0  0  0
    8.0003   -4.5934   24.8951 C   0  0  0  0  0  0  0  0  0  0  0  0
   11.2425   -1.1878   24.8217 C   0  0  0  0  0  0  0  0  0  0  0  0
    6.4261    0.3306   18.7275 C   0  0  0  0  0  0  0  0  0  0  0  0
    8.4803   -2.1357   22.4921 C   0  0  2  0  0  0  0  0  0  0  0  0
    9.1583   -0.1035   23.8057 C   0  0  2  0  0  0  0  0  0  0  0  0
    9.1492   -2.9715   23.5912 C   0  0  1  0  0  0  0  0  0  0  0  0
    9.7438   -1.0381   24.8808 C   0  0  1  0  0  0  0  0  0  0  0  0
    9.1358   -0.7445   22.4007 C   0  0  2  0  0  0  0  0  0  0  0  0
    5.9685    1.3079   17.6961 C   0  0  0  0  0  0  0  0  0  0  0  0
    9.5630   -1.3655   27.1994 C   0  0  0  0  0  0  0  0  0  0  0  0
    8.4216    0.1511   21.3812 C   0  0  0  0  0  0  0  0  0  0  0  0
    8.4264   -0.4460   19.9837 C   0  0  0  0  0  0  0  0  0  0  0  0
    8.7157   -6.1716   28.1902 N   0  0  0  0  0  0  0  0  0  0  0  0
    7.7795    0.4013   19.0206 N   0  0  0  0  0  0  0  0  0  0  0  0
   11.8362   -2.2417   24.6486 O   0  0  0  0  0  0  0  0  0  0  0  0
    5.6168   -0.4390   19.2318 O   0  0  0  0  0  0  0  0  0  0  0  0
    9.1041   -2.3075   24.8553 O   0  0  0  0  0  0  0  0  0  0  0  0
   11.8504    0.0119   24.9903 O   0  0  0  0  0  0  0  0  0  0  0  0
    7.0929   -1.9811   22.7926 O   0  0  0  0  0  0  0  0  0  0  0  0
    9.8659    1.1352   23.8016 O   0  0  0  0  0  0  0  0  0  0  0  0
   10.4841   -0.9081   21.9472 O   0  0  0  0  0  0  0  0  0  0  0  0
    8.5488   -4.2609   23.6867 O   0  0  0  0  0  0  0  0  0  0  0  0
    9.5141   -0.4160   26.1487 O   0  0  0  0  0  0  0  0  0  0  0  0
    5.0336   -4.3809   26.5621 H   0  0  0  0  0  0  0  0  0  0  0  0
    6.0629   -3.7968   24.3909 H   0  0  0  0  0  0  0  0  0  0  0  0
    5.6605   -5.6686   29.2187 H   0  0  0  0  0  0  0  0  0  0  0  0
    9.8326   -5.4664   25.6616 H   0  0  0  0  0  0  0  0  0  0  0  0
    7.9913   -6.7462   30.1125 H   0  0  0  0  0  0  0  0  0  0  0  0
    8.5564   -2.6699   21.5372 H   0  0  0  0  0  0  0  0  0  0  0  0
    8.1252    0.1323   24.0975 H   0  0  0  0  0  0  0  0  0  0  0  0
   10.2170   -3.1415   23.3300 H   0  0  0  0  0  0  0  0  0  0  0  0
    6.0336    0.9018   16.6739 H   0  0  0  0  0  0  0  0  0  0  0  0
    4.9131    1.5956   17.8284 H   0  0  0  0  0  0  0  0  0  0  0  0
    6.5260    2.2577   17.6666 H   0  0  0  0  0  0  0  0  0  0  0  0
    9.3847   -0.8637   28.1536 H   0  0  0  0  0  0  0  0  0  0  0  0
   10.5424   -1.8506   27.2081 H   0  0  0  0  0  0  0  0  0  0  0  0
    8.7876   -2.1175   27.0353 H   0  0  0  0  0  0  0  0  0  0  0  0
    8.9309    1.1177   21.3633 H   0  0  0  0  0  0  0  0  0  0  0  0
    7.3975    0.3212   21.7229 H   0  0  0  0  0  0  0  0  0  0  0  0
    9.4585   -0.5838   19.6464 H   0  0  0  0  0  0  0  0  0  0  0  0
    7.9279   -1.4202   19.9617 H   0  0  0  0  0  0  0  0  0  0  0  0
    9.6690   -6.4962   28.2750 H   0  0  0  0  0  0  0  0  0  0  0  0
    8.3453    1.0908   18.5266 H   0  0  0  0  0  0  0  0  0  0  0  0
   12.8279   -0.0648   24.9569 H   0  0  0  0  0  0  0  0  0  0  0  0
    7.0478   -1.5299   23.6487 H   0  0  0  0  0  0  0  0  0  0  0  0
    9.4599    1.6823   23.1116 H   0  0  0  0  0  0  0  0  0  0  0  0
   10.8626   -0.0186   21.9020 H   0  0  0  0  0  0  0  0  0  0  0  0
  1  2  2  0  0  0  0
  1  6  1  0  0  0  0
  2  8  1  0  0  0  0
  3  5  2  0  0  0  0
  3  6  1  0  0  0  0
  4  7  1  0  0  0  0
  4  8  2  0  0  0  0
  5 20  1  0  0  0  0
  6  7  2  0  0  0  0
  7 20  1  0  0  0  0
  8 29  1  0  0  0  0
  9 14  1  1  0  0  0
  9 22  2  0  0  0  0
  9 25  1  0  0  0  0
 10 16  1  0  0  0  0
 10 21  1  0  0  0  0
 10 23  2  0  0  0  0
 11 13  1  0  0  0  0
 11 15  1  0  0  0  0
 11 26  1  1  0  0  0
 12 14  1  0  0  0  0
 12 15  1  0  0  0  0
 12 27  1  6  0  0  0
 13 24  1  0  0  0  0
 13 29  1  1  0  0  0
 14 24  1  0  0  0  0
 14 30  1  0  0  0  0
 15 18  1  0  0  0  0
 15 28  1  6  0  0  0
 17 30  1  0  0  0  0
 18 19  1  0  0  0  0
 19 21  1  0  0  0  0
  1 31  1  0  0  0  0
  2 32  1  0  0  0  0
  3 33  1  0  0  0  0
  4 34  1  0  0  0  0
  5 35  1  0  0  0  0
 11 36  1  0  0  0  0
 12 37  1  0  0  0  0
 13 38  1  0  0  0  0
 16 39  1  0  0  0  0
 16 40  1  0  0  0  0
 16 41  1  0  0  0  0
 17 42  1  0  0  0  0
 17 43  1  0  0  0  0
 17 44  1  0  0  0  0
 18 45  1  0  0  0  0
 18 46  1  0  0  0  0
 19 47  1  0  0  0  0
 19 48  1  0  0  0  0
 20 49  1  0  0  0  0
 21 50  1  0  0  0  0
 25 51  1  0  0  0  0
 26 52  1  0  0  0  0
 27 53  1  0  0  0  0
 28 54  1  0  0  0  0
M  END
> <Chemgauss4 Score>
-5.02974891662598

> <Number of Confs>
200

$$$$
DAR-DIA-fc9-4
  -OEChem-03242005443D

 35 37  0     1  0  0  0  0  0999 V2000
   12.8329   -0.0761   23.0219 C   0  0  0  0  0  0  0  0  0  0  0  0
   12.2931   -0.9301   22.0602 C   0  0  0  0  0  0  0  0  0  0  0  0
   12.1419    0.1620   24.2099 C   0  0  0  0  0  0  0  0  0  0  0  0
    9.7657   -4.8015   27.3750 C   0  0  0  0  0  0  0  0  0  0  0  0
    9.0460   -4.5116   26.2212 C   0  0  0  0  0  0  0  0  0  0  0  0
   11.0622   -1.5460   22.2865 C   0  0  0  0  0  0  0  0  0  0  0  0
   10.9110   -0.4538   24.4362 C   0  0  0  0  0  0  0  0  0  0  0  0
    9.2735   -4.3311   28.5818 C   0  0  0  0  0  0  0  0  0  0  0  0
    7.4651   -3.3465   27.5627 C   0  0  0  0  0  0  0  0  0  0  0  0
    7.8727   -3.7706   26.3082 C   0  0  0  0  0  0  0  0  0  0  0  0
   10.3711   -1.3079   23.4745 C   0  0  0  0  0  0  0  0  0  0  0  0
    8.7905   -3.2055   23.1601 C   0  0  0  0  0  0  0  0  0  0  0  0
    7.5872   -3.9451   23.7235 C   0  0  0  0  0  0  0  0  0  0  0  0
    6.8307   -1.9395   24.8898 C   0  0  0  0  0  0  0  0  0  0  0  0
    8.1179   -1.2071   24.5365 C   0  0  0  0  0  0  0  0  0  0  0  0
    7.0614   -3.4371   25.0634 C   0  0  2  0  0  0  0  0  0  0  0  0
    8.1377   -3.6085   28.7058 N   0  0  0  0  0  0  0  0  0  0  0  0
    9.0884   -1.9499   23.7102 N   0  0  0  0  0  0  0  0  0  0  0  0
    9.4017   -3.7440   22.2322 O   0  0  0  0  0  0  0  0  0  0  0  0
   13.7917    0.4031   22.8463 H   0  0  0  0  0  0  0  0  0  0  0  0
   12.8313   -1.1164   21.1355 H   0  0  0  0  0  0  0  0  0  0  0  0
   12.5629    0.8264   24.9590 H   0  0  0  0  0  0  0  0  0  0  0  0
   10.6828   -5.3777   27.3312 H   0  0  0  0  0  0  0  0  0  0  0  0
    9.4065   -4.8670   25.2597 H   0  0  0  0  0  0  0  0  0  0  0  0
   10.6514   -2.2098   21.5298 H   0  0  0  0  0  0  0  0  0  0  0  0
   10.3814   -0.2609   25.3659 H   0  0  0  0  0  0  0  0  0  0  0  0
    9.7983   -4.5301   29.5104 H   0  0  0  0  0  0  0  0  0  0  0  0
    6.5576   -2.7650   27.6927 H   0  0  0  0  0  0  0  0  0  0  0  0
    6.7795   -3.8925   22.9700 H   0  0  0  0  0  0  0  0  0  0  0  0
    7.8683   -5.0132   23.7911 H   0  0  0  0  0  0  0  0  0  0  0  0
    6.3987   -1.5026   25.8119 H   0  0  0  0  0  0  0  0  0  0  0  0
    6.0782   -1.7531   24.0999 H   0  0  0  0  0  0  0  0  0  0  0  0
    7.8709   -0.2870   23.9791 H   0  0  0  0  0  0  0  0  0  0  0  0
    8.6245   -0.8928   25.4648 H   0  0  0  0  0  0  0  0  0  0  0  0
    6.0286   -3.9042   25.2300 H   0  0  0  0  0  0  0  0  0  0  0  0
  1  2  1  0  0  0  0
  1  3  2  0  0  0  0
  2  6  2  0  0  0  0
  3  7  1  0  0  0  0
  4  5  2  0  0  0  0
  4  8  1  0  0  0  0
  5 10  1  0  0  0  0
  6 11  1  0  0  0  0
  7 11  2  0  0  0  0
  8 17  2  0  0  0  0
  9 10  2  0  0  0  0
  9 17  1  0  0  0  0
 10 16  1  1  0  0  0
 11 18  1  0  0  0  0
 12 13  1  0  0  0  0
 12 18  1  0  0  0  0
 12 19  2  0  0  0  0
 13 16  1  0  0  0  0
 14 15  1  0  0  0  0
 14 16  1  0  0  0  0
 15 18  1  0  0  0  0
  1 20  1  0  0  0  0
  2 21  1  0  0  0  0
  3 22  1  0  0  0  0
  4 23  1  0  0  0  0
  5 24  1  0  0  0  0
  6 25  1  0  0  0  0
  7 26  1  0  0  0  0
  8 27  1  0  0  0  0
  9 28  1  0  0  0  0
 13 29  1  0  0  0  0
 13 30  1  0  0  0  0
 14 31  1  0  0  0  0
 14 32  1  0  0  0  0
 15 33  1  0  0  0  0
 15 34  1  0  0  0  0
 16 35  1  0  0  0  0
M  END
> <Chemgauss4 Score>
-5.02967643737793

> <Number of Confs>
28

$$$$
JOH-MEM-5e3-5
  -OEChem-03242005443D

 48 51  0     1  0  0  0  0  0999 V2000
   10.9756   -1.8297   22.7047 C   0  0  0  0  0  0  0  0  0  0  0  0
   11.3181   -1.9288   24.0566 C   0  0  0  0  0  0  0  0  0  0  0  0
    9.3331   -0.6928   24.7183 C   0  0  0  0  0  0  0  0  0  0  0  0
    8.9645   -0.5777   23.3652 C   0  0  0  0  0  0  0  0  0  0  0  0
    7.8919    0.0094   22.6728 C   0  0  0  0  0  0  0  0  0  0  0  0
    9.7955   -1.1505   22.3800 C   0  0  0  0  0  0  0  0  0  0  0  0
   10.5122   -1.3708   25.0477 C   0  0  0  0  0  0  0  0  0  0  0  0
    8.0863   -0.2101   21.3425 C   0  0  0  0  0  0  0  0  0  0  0  0
    9.7143   -6.0006   25.7706 C   0  0  0  0  0  0  0  0  0  0  0  0
    7.0977    0.2134   19.1793 C   0  0  0  0  0  0  0  0  0  0  0  0
    6.6441    0.7745   22.9153 C   0  0  0  0  0  0  0  0  0  0  0  0
    6.0998    0.9848   21.4531 C   0  0  0  0  0  0  0  0  0  0  0  0
    9.7556   -4.8983   26.8069 C   0  0  2  0  0  0  0  0  0  0  0  0
    8.3509   -4.6528   27.3436 C   0  0  1  0  0  0  0  0  0  0  0  0
    8.3927   -3.4886   28.3352 C   0  0  1  0  0  0  0  0  0  0  0  0
    9.0572   -2.2601   27.7062 C   0  0  2  0  0  0  0  0  0  0  0  0
   10.3987   -2.6307   27.0631 C   0  0  1  0  0  0  0  0  0  0  0  0
    5.9166    0.8669   18.5064 C   0  0  0  0  0  0  0  0  0  0  0  0
    9.2243   -0.9055   21.1369 N   0  0  0  0  0  0  0  0  0  0  0  0
    7.0979    0.3193   20.5539 N   0  0  0  0  0  0  0  0  0  0  0  0
   10.0366   -5.8745   24.5986 O   0  0  0  0  0  0  0  0  0  0  0  0
    7.9589   -0.3529   18.5056 O   0  0  0  0  0  0  0  0  0  0  0  0
   10.2535   -3.7288   26.1618 O   0  0  0  0  0  0  0  0  0  0  0  0
    9.2659   -7.1564   26.3187 O   0  0  0  0  0  0  0  0  0  0  0  0
    7.4893   -4.3107   26.2535 O   0  0  0  0  0  0  0  0  0  0  0  0
    7.0625   -3.1801   28.7418 O   0  0  0  0  0  0  0  0  0  0  0  0
    9.3031   -1.2831   28.7174 O   0  0  0  0  0  0  0  0  0  0  0  0
   10.8761   -1.4862   26.3564 O   0  0  0  0  0  0  0  0  0  0  0  0
   11.6061   -2.2656   21.9368 H   0  0  0  0  0  0  0  0  0  0  0  0
   12.2310   -2.4521   24.3319 H   0  0  0  0  0  0  0  0  0  0  0  0
    8.7113   -0.2610   25.4978 H   0  0  0  0  0  0  0  0  0  0  0  0
    5.9319    0.2016   23.5163 H   0  0  0  0  0  0  0  0  0  0  0  0
    6.8494    1.7358   23.3953 H   0  0  0  0  0  0  0  0  0  0  0  0
    5.1211    0.5150   21.3115 H   0  0  0  0  0  0  0  0  0  0  0  0
    6.0337    2.0459   21.1919 H   0  0  0  0  0  0  0  0  0  0  0  0
   10.4338   -5.2185   27.5997 H   0  0  0  0  0  0  0  0  0  0  0  0
    7.9360   -5.5521   27.8107 H   0  0  0  0  0  0  0  0  0  0  0  0
    8.9404   -3.7913   29.2358 H   0  0  0  0  0  0  0  0  0  0  0  0
    8.3897   -1.7966   26.9704 H   0  0  0  0  0  0  0  0  0  0  0  0
   11.1433   -2.8752   27.8313 H   0  0  0  0  0  0  0  0  0  0  0  0
    6.1634    1.8989   18.2805 H   0  0  0  0  0  0  0  0  0  0  0  0
    5.0613    0.8274   19.1732 H   0  0  0  0  0  0  0  0  0  0  0  0
    5.6885    0.3308   17.5909 H   0  0  0  0  0  0  0  0  0  0  0  0
    9.6040   -1.2010   20.2473 H   0  0  0  0  0  0  0  0  0  0  0  0
    9.2300   -7.8838   25.6615 H   0  0  0  0  0  0  0  0  0  0  0  0
    7.8593   -3.5085   25.8572 H   0  0  0  0  0  0  0  0  0  0  0  0
    6.7073   -3.9812   29.1575 H   0  0  0  0  0  0  0  0  0  0  0  0
    9.8898   -1.7011   29.3658 H   0  0  0  0  0  0  0  0  0  0  0  0
  1  2  2  0  0  0  0
  1  6  1  0  0  0  0
  2  7  1  0  0  0  0
  3  4  1  0  0  0  0
  3  7  2  0  0  0  0
  4  5  1  0  0  0  0
  4  6  2  0  0  0  0
  5  8  2  0  0  0  0
  5 11  1  0  0  0  0
  6 19  1  0  0  0  0
  7 28  1  0  0  0  0
  8 19  1  0  0  0  0
  8 20  1  0  0  0  0
  9 13  1  6  0  0  0
  9 21  2  0  0  0  0
  9 24  1  0  0  0  0
 10 18  1  0  0  0  0
 10 20  1  0  0  0  0
 10 22  2  0  0  0  0
 11 12  1  0  0  0  0
 12 20  1  0  0  0  0
 13 14  1  0  0  0  0
 13 23  1  0  0  0  0
 14 15  1  0  0  0  0
 14 25  1  6  0  0  0
 15 16  1  0  0  0  0
 15 26  1  6  0  0  0
 16 17  1  0  0  0  0
 16 27  1  1  0  0  0
 17 23  1  0  0  0  0
 17 28  1  1  0  0  0
  1 29  1  0  0  0  0
  2 30  1  0  0  0  0
  3 31  1  0  0  0  0
 11 32  1  0  0  0  0
 11 33  1  0  0  0  0
 12 34  1  0  0  0  0
 12 35  1  0  0  0  0
 13 36  1  0  0  0  0
 14 37  1  0  0  0  0
 15 38  1  0  0  0  0
 16 39  1  0  0  0  0
 17 40  1  0  0  0  0
 18 41  1  0  0  0  0
 18 42  1  0  0  0  0
 18 43  1  0  0  0  0
 19 44  1  0  0  0  0
 24 45  1  0  0  0  0
 25 46  1  0  0  0  0
 26 47  1  0  0  0  0
 27 48  1  0  0  0  0
M  END
> <Chemgauss4 Score>
-5.02173471450806

> <Number of Confs>
71

$$$$
DAR-DIA-fc9-2
  -OEChem-03242005443D

 34 36  0     1  0  0  0  0  0999 V2000
    6.8406   -6.3812   26.7560 C   0  0  0  0  0  0  0  0  0  0  0  0
    6.6871   -5.9544   25.4370 C   0  0  0  0  0  0  0  0  0  0  0  0
    7.6576   -5.6645   27.6305 C   0  0  0  0  0  0  0  0  0  0  0  0
   13.6112   -0.2254   22.6996 C   0  0  0  0  0  0  0  0  0  0  0  0
   12.5698    0.0432   23.5808 C   0  0  0  0  0  0  0  0  0  0  0  0
    7.3507   -4.8109   24.9923 C   0  0  0  0  0  0  0  0  0  0  0  0
    8.3212   -4.5210   27.1858 C   0  0  0  0  0  0  0  0  0  0  0  0
   13.5189   -1.3630   21.9141 C   0  0  0  0  0  0  0  0  0  0  0  0
   11.4862   -1.9326   22.8205 C   0  0  0  0  0  0  0  0  0  0  0  0
   11.4833   -0.8218   23.6487 C   0  0  0  0  0  0  0  0  0  0  0  0
    8.1677   -4.0942   25.8667 C   0  0  0  0  0  0  0  0  0  0  0  0
    8.3142   -2.0933   24.3871 C   0  0  0  0  0  0  0  0  0  0  0  0
   10.5424   -1.1737   25.9736 C   0  0  0  0  0  0  0  0  0  0  0  0
   10.1987   -2.6539   25.9508 C   0  0  0  0  0  0  0  0  0  0  0  0
   10.3296   -0.5559   24.6004 C   0  0  2  0  0  0  0  0  0  0  0  0
   12.4796   -2.2267   21.9520 N   0  0  0  0  0  0  0  0  0  0  0  0
    9.0402   -0.9574   24.0573 N   0  0  0  0  0  0  0  0  0  0  0  0
    8.8554   -2.9087   25.4055 N   0  0  0  0  0  0  0  0  0  0  0  0
    7.2727   -2.3274   23.7665 O   0  0  0  0  0  0  0  0  0  0  0  0
    6.3234   -7.2711   27.1029 H   0  0  0  0  0  0  0  0  0  0  0  0
    6.0504   -6.5116   24.7562 H   0  0  0  0  0  0  0  0  0  0  0  0
    7.7761   -5.9966   28.6578 H   0  0  0  0  0  0  0  0  0  0  0  0
   14.4680    0.4350   22.6296 H   0  0  0  0  0  0  0  0  0  0  0  0
   12.6132    0.9280   24.2101 H   0  0  0  0  0  0  0  0  0  0  0  0
    7.2234   -4.4877   23.9622 H   0  0  0  0  0  0  0  0  0  0  0  0
    8.9553   -3.9704   27.8762 H   0  0  0  0  0  0  0  0  0  0  0  0
   14.3055   -1.6170   21.2110 H   0  0  0  0  0  0  0  0  0  0  0  0
   10.6654   -2.6431   22.8292 H   0  0  0  0  0  0  0  0  0  0  0  0
    9.9189   -0.6600   26.7265 H   0  0  0  0  0  0  0  0  0  0  0  0
   11.5874   -1.0389   26.3094 H   0  0  0  0  0  0  0  0  0  0  0  0
   10.9364   -3.1949   25.3460 H   0  0  0  0  0  0  0  0  0  0  0  0
   10.2205   -3.0674   26.9669 H   0  0  0  0  0  0  0  0  0  0  0  0
   10.2643    0.5595   24.7135 H   0  0  0  0  0  0  0  0  0  0  0  0
    8.6250   -0.3367   23.3585 H   0  0  0  0  0  0  0  0  0  0  0  0
  1  2  1  0  0  0  0
  1  3  2  0  0  0  0
  2  6  2  0  0  0  0
  3  7  1  0  0  0  0
  4  5  2  0  0  0  0
  4  8  1  0  0  0  0
  5 10  1  0  0  0  0
  6 11  1  0  0  0  0
  7 11  2  0  0  0  0
  8 16  2  0  0  0  0
  9 10  2  0  0  0  0
  9 16  1  0  0  0  0
 10 15  1  6  0  0  0
 11 18  1  0  0  0  0
 12 17  1  0  0  0  0
 12 18  1  0  0  0  0
 12 19  2  0  0  0  0
 13 14  1  0  0  0  0
 13 15  1  0  0  0  0
 14 18  1  0  0  0  0
 15 17  1  0  0  0  0
  1 20  1  0  0  0  0
  2 21  1  0  0  0  0
  3 22  1  0  0  0  0
  4 23  1  0  0  0  0
  5 24  1  0  0  0  0
  6 25  1  0  0  0  0
  7 26  1  0  0  0  0
  8 27  1  0  0  0  0
  9 28  1  0  0  0  0
 13 29  1  0  0  0  0
 13 30  1  0  0  0  0
 14 31  1  0  0  0  0
 14 32  1  0  0  0  0
 15 33  1  0  0  0  0
 17 34  1  0  0  0  0
M  END
> <Chemgauss4 Score>
-5.02093076705933

> <Number of Confs>
27

$$$$
DAV-AUT-fa2-4
  -OEChem-03242005443D

 45 47  0     1  0  0  0  0  0999 V2000
    6.7190   -3.6100   23.2496 C   0  0  0  0  0  0  0  0  0  0  0  0
    6.2292   -2.7816   22.2444 C   0  0  0  0  0  0  0  0  0  0  0  0
    8.3749   -1.6954   22.1282 C   0  0  0  0  0  0  0  0  0  0  0  0
    8.0395   -3.4810   23.7261 C   0  0  0  0  0  0  0  0  0  0  0  0
    8.9109   -2.5262   23.1361 C   0  0  0  0  0  0  0  0  0  0  0  0
    7.0550   -1.8180   21.6894 C   0  0  0  0  0  0  0  0  0  0  0  0
   12.3174   -2.2082   22.2697 C   0  0  0  0  0  0  0  0  0  0  0  0
   11.6533   -0.4400   23.9227 C   0  0  0  0  0  0  0  0  0  0  0  0
   10.8189   -3.4603   24.3744 C   0  0  0  0  0  0  0  0  0  0  0  0
   13.3333   -1.2143   21.7215 C   0  0  0  0  0  0  0  0  0  0  0  0
   12.7051    0.4556   23.2807 C   0  0  0  0  0  0  0  0  0  0  0  0
    8.5329   -4.4131   24.8264 C   0  0  1  0  0  0  0  0  0  0  0  0
   11.1430   -1.4764   22.9203 C   0  0  0  0  0  0  0  0  0  0  0  0
    9.8357   -3.8986   25.4355 C   0  0  0  0  0  0  0  0  0  0  0  0
    7.5180   -4.6612   25.9510 C   0  0  0  0  0  0  0  0  0  0  0  0
    7.8013    0.3126   20.0084 C   0  0  0  0  0  0  0  0  0  0  0  0
    6.1727   -1.6524   19.2047 N   0  0  0  0  0  0  0  0  0  0  0  0
   10.2401   -2.4080   23.5488 N   0  0  1  0  0  0  0  0  0  0  0  0
    5.4597    0.1257   21.0559 O   0  0  0  0  0  0  0  0  0  0  0  0
   13.7748   -0.3239   22.7462 O   0  0  0  0  0  0  0  0  0  0  0  0
    9.5914   -2.8597   26.2752 F   0  0  0  0  0  0  0  0  0  0  0  0
   10.4044   -4.8763   26.1870 F   0  0  0  0  0  0  0  0  0  0  0  0
    6.4465   -0.7590   20.4421 S   0  0  1  0  0  0  0  0  0  0  0  0
    6.0605   -4.3703   23.6707 H   0  0  0  0  0  0  0  0  0  0  0  0
    5.2030   -2.9006   21.9059 H   0  0  0  0  0  0  0  0  0  0  0  0
    8.9912   -0.9277   21.6641 H   0  0  0  0  0  0  0  0  0  0  0  0
   11.9261   -2.7997   21.4363 H   0  0  0  0  0  0  0  0  0  0  0  0
   12.7917   -2.9005   22.9684 H   0  0  0  0  0  0  0  0  0  0  0  0
   12.0458   -0.9150   24.8227 H   0  0  0  0  0  0  0  0  0  0  0  0
   10.8057    0.1826   24.2220 H   0  0  0  0  0  0  0  0  0  0  0  0
   11.7522   -3.1122   24.8243 H   0  0  0  0  0  0  0  0  0  0  0  0
   11.0671   -4.3274   23.7556 H   0  0  0  0  0  0  0  0  0  0  0  0
   14.1993   -1.7206   21.2784 H   0  0  0  0  0  0  0  0  0  0  0  0
   12.8712   -0.6093   20.9342 H   0  0  0  0  0  0  0  0  0  0  0  0
   12.2591    1.0175   22.4541 H   0  0  0  0  0  0  0  0  0  0  0  0
   13.1060    1.1843   23.9943 H   0  0  0  0  0  0  0  0  0  0  0  0
    8.7815   -5.4023   24.3764 H   0  0  0  0  0  0  0  0  0  0  0  0
   10.5758   -0.9462   22.1243 H   0  0  0  0  0  0  0  0  0  0  0  0
    7.2505   -3.7154   26.4154 H   0  0  0  0  0  0  0  0  0  0  0  0
    7.9557   -5.3186   26.6980 H   0  0  0  0  0  0  0  0  0  0  0  0
    6.6254   -5.1262   25.5399 H   0  0  0  0  0  0  0  0  0  0  0  0
    7.4638    0.9955   19.2271 H   0  0  0  0  0  0  0  0  0  0  0  0
    8.0999    0.8678   20.8988 H   0  0  0  0  0  0  0  0  0  0  0  0
    8.6259   -0.3039   19.6474 H   0  0  0  0  0  0  0  0  0  0  0  0
    5.8079   -1.1364   18.3985 H   0  0  0  0  0  0  0  0  0  0  0  0
  1  2  2  0  0  0  0
  1  4  1  0  0  0  0
  2  6  1  0  0  0  0
  3  5  1  0  0  0  0
  3  6  2  0  0  0  0
  4  5  2  0  0  0  0
  4 12  1  0  0  0  0
  5 18  1  0  0  0  0
  6 23  1  0  0  0  0
  7 10  1  0  0  0  0
  7 13  1  0  0  0  0
  8 11  1  0  0  0  0
  8 13  1  0  0  0  0
  9 14  1  0  0  0  0
  9 18  1  0  0  0  0
 10 20  1  0  0  0  0
 11 20  1  0  0  0  0
 12 14  1  0  0  0  0
 12 15  1  0  0  0  0
 13 18  1  1  0  0  0
 14 21  1  0  0  0  0
 14 22  1  0  0  0  0
 16 23  1  6  0  0  0
 17 23  2  0  0  0  0
 19 23  2  0  0  0  0
  1 24  1  0  0  0  0
  2 25  1  0  0  0  0
  3 26  1  0  0  0  0
  7 27  1  0  0  0  0
  7 28  1  0  0  0  0
  8 29  1  0  0  0  0
  8 30  1  0  0  0  0
  9 31  1  0  0  0  0
  9 32  1  0  0  0  0
 10 33  1  0  0  0  0
 10 34  1  0  0  0  0
 11 35  1  0  0  0  0
 11 36  1  0  0  0  0
 12 37  1  1  0  0  0
 13 38  1  0  0  0  0
 15 39  1  0  0  0  0
 15 40  1  0  0  0  0
 15 41  1  0  0  0  0
 16 42  1  0  0  0  0
 16 43  1  0  0  0  0
 16 44  1  0  0  0  0
 17 45  1  0  0  0  0
M  END
> <Chemgauss4 Score>
-5.01771545410156

> <Number of Confs>
13

$$$$
ANT-DIA-b7f-8
  -OEChem-03242005443D

 35 35  0     0  0  0  0  0  0999 V2000
   12.0807   -1.2780   22.4942 C   0  0  0  0  0  0  0  0  0  0  0  0
    9.6581   -1.1475   22.8018 C   0  0  0  0  0  0  0  0  0  0  0  0
    8.4691   -1.6766   23.3037 C   0  0  0  0  0  0  0  0  0  0  0  0
   10.8787   -3.0196   23.7197 C   0  0  0  0  0  0  0  0  0  0  0  0
   10.8629   -1.8190   23.0098 C   0  0  0  0  0  0  0  0  0  0  0  0
    9.6896   -3.5488   24.2216 C   0  0  0  0  0  0  0  0  0  0  0  0
    8.4848   -2.8772   24.0135 C   0  0  0  0  0  0  0  0  0  0  0  0
    4.9496   -4.0206   24.3457 C   0  0  0  0  0  0  0  0  0  0  0  0
    7.1000   -3.0230   28.3109 C   0  0  0  0  0  0  0  0  0  0  0  0
    9.7357   -4.8489   24.9861 C   0  0  0  0  0  0  0  0  0  0  0  0
    5.9935   -3.0137   24.0004 C   0  0  0  0  0  0  0  0  0  0  0  0
   10.2666   -4.6850   26.4082 C   0  0  0  0  0  0  0  0  0  0  0  0
   13.0699   -0.8386   22.0754 N   0  0  0  0  0  0  0  0  0  0  0  0
    7.2711   -3.3992   24.5121 N   0  0  0  0  0  0  0  0  0  0  0  0
    9.4291   -3.7883   27.2248 N   0  0  0  0  0  0  0  0  0  0  0  0
    8.6247   -4.8131   29.4603 O   0  0  0  0  0  0  0  0  0  0  0  0
    7.4415   -5.4101   27.3155 O   0  0  0  0  0  0  0  0  0  0  0  0
    8.1485   -4.4491   28.1402 S   0  0  0  0  0  0  0  0  0  0  0  0
    9.6293   -0.2120   22.2478 H   0  0  0  0  0  0  0  0  0  0  0  0
    7.5361   -1.1455   23.1339 H   0  0  0  0  0  0  0  0  0  0  0  0
   11.8161   -3.5467   23.8855 H   0  0  0  0  0  0  0  0  0  0  0  0
    4.8795   -4.1165   25.4393 H   0  0  0  0  0  0  0  0  0  0  0  0
    3.9790   -3.6950   23.9433 H   0  0  0  0  0  0  0  0  0  0  0  0
    5.2200   -4.9933   23.9090 H   0  0  0  0  0  0  0  0  0  0  0  0
    6.2208   -3.3094   28.8901 H   0  0  0  0  0  0  0  0  0  0  0  0
    7.6611   -2.2430   28.8277 H   0  0  0  0  0  0  0  0  0  0  0  0
    6.8090   -2.6884   27.3140 H   0  0  0  0  0  0  0  0  0  0  0  0
   10.3761   -5.5520   24.4388 H   0  0  0  0  0  0  0  0  0  0  0  0
    8.7368   -5.3032   25.0060 H   0  0  0  0  0  0  0  0  0  0  0  0
    6.0574   -2.9237   22.9059 H   0  0  0  0  0  0  0  0  0  0  0  0
    5.7119   -2.0421   24.4324 H   0  0  0  0  0  0  0  0  0  0  0  0
   10.2788   -5.6547   26.9158 H   0  0  0  0  0  0  0  0  0  0  0  0
   11.2852   -4.2831   26.4153 H   0  0  0  0  0  0  0  0  0  0  0  0
    7.3371   -4.0655   25.2572 H   0  0  0  0  0  0  0  0  0  0  0  0
    9.9443   -3.0038   27.6450 H   0  0  0  0  0  0  0  0  0  0  0  0
  1  5  1  0  0  0  0
  1 13  3  0  0  0  0
  2  3  2  0  0  0  0
  2  5  1  0  0  0  0
  3  7  1  0  0  0  0
  4  5  2  0  0  0  0
  4  6  1  0  0  0  0
  6  7  2  0  0  0  0
  6 10  1  0  0  0  0
  7 14  1  0  0  0  0
  8 11  1  0  0  0  0
  9 18  1  0  0  0  0
 10 12  1  0  0  0  0
 11 14  1  0  0  0  0
 12 15  1  0  0  0  0
 15 18  1  0  0  0  0
 16 18  2  0  0  0  0
 17 18  2  0  0  0  0
  2 19  1  0  0  0  0
  3 20  1  0  0  0  0
  4 21  1  0  0  0  0
  8 22  1  0  0  0  0
  8 23  1  0  0  0  0
  8 24  1  0  0  0  0
  9 25  1  0  0  0  0
  9 26  1  0  0  0  0
  9 27  1  0  0  0  0
 10 28  1  0  0  0  0
 10 29  1  0  0  0  0
 11 30  1  0  0  0  0
 11 31  1  0  0  0  0
 12 32  1  0  0  0  0
 12 33  1  0  0  0  0
 14 34  1  0  0  0  0
 15 35  1  0  0  0  0
M  END
> <Chemgauss4 Score>
-5.01636123657227

> <Number of Confs>
200

$$$$
ROB-UNI-b2e-4
  -OEChem-03242005443D

 35 35  0     0  0  0  0  0  0999 V2000
   12.0807   -1.2780   22.4942 C   0  0  0  0  0  0  0  0  0  0  0  0
    9.6581   -1.1475   22.8018 C   0  0  0  0  0  0  0  0  0  0  0  0
    8.4691   -1.6766   23.3037 C   0  0  0  0  0  0  0  0  0  0  0  0
   10.8787   -3.0196   23.7197 C   0  0  0  0  0  0  0  0  0  0  0  0
   10.8629   -1.8190   23.0098 C   0  0  0  0  0  0  0  0  0  0  0  0
    9.6896   -3.5488   24.2216 C   0  0  0  0  0  0  0  0  0  0  0  0
    8.4848   -2.8772   24.0135 C   0  0  0  0  0  0  0  0  0  0  0  0
    4.9496   -4.0206   24.3457 C   0  0  0  0  0  0  0  0  0  0  0  0
    7.1000   -3.0230   28.3109 C   0  0  0  0  0  0  0  0  0  0  0  0
    9.7357   -4.8489   24.9861 C   0  0  0  0  0  0  0  0  0  0  0  0
    5.9935   -3.0137   24.0004 C   0  0  0  0  0  0  0  0  0  0  0  0
   10.2666   -4.6850   26.4082 C   0  0  0  0  0  0  0  0  0  0  0  0
   13.0699   -0.8386   22.0754 N   0  0  0  0  0  0  0  0  0  0  0  0
    7.2711   -3.3992   24.5121 N   0  0  0  0  0  0  0  0  0  0  0  0
    9.4291   -3.7883   27.2248 N   0  0  0  0  0  0  0  0  0  0  0  0
    8.6247   -4.8131   29.4603 O   0  0  0  0  0  0  0  0  0  0  0  0
    7.4415   -5.4101   27.3155 O   0  0  0  0  0  0  0  0  0  0  0  0
    8.1485   -4.4491   28.1402 S   0  0  0  0  0  0  0  0  0  0  0  0
    9.6293   -0.2120   22.2478 H   0  0  0  0  0  0  0  0  0  0  0  0
    7.5361   -1.1455   23.1339 H   0  0  0  0  0  0  0  0  0  0  0  0
   11.8161   -3.5467   23.8855 H   0  0  0  0  0  0  0  0  0  0  0  0
    4.8795   -4.1165   25.4393 H   0  0  0  0  0  0  0  0  0  0  0  0
    3.9790   -3.6950   23.9433 H   0  0  0  0  0  0  0  0  0  0  0  0
    5.2200   -4.9933   23.9090 H   0  0  0  0  0  0  0  0  0  0  0  0
    6.2208   -3.3094   28.8901 H   0  0  0  0  0  0  0  0  0  0  0  0
    7.6611   -2.2430   28.8277 H   0  0  0  0  0  0  0  0  0  0  0  0
    6.8090   -2.6884   27.3140 H   0  0  0  0  0  0  0  0  0  0  0  0
   10.3761   -5.5520   24.4388 H   0  0  0  0  0  0  0  0  0  0  0  0
    8.7368   -5.3032   25.0060 H   0  0  0  0  0  0  0  0  0  0  0  0
    6.0574   -2.9237   22.9059 H   0  0  0  0  0  0  0  0  0  0  0  0
    5.7119   -2.0421   24.4324 H   0  0  0  0  0  0  0  0  0  0  0  0
   10.2788   -5.6547   26.9158 H   0  0  0  0  0  0  0  0  0  0  0  0
   11.2852   -4.2831   26.4153 H   0  0  0  0  0  0  0  0  0  0  0  0
    7.3371   -4.0655   25.2572 H   0  0  0  0  0  0  0  0  0  0  0  0
    9.9443   -3.0038   27.6450 H   0  0  0  0  0  0  0  0  0  0  0  0
  1  5  1  0  0  0  0
  1 13  3  0  0  0  0
  2  3  2  0  0  0  0
  2  5  1  0  0  0  0
  3  7  1  0  0  0  0
  4  5  2  0  0  0  0
  4  6  1  0  0  0  0
  6  7  2  0  0  0  0
  6 10  1  0  0  0  0
  7 14  1  0  0  0  0
  8 11  1  0  0  0  0
  9 18  1  0  0  0  0
 10 12  1  0  0  0  0
 11 14  1  0  0  0  0
 12 15  1  0  0  0  0
 15 18  1  0  0  0  0
 16 18  2  0  0  0  0
 17 18  2  0  0  0  0
  2 19  1  0  0  0  0
  3 20  1  0  0  0  0
  4 21  1  0  0  0  0
  8 22  1  0  0  0  0
  8 23  1  0  0  0  0
  8 24  1  0  0  0  0
  9 25  1  0  0  0  0
  9 26  1  0  0  0  0
  9 27  1  0  0  0  0
 10 28  1  0  0  0  0
 10 29  1  0  0  0  0
 11 30  1  0  0  0  0
 11 31  1  0  0  0  0
 12 32  1  0  0  0  0
 12 33  1  0  0  0  0
 14 34  1  0  0  0  0
 15 35  1  0  0  0  0
M  END
> <Chemgauss4 Score>
-5.01636123657227

> <Number of Confs>
200

$$$$
GIA-UNK-5ec-4
  -OEChem-03242005443D

 33 34  0     0  0  0  0  0  0999 V2000
   13.0174   -0.6251   23.0314 C   0  0  0  0  0  0  0  0  0  0  0  0
   12.1965    0.0389   23.9429 C   0  0  0  0  0  0  0  0  0  0  0  0
   12.5083   -1.6799   22.2739 C   0  0  0  0  0  0  0  0  0  0  0  0
   10.8664   -0.3521   24.0970 C   0  0  0  0  0  0  0  0  0  0  0  0
   11.1782   -2.0709   22.4280 C   0  0  0  0  0  0  0  0  0  0  0  0
   10.3573   -1.4069   23.3395 C   0  0  0  0  0  0  0  0  0  0  0  0
    7.7705   -5.2906   27.3094 C   0  0  0  0  0  0  0  0  0  0  0  0
    8.6586   -3.0592   26.7393 C   0  0  0  0  0  0  0  0  0  0  0  0
    6.7566   -4.0484   25.3734 C   0  0  0  0  0  0  0  0  0  0  0  0
    9.6127   -3.4230   25.6049 C   0  0  0  0  0  0  0  0  0  0  0  0
    7.7620   -4.3709   24.2705 C   0  0  0  0  0  0  0  0  0  0  0  0
    7.3996   -3.9253   26.7521 C   0  0  0  0  0  0  0  0  0  0  0  0
    8.8994   -3.4136   24.2999 N   0  0  0  0  0  0  0  0  0  0  0  0
    8.0920   -6.2447   26.6133 O   0  0  0  0  0  0  0  0  0  0  0  0
    8.0508   -0.9923   24.4717 O   0  0  0  0  0  0  0  0  0  0  0  0
    8.1165   -2.1221   22.2207 O   0  0  0  0  0  0  0  0  0  0  0  0
    7.7030   -5.4029   29.0625 S   0  0  0  0  0  0  0  0  0  0  0  0
    8.6750   -1.9034   23.5373 S   0  0  0  0  0  0  0  0  0  0  0  0
   14.0534   -0.3216   22.9114 H   0  0  0  0  0  0  0  0  0  0  0  0
   12.5928    0.8595   24.5336 H   0  0  0  0  0  0  0  0  0  0  0  0
   13.1479   -2.1971   21.5649 H   0  0  0  0  0  0  0  0  0  0  0  0
   10.2358    0.1714   24.8106 H   0  0  0  0  0  0  0  0  0  0  0  0
   10.7925   -2.8947   21.8337 H   0  0  0  0  0  0  0  0  0  0  0  0
    9.1859   -3.1330   27.6945 H   0  0  0  0  0  0  0  0  0  0  0  0
    8.3549   -2.0141   26.6166 H   0  0  0  0  0  0  0  0  0  0  0  0
    6.2660   -3.0953   25.1320 H   0  0  0  0  0  0  0  0  0  0  0  0
    5.9704   -4.8144   25.3803 H   0  0  0  0  0  0  0  0  0  0  0  0
   10.4278   -2.6859   25.5803 H   0  0  0  0  0  0  0  0  0  0  0  0
   10.0646   -4.4112   25.7727 H   0  0  0  0  0  0  0  0  0  0  0  0
    8.1393   -5.4006   24.3727 H   0  0  0  0  0  0  0  0  0  0  0  0
    7.2509   -4.3024   23.2979 H   0  0  0  0  0  0  0  0  0  0  0  0
    6.6893   -3.5074   27.4593 H   0  0  0  0  0  0  0  0  0  0  0  0
    8.0766   -6.6873   29.1554 H   0  0  0  0  0  0  0  0  0  0  0  0
  1  2  1  0  0  0  0
  1  3  2  0  0  0  0
  2  4  2  0  0  0  0
  3  5  1  0  0  0  0
  4  6  1  0  0  0  0
  5  6  2  0  0  0  0
  6 18  1  0  0  0  0
  7 12  1  0  0  0  0
  7 14  2  0  0  0  0
  7 17  1  0  0  0  0
  8 10  1  0  0  0  0
  8 12  1  0  0  0  0
  9 11  1  0  0  0  0
  9 12  1  0  0  0  0
 10 13  1  0  0  0  0
 11 13  1  0  0  0  0
 13 18  1  0  0  0  0
 15 18  2  0  0  0  0
 16 18  2  0  0  0  0
  1 19  1  0  0  0  0
  2 20  1  0  0  0  0
  3 21  1  0  0  0  0
  4 22  1  0  0  0  0
  5 23  1  0  0  0  0
  8 24  1  0  0  0  0
  8 25  1  0  0  0  0
  9 26  1  0  0  0  0
  9 27  1  0  0  0  0
 10 28  1  0  0  0  0
 10 29  1  0  0  0  0
 11 30  1  0  0  0  0
 11 31  1  0  0  0  0
 12 32  1  0  0  0  0
 17 33  1  0  0  0  0
M  END
> <Chemgauss4 Score>
-5.01516485214233

> <Number of Confs>
27

$$$$
GIA-UNK-995-11
  -OEChem-03242005443D

 32 33  0     0  0  0  0  0  0999 V2000
   13.1884   -1.3940   22.4305 C   0  0  0  0  0  0  0  0  0  0  0  0
   11.8787   -1.9235   22.5172 C   0  0  0  0  0  0  0  0  0  0  0  0
   13.2013   -0.2741   23.2291 C   0  0  0  0  0  0  0  0  0  0  0  0
   11.1847   -1.0895   23.3627 C   0  0  0  0  0  0  0  0  0  0  0  0
    9.8045   -1.1187   23.8324 C   0  0  0  0  0  0  0  0  0  0  0  0
    8.2129   -5.0948   26.6148 C   0  0  0  0  0  0  0  0  0  0  0  0
    8.0071   -2.6114   26.5548 C   0  0  0  0  0  0  0  0  0  0  0  0
   10.2732   -3.7433   26.3035 C   0  0  0  0  0  0  0  0  0  0  0  0
    8.0186   -2.3435   25.0495 C   0  0  0  0  0  0  0  0  0  0  0  0
   10.2028   -3.4507   24.8056 C   0  0  0  0  0  0  0  0  0  0  0  0
    8.8966   -3.7837   26.9666 C   0  0  0  0  0  0  0  0  0  0  0  0
    5.5847   -5.4538   25.9181 C   0  0  0  0  0  0  0  0  0  0  0  0
    9.3903   -2.2555   24.5501 N   0  0  0  0  0  0  0  0  0  0  0  0
    9.0512   -0.1720   23.5985 O   0  0  0  0  0  0  0  0  0  0  0  0
    8.7132   -5.9312   25.8725 O   0  0  0  0  0  0  0  0  0  0  0  0
   11.9838   -0.0817   23.8011 O   0  0  0  0  0  0  0  0  0  0  0  0
    5.9956   -6.5139   25.1723 F   0  0  0  0  0  0  0  0  0  0  0  0
    6.6357   -5.2987   27.3765 S   0  0  0  0  0  0  0  0  0  0  0  0
   14.0189   -1.7798   21.8571 H   0  0  0  0  0  0  0  0  0  0  0  0
   11.4928   -2.8036   22.0229 H   0  0  0  0  0  0  0  0  0  0  0  0
   13.9570    0.4552   23.4818 H   0  0  0  0  0  0  0  0  0  0  0  0
    8.3575   -1.7074   27.0697 H   0  0  0  0  0  0  0  0  0  0  0  0
    6.9737   -2.7785   26.8820 H   0  0  0  0  0  0  0  0  0  0  0  0
   10.8017   -4.6913   26.4607 H   0  0  0  0  0  0  0  0  0  0  0  0
   10.8752   -2.9616   26.7847 H   0  0  0  0  0  0  0  0  0  0  0  0
    7.5223   -3.1571   24.5076 H   0  0  0  0  0  0  0  0  0  0  0  0
    7.4643   -1.4245   24.8342 H   0  0  0  0  0  0  0  0  0  0  0  0
   11.2162   -3.3436   24.4104 H   0  0  0  0  0  0  0  0  0  0  0  0
    9.7373   -4.2834   24.2659 H   0  0  0  0  0  0  0  0  0  0  0  0
    9.0138   -3.7959   28.0439 H   0  0  0  0  0  0  0  0  0  0  0  0
    5.6505   -4.5583   25.2947 H   0  0  0  0  0  0  0  0  0  0  0  0
    4.5446   -5.6279   26.2056 H   0  0  0  0  0  0  0  0  0  0  0  0
  1  2  1  0  0  0  0
  1  3  2  0  0  0  0
  2  4  2  0  0  0  0
  3 16  1  0  0  0  0
  4  5  1  0  0  0  0
  4 16  1  0  0  0  0
  5 13  1  0  0  0  0
  5 14  2  0  0  0  0
  6 11  1  0  0  0  0
  6 15  2  0  0  0  0
  6 18  1  0  0  0  0
  7  9  1  0  0  0  0
  7 11  1  0  0  0  0
  8 10  1  0  0  0  0
  8 11  1  0  0  0  0
  9 13  1  0  0  0  0
 10 13  1  0  0  0  0
 12 17  1  0  0  0  0
 12 18  1  0  0  0  0
  1 19  1  0  0  0  0
  2 20  1  0  0  0  0
  3 21  1  0  0  0  0
  7 22  1  0  0  0  0
  7 23  1  0  0  0  0
  8 24  1  0  0  0  0
  8 25  1  0  0  0  0
  9 26  1  0  0  0  0
  9 27  1  0  0  0  0
 10 28  1  0  0  0  0
 10 29  1  0  0  0  0
 11 30  1  0  0  0  0
 12 31  1  0  0  0  0
 12 32  1  0  0  0  0
M  END
> <Chemgauss4 Score>
-5.01153802871704

> <Number of Confs>
200

$$$$
DAV-AUT-fa2-3
  -OEChem-03242005443D

 48 50  0     1  0  0  0  0  0999 V2000
   10.6855   -2.8297   25.9034 C   0  0  0  0  0  0  0  0  0  0  0  0
   11.1889   -2.0031   24.9039 C   0  0  0  0  0  0  0  0  0  0  0  0
    9.3943   -2.7021   23.4604 C   0  0  0  0  0  0  0  0  0  0  0  0
    9.5174   -3.5982   25.7053 C   0  0  0  0  0  0  0  0  0  0  0  0
    8.8565   -3.5598   24.4462 C   0  0  0  0  0  0  0  0  0  0  0  0
   10.5393   -1.9348   23.6833 C   0  0  0  0  0  0  0  0  0  0  0  0
    5.6692   -3.8074   22.9544 C   0  0  0  0  0  0  0  0  0  0  0  0
    7.1093   -5.7564   22.3007 C   0  0  0  0  0  0  0  0  0  0  0  0
    7.2799   -5.3258   25.1595 C   0  0  0  0  0  0  0  0  0  0  0  0
    4.9798   -3.9544   21.6039 C   0  0  0  0  0  0  0  0  0  0  0  0
    6.3404   -5.7932   20.9861 C   0  0  0  0  0  0  0  0  0  0  0  0
    7.0988   -4.3461   22.8921 C   0  0  0  0  0  0  0  0  0  0  0  0
    9.0046   -4.4998   26.8372 C   0  0  0  0  0  0  0  0  0  0  0  0
    7.5302   -4.8501   26.5728 C   0  0  0  0  0  0  0  0  0  0  0  0
    9.8703   -5.7778   26.8658 C   0  0  0  0  0  0  0  0  0  0  0  0
    9.0823   -3.8286   28.2268 C   0  0  0  0  0  0  0  0  0  0  0  0
   11.1002    0.7636   23.1087 C   0  0  0  0  0  0  0  0  0  0  0  0
   12.6410   -1.2433   22.2383 N   0  0  0  0  0  0  0  0  0  0  0  0
    7.7149   -4.3234   24.1953 N   0  0  3  0  0  0  0  0  0  0  0  0
   10.1578   -0.8622   21.3526 O   0  0  0  0  0  0  0  0  0  0  0  0
    5.0084   -5.3127   21.1657 O   0  0  0  0  0  0  0  0  0  0  0  0
    6.7458   -3.7602   26.8016 F   0  0  0  0  0  0  0  0  0  0  0  0
    7.1093   -5.8033   27.4438 F   0  0  0  0  0  0  0  0  0  0  0  0
   11.1452   -0.8820   22.4287 S   0  0  1  0  0  0  0  0  0  0  0  0
   11.2178   -2.8593   26.8502 H   0  0  0  0  0  0  0  0  0  0  0  0
   12.0848   -1.4184   25.0927 H   0  0  0  0  0  0  0  0  0  0  0  0
    8.9157   -2.6129   22.4872 H   0  0  0  0  0  0  0  0  0  0  0  0
    5.7204   -2.7431   23.2038 H   0  0  0  0  0  0  0  0  0  0  0  0
    5.0917   -4.3002   23.7392 H   0  0  0  0  0  0  0  0  0  0  0  0
    6.7085   -6.4871   23.0044 H   0  0  0  0  0  0  0  0  0  0  0  0
    8.1492   -6.0283   22.1003 H   0  0  0  0  0  0  0  0  0  0  0  0
    7.8378   -6.2579   25.0088 H   0  0  0  0  0  0  0  0  0  0  0  0
    6.2234   -5.5694   25.0006 H   0  0  0  0  0  0  0  0  0  0  0  0
    3.9418   -3.6022   21.6368 H   0  0  0  0  0  0  0  0  0  0  0  0
    5.5045   -3.3537   20.8535 H   0  0  0  0  0  0  0  0  0  0  0  0
    6.8303   -5.1458   20.2520 H   0  0  0  0  0  0  0  0  0  0  0  0
    6.3098   -6.8039   20.5636 H   0  0  0  0  0  0  0  0  0  0  0  0
    7.6950   -3.6822   22.2285 H   0  0  0  0  0  0  0  0  0  0  0  0
    9.5181   -6.4229   27.6610 H   0  0  0  0  0  0  0  0  0  0  0  0
   10.9015   -5.4996   27.0438 H   0  0  0  0  0  0  0  0  0  0  0  0
    9.7821   -6.2832   25.9121 H   0  0  0  0  0  0  0  0  0  0  0  0
    8.7064   -4.5181   28.9728 H   0  0  0  0  0  0  0  0  0  0  0  0
    8.4791   -2.9289   28.2178 H   0  0  0  0  0  0  0  0  0  0  0  0
   10.1147   -3.5794   28.4405 H   0  0  0  0  0  0  0  0  0  0  0  0
   11.4725    1.4583   22.3541 H   0  0  0  0  0  0  0  0  0  0  0  0
   10.0677    1.0001   23.3701 H   0  0  0  0  0  0  0  0  0  0  0  0
   11.7346    0.7868   23.9961 H   0  0  0  0  0  0  0  0  0  0  0  0
   13.1098   -0.6847   21.5189 H   0  0  0  0  0  0  0  0  0  0  0  0
  1  2  2  0  0  0  0
  1  4  1  0  0  0  0
  2  6  1  0  0  0  0
  3  5  1  0  0  0  0
  3  6  2  0  0  0  0
  4  5  2  0  0  0  0
  4 13  1  0  0  0  0
  5 19  1  0  0  0  0
  6 24  1  0  0  0  0
  7 10  1  0  0  0  0
  7 12  1  0  0  0  0
  8 11  1  0  0  0  0
  8 12  1  0  0  0  0
  9 14  1  0  0  0  0
  9 19  1  0  0  0  0
 10 21  1  0  0  0  0
 11 21  1  0  0  0  0
 12 19  1  1  0  0  0
 13 14  1  0  0  0  0
 13 15  1  0  0  0  0
 13 16  1  0  0  0  0
 14 22  1  0  0  0  0
 14 23  1  0  0  0  0
 17 24  1  6  0  0  0
 18 24  2  0  0  0  0
 20 24  2  0  0  0  0
  1 25  1  0  0  0  0
  2 26  1  0  0  0  0
  3 27  1  0  0  0  0
  7 28  1  0  0  0  0
  7 29  1  0  0  0  0
  8 30  1  0  0  0  0
  8 31  1  0  0  0  0
  9 32  1  0  0  0  0
  9 33  1  0  0  0  0
 10 34  1  0  0  0  0
 10 35  1  0  0  0  0
 11 36  1  0  0  0  0
 11 37  1  0  0  0  0
 12 38  1  0  0  0  0
 15 39  1  0  0  0  0
 15 40  1  0  0  0  0
 15 41  1  0  0  0  0
 16 42  1  0  0  0  0
 16 43  1  0  0  0  0
 16 44  1  0  0  0  0
 17 45  1  0  0  0  0
 17 46  1  0  0  0  0
 17 47  1  0  0  0  0
 18 48  1  0  0  0  0
M  END
> <Chemgauss4 Score>
-5.01088047027588

> <Number of Confs>
12

$$$$
GIA-UNK-995-12
  -OEChem-03242005443D

 32 33  0     0  0  0  0  0  0999 V2000
   13.7033   -1.4128   21.9437 C   0  0  0  0  0  0  0  0  0  0  0  0
   12.3598   -1.8479   22.1331 C   0  0  0  0  0  0  0  0  0  0  0  0
   13.9871   -0.2780   22.6711 C   0  0  0  0  0  0  0  0  0  0  0  0
   11.6680   -1.0291   22.9984 C   0  0  0  0  0  0  0  0  0  0  0  0
   10.2845   -1.1338   23.4471 C   0  0  0  0  0  0  0  0  0  0  0  0
    8.8424   -5.2483   26.1071 C   0  0  0  0  0  0  0  0  0  0  0  0
    8.5222   -2.7763   26.1054 C   0  0  0  0  0  0  0  0  0  0  0  0
   10.8416   -3.7957   25.8592 C   0  0  0  0  0  0  0  0  0  0  0  0
    8.5413   -2.4701   24.6076 C   0  0  0  0  0  0  0  0  0  0  0  0
   10.7777   -3.4689   24.3681 C   0  0  0  0  0  0  0  0  0  0  0  0
    9.4596   -3.9164   26.5011 C   0  0  0  0  0  0  0  0  0  0  0  0
    6.2432   -5.7103   25.3637 C   0  0  0  0  0  0  0  0  0  0  0  0
    9.9140   -2.3063   24.1305 N   0  0  0  0  0  0  0  0  0  0  0  0
    9.4911   -0.2172   23.2258 O   0  0  0  0  0  0  0  0  0  0  0  0
    9.3909   -6.0417   25.3517 O   0  0  0  0  0  0  0  0  0  0  0  0
    5.9199   -4.4762   24.8932 F   0  0  0  0  0  0  0  0  0  0  0  0
   12.6371    0.2583   23.5779 S   0  0  0  0  0  0  0  0  0  0  0  0
    7.2663   -5.5439   26.8405 S   0  0  0  0  0  0  0  0  0  0  0  0
   14.4244   -1.9065   21.3053 H   0  0  0  0  0  0  0  0  0  0  0  0
   11.9279   -2.7189   21.6563 H   0  0  0  0  0  0  0  0  0  0  0  0
   14.9225    0.2622   22.7125 H   0  0  0  0  0  0  0  0  0  0  0  0
    8.8233   -1.8705   26.6476 H   0  0  0  0  0  0  0  0  0  0  0  0
    7.4934   -2.9991   26.4134 H   0  0  0  0  0  0  0  0  0  0  0  0
   11.4115   -4.7220   26.0006 H   0  0  0  0  0  0  0  0  0  0  0  0
   11.4001   -2.9995   26.3682 H   0  0  0  0  0  0  0  0  0  0  0  0
    8.0907   -3.2917   24.0386 H   0  0  0  0  0  0  0  0  0  0  0  0
    7.9478   -1.5725   24.4070 H   0  0  0  0  0  0  0  0  0  0  0  0
   11.7902   -3.3051   23.9905 H   0  0  0  0  0  0  0  0  0  0  0  0
   10.3587   -4.3082   23.8013 H   0  0  0  0  0  0  0  0  0  0  0  0
    9.5629   -3.9505   27.5793 H   0  0  0  0  0  0  0  0  0  0  0  0
    5.3133   -6.2373   25.5926 H   0  0  0  0  0  0  0  0  0  0  0  0
    6.7833   -6.2401   24.5746 H   0  0  0  0  0  0  0  0  0  0  0  0
  1  2  1  0  0  0  0
  1  3  2  0  0  0  0
  2  4  2  0  0  0  0
  3 17  1  0  0  0  0
  4  5  1  0  0  0  0
  4 17  1  0  0  0  0
  5 13  1  0  0  0  0
  5 14  2  0  0  0  0
  6 11  1  0  0  0  0
  6 15  2  0  0  0  0
  6 18  1  0  0  0  0
  7  9  1  0  0  0  0
  7 11  1  0  0  0  0
  8 10  1  0  0  0  0
  8 11  1  0  0  0  0
  9 13  1  0  0  0  0
 10 13  1  0  0  0  0
 12 16  1  0  0  0  0
 12 18  1  0  0  0  0
  1 19  1  0  0  0  0
  2 20  1  0  0  0  0
  3 21  1  0  0  0  0
  7 22  1  0  0  0  0
  7 23  1  0  0  0  0
  8 24  1  0  0  0  0
  8 25  1  0  0  0  0
  9 26  1  0  0  0  0
  9 27  1  0  0  0  0
 10 28  1  0  0  0  0
 10 29  1  0  0  0  0
 11 30  1  0  0  0  0
 12 31  1  0  0  0  0
 12 32  1  0  0  0  0
M  END
> <Chemgauss4 Score>
-5.00937700271606

> <Number of Confs>
200

$$$$
GIA-UNK-5ec-5
  -OEChem-03242005443D

 35 36  0     0  0  0  0  0  0999 V2000
   13.5342   -0.1736   23.5207 C   0  0  0  0  0  0  0  0  0  0  0  0
   13.5856   -1.3840   22.8295 C   0  0  0  0  0  0  0  0  0  0  0  0
   12.3013    0.3900   23.8496 C   0  0  0  0  0  0  0  0  0  0  0  0
   12.4041   -2.0309   22.4671 C   0  0  0  0  0  0  0  0  0  0  0  0
   11.1198   -0.2569   23.4872 C   0  0  0  0  0  0  0  0  0  0  0  0
   11.1712   -1.4674   22.7959 C   0  0  0  0  0  0  0  0  0  0  0  0
    8.2127   -4.4396   28.1875 C   0  0  0  0  0  0  0  0  0  0  0  0
    8.7792   -1.8830   23.3770 C   0  0  0  0  0  0  0  0  0  0  0  0
    7.1154   -3.8458   26.0379 C   0  0  0  0  0  0  0  0  0  0  0  0
    9.6282   -4.2946   26.1716 C   0  0  0  0  0  0  0  0  0  0  0  0
    7.6226   -2.5270   25.4617 C   0  0  0  0  0  0  0  0  0  0  0  0
    9.5879   -3.8748   24.7063 C   0  0  0  0  0  0  0  0  0  0  0  0
    8.2368   -4.6535   26.7033 C   0  0  0  0  0  0  0  0  0  0  0  0
    9.9006   -2.1623   22.4064 C   0  0  0  0  0  0  0  0  0  0  0  0
    8.6841   -2.7406   24.4747 N   0  0  0  0  0  0  0  0  0  0  0  0
    8.3795   -3.3502   28.7202 O   0  0  0  0  0  0  0  0  0  0  0  0
    8.0173   -0.9352   23.1708 O   0  0  0  0  0  0  0  0  0  0  0  0
    7.9216   -5.8964   29.1273 S   0  0  0  0  0  0  0  0  0  0  0  0
   14.4542    0.3293   23.8040 H   0  0  0  0  0  0  0  0  0  0  0  0
   14.5455   -1.8235   22.5743 H   0  0  0  0  0  0  0  0  0  0  0  0
   12.2609    1.3318   24.3887 H   0  0  0  0  0  0  0  0  0  0  0  0
   12.4538   -2.9736   21.9285 H   0  0  0  0  0  0  0  0  0  0  0  0
   10.1638    0.1896   23.7476 H   0  0  0  0  0  0  0  0  0  0  0  0
    6.3139   -3.6429   26.7550 H   0  0  0  0  0  0  0  0  0  0  0  0
    6.6807   -4.4424   25.2284 H   0  0  0  0  0  0  0  0  0  0  0  0
   10.2794   -5.1675   26.2700 H   0  0  0  0  0  0  0  0  0  0  0  0
   10.0669   -3.4907   26.7669 H   0  0  0  0  0  0  0  0  0  0  0  0
    6.7845   -1.9739   25.0163 H   0  0  0  0  0  0  0  0  0  0  0  0
    8.0367   -1.8871   26.2546 H   0  0  0  0  0  0  0  0  0  0  0  0
   10.5877   -3.5628   24.3613 H   0  0  0  0  0  0  0  0  0  0  0  0
    9.3157   -4.7428   24.0902 H   0  0  0  0  0  0  0  0  0  0  0  0
    8.0590   -5.7152   26.5537 H   0  0  0  0  0  0  0  0  0  0  0  0
    9.5865   -1.8428   21.4112 H   0  0  0  0  0  0  0  0  0  0  0  0
   10.0499   -3.2418   22.3541 H   0  0  0  0  0  0  0  0  0  0  0  0
    7.9717   -5.3198   30.3368 H   0  0  0  0  0  0  0  0  0  0  0  0
  1  2  1  0  0  0  0
  1  3  2  0  0  0  0
  2  4  2  0  0  0  0
  3  5  1  0  0  0  0
  4  6  1  0  0  0  0
  5  6  2  0  0  0  0
  6 14  1  0  0  0  0
  7 13  1  0  0  0  0
  7 16  2  0  0  0  0
  7 18  1  0  0  0  0
  8 14  1  0  0  0  0
  8 15  1  0  0  0  0
  8 17  2  0  0  0  0
  9 11  1  0  0  0  0
  9 13  1  0  0  0  0
 10 12  1  0  0  0  0
 10 13  1  0  0  0  0
 11 15  1  0  0  0  0
 12 15  1  0  0  0  0
  1 19  1  0  0  0  0
  2 20  1  0  0  0  0
  3 21  1  0  0  0  0
  4 22  1  0  0  0  0
  5 23  1  0  0  0  0
  9 24  1  0  0  0  0
  9 25  1  0  0  0  0
 10 26  1  0  0  0  0
 10 27  1  0  0  0  0
 11 28  1  0  0  0  0
 11 29  1  0  0  0  0
 12 30  1  0  0  0  0
 12 31  1  0  0  0  0
 13 32  1  0  0  0  0
 14 33  1  0  0  0  0
 14 34  1  0  0  0  0
 18 35  1  0  0  0  0
M  END
> <Chemgauss4 Score>
-4.99714326858521

> <Number of Confs>
130

$$$$
JOH-MEM-5e3-3
  -OEChem-03242005443D

 53 55  0     1  0  0  0  0  0999 V2000
    7.3706   -1.5072   23.0477 C   0  0  0  0  0  0  0  0  0  0  0  0
    6.9988   -0.5808   22.0693 C   0  0  0  0  0  0  0  0  0  0  0  0
    9.2607   -0.5165   21.1881 C   0  0  0  0  0  0  0  0  0  0  0  0
   10.6684   -2.9133   23.5618 C   0  0  0  0  0  0  0  0  0  0  0  0
    9.6590   -1.4499   22.1656 C   0  0  0  0  0  0  0  0  0  0  0  0
   10.8918   -2.0837   22.4872 C   0  0  0  0  0  0  0  0  0  0  0  0
    8.7067   -1.9228   23.0711 C   0  0  0  0  0  0  0  0  0  0  0  0
    7.9276   -0.0918   21.1528 C   0  0  0  0  0  0  0  0  0  0  0  0
    8.4119   -3.4808   28.0968 C   0  0  0  0  0  0  0  0  0  0  0  0
   12.7050    0.5284   24.3752 C   0  0  0  0  0  0  0  0  0  0  0  0
    9.2592   -4.3868   27.2525 C   0  0  1  0  0  0  0  0  0  0  0  0
    8.6082   -5.7446   26.9667 C   0  0  1  0  0  0  0  0  0  0  0  0
    7.6147   -5.7120   25.8039 C   0  0  2  0  0  0  0  0  0  0  0  0
    8.2008   -4.9506   24.6115 C   0  0  2  0  0  0  0  0  0  0  0  0
    8.7008   -3.5676   25.0506 C   0  0  2  0  0  0  0  0  0  0  0  0
   13.1473    0.4298   25.7974 C   0  0  0  0  0  0  0  0  0  0  0  0
    6.1640    1.2045   20.2226 C   0  0  0  0  0  0  0  0  0  0  0  0
   12.1849   -1.8913   21.8000 C   0  0  0  0  0  0  0  0  0  0  0  0
   12.8925   -0.5702   22.1525 C   0  0  0  0  0  0  0  0  0  0  0  0
    9.3475   -2.8096   23.9066 N   0  0  0  0  0  0  0  0  0  0  0  0
   13.1957   -0.4751   23.5553 N   0  0  0  0  0  0  0  0  0  0  0  0
    8.0510   -2.3579   27.7771 O   0  0  0  0  0  0  0  0  0  0  0  0
   11.9681    1.4461   24.0339 O   0  0  0  0  0  0  0  0  0  0  0  0
    9.6811   -3.6964   26.0850 O   0  0  0  0  0  0  0  0  0  0  0  0
    8.0989   -4.0769   29.2732 O   0  0  0  0  0  0  0  0  0  0  0  0
    9.6587   -6.6609   26.6485 O   0  0  0  0  0  0  0  0  0  0  0  0
    6.4084   -5.0742   26.2207 O   0  0  0  0  0  0  0  0  0  0  0  0
    7.2066   -4.8100   23.6008 O   0  0  0  0  0  0  0  0  0  0  0  0
    7.5343    0.8102   20.2097 O   0  0  0  0  0  0  0  0  0  0  0  0
    6.6433   -1.8845   23.7589 H   0  0  0  0  0  0  0  0  0  0  0  0
    5.9659   -0.2425   22.0280 H   0  0  0  0  0  0  0  0  0  0  0  0
    9.9773   -0.1290   20.4690 H   0  0  0  0  0  0  0  0  0  0  0  0
   11.3375   -3.5636   24.1097 H   0  0  0  0  0  0  0  0  0  0  0  0
   10.2106   -4.5808   27.9020 H   0  0  0  0  0  0  0  0  0  0  0  0
    8.1177   -6.1454   27.8754 H   0  0  0  0  0  0  0  0  0  0  0  0
    7.3539   -6.7297   25.5097 H   0  0  0  0  0  0  0  0  0  0  0  0
    9.0222   -5.5440   24.1766 H   0  0  0  0  0  0  0  0  0  0  0  0
    7.9135   -2.9289   25.3910 H   0  0  0  0  0  0  0  0  0  0  0  0
   14.0865    0.9749   25.9845 H   0  0  0  0  0  0  0  0  0  0  0  0
   12.4146    0.8637   26.4967 H   0  0  0  0  0  0  0  0  0  0  0  0
   13.3278   -0.5930   26.1651 H   0  0  0  0  0  0  0  0  0  0  0  0
    5.9840    1.9253   19.4213 H   0  0  0  0  0  0  0  0  0  0  0  0
    5.9215    1.6511   21.1902 H   0  0  0  0  0  0  0  0  0  0  0  0
    5.5389    0.3227   20.0636 H   0  0  0  0  0  0  0  0  0  0  0  0
   12.0390   -1.9155   20.7020 H   0  0  0  0  0  0  0  0  0  0  0  0
   12.8797   -2.7305   22.0059 H   0  0  0  0  0  0  0  0  0  0  0  0
   13.8429   -0.4791   21.6172 H   0  0  0  0  0  0  0  0  0  0  0  0
   12.2690    0.2909   21.8902 H   0  0  0  0  0  0  0  0  0  0  0  0
   13.8027   -1.1820   23.9673 H   0  0  0  0  0  0  0  0  0  0  0  0
    7.5460   -3.4990   29.8412 H   0  0  0  0  0  0  0  0  0  0  0  0
    9.2345   -7.5140   26.4702 H   0  0  0  0  0  0  0  0  0  0  0  0
    6.0593   -5.5987   26.9578 H   0  0  0  0  0  0  0  0  0  0  0  0
    6.9496   -5.7083   23.3472 H   0  0  0  0  0  0  0  0  0  0  0  0
  1  2  2  0  0  0  0
  1  7  1  0  0  0  0
  2  8  1  0  0  0  0
  3  5  1  0  0  0  0
  3  8  2  0  0  0  0
  4  6  2  0  0  0  0
  4 20  1  0  0  0  0
  5  6  1  0  0  0  0
  5  7  2  0  0  0  0
  6 18  1  0  0  0  0
  7 20  1  0  0  0  0
  8 29  1  0  0  0  0
  9 11  1  1  0  0  0
  9 22  2  0  0  0  0
  9 25  1  0  0  0  0
 10 16  1  0  0  0  0
 10 21  1  0  0  0  0
 10 23  2  0  0  0  0
 11 12  1  0  0  0  0
 11 24  1  0  0  0  0
 12 13  1  0  0  0  0
 12 26  1  6  0  0  0
 13 14  1  0  0  0  0
 13 27  1  1  0  0  0
 14 15  1  0  0  0  0
 14 28  1  1  0  0  0
 15 20  1  1  0  0  0
 15 24  1  0  0  0  0
 17 29  1  0  0  0  0
 18 19  1  0  0  0  0
 19 21  1  0  0  0  0
  1 30  1  0  0  0  0
  2 31  1  0  0  0  0
  3 32  1  0  0  0  0
  4 33  1  0  0  0  0
 11 34  1  0  0  0  0
 12 35  1  0  0  0  0
 13 36  1  0  0  0  0
 14 37  1  0  0  0  0
 15 38  1  0  0  0  0
 16 39  1  0  0  0  0
 16 40  1  0  0  0  0
 16 41  1  0  0  0  0
 17 42  1  0  0  0  0
 17 43  1  0  0  0  0
 17 44  1  0  0  0  0
 18 45  1  0  0  0  0
 18 46  1  0  0  0  0
 19 47  1  0  0  0  0
 19 48  1  0  0  0  0
 21 49  1  0  0  0  0
 25 50  1  0  0  0  0
 26 51  1  0  0  0  0
 27 52  1  0  0  0  0
 28 53  1  0  0  0  0
M  END
> <Chemgauss4 Score>
-4.99603080749512

> <Number of Confs>
200

$$$$
TRY-UNI-714-13
  -OEChem-03242005443D

 42 43  0     1  0  0  0  0  0999 V2000
   12.2863    0.2902   23.5028 C   0  0  0  0  0  0  0  0  0  0  0  0
   10.8198   -0.7369   24.9425 C   0  0  0  0  0  0  0  0  0  0  0  0
   11.8388   -2.0292   23.2256 C   0  0  0  0  0  0  0  0  0  0  0  0
   12.5107   -0.8864   22.8063 C   0  0  0  0  0  0  0  0  0  0  0  0
   10.9753   -1.9615   24.3133 C   0  0  0  0  0  0  0  0  0  0  0  0
    9.3813   -3.1615   25.8511 C   0  0  0  0  0  0  0  0  0  0  0  0
    5.4061   -3.7552   23.4454 C   0  0  0  0  0  0  0  0  0  0  0  0
    5.1566   -3.9348   24.9396 C   0  0  0  0  0  0  0  0  0  0  0  0
    6.4834   -4.7086   22.9379 C   0  0  0  0  0  0  0  0  0  0  0  0
    6.4464   -3.8023   25.7461 C   0  0  0  0  0  0  0  0  0  0  0  0
    7.7755   -4.5776   23.7411 C   0  0  0  0  0  0  0  0  0  0  0  0
    7.5299   -4.7664   25.2442 C   0  0  0  0  0  0  0  0  0  0  0  0
   12.0436   -3.3271   22.5092 C   0  0  0  0  0  0  0  0  0  0  0  0
    9.8663   -5.6082   25.5954 C   0  0  0  0  0  0  0  0  0  0  0  0
    8.8259   -4.5778   26.0304 C   0  0  1  0  0  0  0  0  0  0  0  0
   11.4552    0.3948   24.5639 N   0  0  0  0  0  0  0  0  0  0  0  0
   13.3942   -0.9045   21.7122 N   0  0  0  0  0  0  0  0  0  0  0  0
   10.2684   -3.0952   24.7805 N   0  0  0  0  0  0  0  0  0  0  0  0
    9.0417   -2.2399   26.5878 O   0  0  0  0  0  0  0  0  0  0  0  0
   12.7817    1.2153   23.2232 H   0  0  0  0  0  0  0  0  0  0  0  0
   10.1602   -0.6206   25.7973 H   0  0  0  0  0  0  0  0  0  0  0  0
    4.4747   -3.9239   22.8932 H   0  0  0  0  0  0  0  0  0  0  0  0
    5.7130   -2.7206   23.2488 H   0  0  0  0  0  0  0  0  0  0  0  0
    4.4288   -3.1908   25.2830 H   0  0  0  0  0  0  0  0  0  0  0  0
    4.7134   -4.9219   25.1200 H   0  0  0  0  0  0  0  0  0  0  0  0
    6.1174   -5.7408   23.0018 H   0  0  0  0  0  0  0  0  0  0  0  0
    6.6848   -4.5065   21.8798 H   0  0  0  0  0  0  0  0  0  0  0  0
    6.8075   -2.7678   25.6802 H   0  0  0  0  0  0  0  0  0  0  0  0
    6.2333   -3.9967   26.8040 H   0  0  0  0  0  0  0  0  0  0  0  0
    8.5001   -5.3193   23.3841 H   0  0  0  0  0  0  0  0  0  0  0  0
    8.2158   -3.5894   23.5559 H   0  0  0  0  0  0  0  0  0  0  0  0
    7.1812   -5.7944   25.4104 H   0  0  0  0  0  0  0  0  0  0  0  0
   12.8740   -3.8798   22.9609 H   0  0  0  0  0  0  0  0  0  0  0  0
   11.1416   -3.9478   22.5542 H   0  0  0  0  0  0  0  0  0  0  0  0
   12.2667   -3.1602   21.4492 H   0  0  0  0  0  0  0  0  0  0  0  0
   10.1138   -5.4898   24.5353 H   0  0  0  0  0  0  0  0  0  0  0  0
    9.5012   -6.6302   25.7404 H   0  0  0  0  0  0  0  0  0  0  0  0
   10.7900   -5.5054   26.1759 H   0  0  0  0  0  0  0  0  0  0  0  0
    8.6012   -4.7238   27.0946 H   0  0  0  0  0  0  0  0  0  0  0  0
   13.8229   -0.0501   21.4120 H   0  0  0  0  0  0  0  0  0  0  0  0
   13.5111   -1.7507   21.1886 H   0  0  0  0  0  0  0  0  0  0  0  0
   10.4273   -3.9637   24.2743 H   0  0  0  0  0  0  0  0  0  0  0  0
  1  4  2  0  0  0  0
  1 16  1  0  0  0  0
  2  5  1  0  0  0  0
  2 16  2  0  0  0  0
  3  4  1  0  0  0  0
  3  5  2  0  0  0  0
  3 13  1  0  0  0  0
  4 17  1  0  0  0  0
  5 18  1  0  0  0  0
  6 15  1  0  0  0  0
  6 18  1  0  0  0  0
  6 19  2  0  0  0  0
  7  8  1  0  0  0  0
  7  9  1  0  0  0  0
  8 10  1  0  0  0  0
  9 11  1  0  0  0  0
 10 12  1  0  0  0  0
 11 12  1  0  0  0  0
 12 15  1  0  0  0  0
 14 15  1  6  0  0  0
  1 20  1  0  0  0  0
  2 21  1  0  0  0  0
  7 22  1  0  0  0  0
  7 23  1  0  0  0  0
  8 24  1  0  0  0  0
  8 25  1  0  0  0  0
  9 26  1  0  0  0  0
  9 27  1  0  0  0  0
 10 28  1  0  0  0  0
 10 29  1  0  0  0  0
 11 30  1  0  0  0  0
 11 31  1  0  0  0  0
 12 32  1  0  0  0  0
 13 33  1  0  0  0  0
 13 34  1  0  0  0  0
 13 35  1  0  0  0  0
 14 36  1  0  0  0  0
 14 37  1  0  0  0  0
 14 38  1  0  0  0  0
 15 39  1  0  0  0  0
 17 40  1  0  0  0  0
 17 41  1  0  0  0  0
 18 42  1  0  0  0  0
M  END
> <Chemgauss4 Score>
-4.98893976211548

> <Number of Confs>
23

$$$$
PAT-UNK-b2d-3
  -OEChem-03242005443D

 49 51  0     0  0  0  0  0  0999 V2000
    9.6821   -5.9261   26.1597 C   0  0  0  0  0  0  0  0  0  0  0  0
   10.2899   -4.6743   26.2547 C   0  0  0  0  0  0  0  0  0  0  0  0
    8.3730   -6.0320   25.6900 C   0  0  0  0  0  0  0  0  0  0  0  0
    8.2793   -3.6341   25.4104 C   0  0  0  0  0  0  0  0  0  0  0  0
    9.5885   -3.5283   25.8801 C   0  0  0  0  0  0  0  0  0  0  0  0
    7.6716   -4.8860   25.3153 C   0  0  0  0  0  0  0  0  0  0  0  0
   13.6105   -1.0991   21.7186 C   0  0  0  0  0  0  0  0  0  0  0  0
    4.8831   -4.0575   22.5718 C   0  0  0  0  0  0  0  0  0  0  0  0
    5.2244   -3.1318   23.7418 C   0  0  0  0  0  0  0  0  0  0  0  0
    5.8795   -5.2141   22.4644 C   0  0  0  0  0  0  0  0  0  0  0  0
    5.3789   -3.9259   25.0387 C   0  0  0  0  0  0  0  0  0  0  0  0
    6.0230   -5.9573   23.7962 C   0  0  0  0  0  0  0  0  0  0  0  0
   12.0838   -0.0599   23.4637 C   0  0  0  0  0  0  0  0  0  0  0  0
   11.5370   -2.2336   22.4437 C   0  0  0  0  0  0  0  0  0  0  0  0
   11.6746   -0.6257   24.8249 C   0  0  0  0  0  0  0  0  0  0  0  0
   11.1445   -2.7593   23.8240 C   0  0  0  0  0  0  0  0  0  0  0  0
   14.4656    0.1412   21.7863 C   0  0  0  0  0  0  0  0  0  0  0  0
   10.2428   -2.1809   25.9832 C   0  0  0  0  0  0  0  0  0  0  0  0
    6.3663   -4.9918   24.8465 N   0  0  0  0  0  0  0  0  0  0  0  0
   12.4900   -1.1297   22.5475 N   0  0  0  0  0  0  0  0  0  0  0  0
   10.6485   -1.6681   24.6752 N   0  0  0  0  0  0  0  0  0  0  0  0
   13.9319   -2.0132   20.9552 O   0  0  0  0  0  0  0  0  0  0  0  0
   10.2284   -6.8186   26.4514 H   0  0  0  0  0  0  0  0  0  0  0  0
   11.3104   -4.6011   26.6219 H   0  0  0  0  0  0  0  0  0  0  0  0
    7.9091   -7.0126   25.6197 H   0  0  0  0  0  0  0  0  0  0  0  0
    7.7339   -2.7396   25.1184 H   0  0  0  0  0  0  0  0  0  0  0  0
    3.8655   -4.4567   22.7016 H   0  0  0  0  0  0  0  0  0  0  0  0
    4.8788   -3.4835   21.6339 H   0  0  0  0  0  0  0  0  0  0  0  0
    6.1526   -2.5959   23.5262 H   0  0  0  0  0  0  0  0  0  0  0  0
    4.4361   -2.3853   23.8589 H   0  0  0  0  0  0  0  0  0  0  0  0
    5.5471   -5.9127   21.6895 H   0  0  0  0  0  0  0  0  0  0  0  0
    6.8574   -4.8300   22.1517 H   0  0  0  0  0  0  0  0  0  0  0  0
    5.6935   -3.2440   25.8365 H   0  0  0  0  0  0  0  0  0  0  0  0
    4.4143   -4.3592   25.3281 H   0  0  0  0  0  0  0  0  0  0  0  0
    5.0862   -6.4638   24.0435 H   0  0  0  0  0  0  0  0  0  0  0  0
    6.8043   -6.7148   23.6943 H   0  0  0  0  0  0  0  0  0  0  0  0
   11.2386    0.4589   22.9946 H   0  0  0  0  0  0  0  0  0  0  0  0
   12.8772    0.6766   23.6048 H   0  0  0  0  0  0  0  0  0  0  0  0
   11.9523   -3.0487   21.8421 H   0  0  0  0  0  0  0  0  0  0  0  0
   10.6566   -1.8518   21.9121 H   0  0  0  0  0  0  0  0  0  0  0  0
   12.5609   -1.0174   25.3416 H   0  0  0  0  0  0  0  0  0  0  0  0
   11.2792    0.1971   25.4327 H   0  0  0  0  0  0  0  0  0  0  0  0
   10.3581   -3.5123   23.6926 H   0  0  0  0  0  0  0  0  0  0  0  0
   12.0045   -3.2615   24.2868 H   0  0  0  0  0  0  0  0  0  0  0  0
   15.2285    0.0052   22.5457 H   0  0  0  0  0  0  0  0  0  0  0  0
   13.8394    0.9913   22.0376 H   0  0  0  0  0  0  0  0  0  0  0  0
   14.9298    0.3055   20.8192 H   0  0  0  0  0  0  0  0  0  0  0  0
    9.5590   -1.4531   26.4335 H   0  0  0  0  0  0  0  0  0  0  0  0
   11.1347   -2.2246   26.6170 H   0  0  0  0  0  0  0  0  0  0  0  0
  1  2  2  0  0  0  0
  1  3  1  0  0  0  0
  2  5  1  0  0  0  0
  3  6  2  0  0  0  0
  4  5  2  0  0  0  0
  4  6  1  0  0  0  0
  5 18  1  0  0  0  0
  6 19  1  0  0  0  0
  7 17  1  0  0  0  0
  7 20  1  0  0  0  0
  7 22  2  0  0  0  0
  8  9  1  0  0  0  0
  8 10  1  0  0  0  0
  9 11  1  0  0  0  0
 10 12  1  0  0  0  0
 11 19  1  0  0  0  0
 12 19  1  0  0  0  0
 13 15  1  0  0  0  0
 13 20  1  0  0  0  0
 14 16  1  0  0  0  0
 14 20  1  0  0  0  0
 15 21  1  0  0  0  0
 16 21  1  0  0  0  0
 18 21  1  0  0  0  0
  1 23  1  0  0  0  0
  2 24  1  0  0  0  0
  3 25  1  0  0  0  0
  4 26  1  0  0  0  0
  8 27  1  0  0  0  0
  8 28  1  0  0  0  0
  9 29  1  0  0  0  0
  9 30  1  0  0  0  0
 10 31  1  0  0  0  0
 10 32  1  0  0  0  0
 11 33  1  0  0  0  0
 11 34  1  0  0  0  0
 12 35  1  0  0  0  0
 12 36  1  0  0  0  0
 13 37  1  0  0  0  0
 13 38  1  0  0  0  0
 14 39  1  0  0  0  0
 14 40  1  0  0  0  0
 15 41  1  0  0  0  0
 15 42  1  0  0  0  0
 16 43  1  0  0  0  0
 16 44  1  0  0  0  0
 17 45  1  0  0  0  0
 17 46  1  0  0  0  0
 17 47  1  0  0  0  0
 18 48  1  0  0  0  0
 18 49  1  0  0  0  0
M  END
> <Chemgauss4 Score>
-4.98565578460693

> <Number of Confs>
194

$$$$
ANT-DIA-b7f-6
  -OEChem-03242005443D

 30 31  0     0  0  0  0  0  0999 V2000
    8.1811   -1.3524   24.6634 C   0  0  0  0  0  0  0  0  0  0  0  0
    8.2871   -2.1162   25.8293 C   0  0  0  0  0  0  0  0  0  0  0  0
    8.8481   -3.2521   23.3125 C   0  0  0  0  0  0  0  0  0  0  0  0
    8.4584   -1.9149   23.4224 C   0  0  0  0  0  0  0  0  0  0  0  0
    8.6789   -3.4700   25.7466 C   0  0  0  0  0  0  0  0  0  0  0  0
    8.9525   -4.0135   24.4877 C   0  0  0  0  0  0  0  0  0  0  0  0
    9.2020   -5.5217   26.3661 C   0  0  0  0  0  0  0  0  0  0  0  0
   13.3263   -1.3554   22.1597 C   0  0  0  0  0  0  0  0  0  0  0  0
    8.3379   -1.0821   22.1893 C   0  0  0  0  0  0  0  0  0  0  0  0
    9.6355   -0.3587   21.8106 C   0  0  0  0  0  0  0  0  0  0  0  0
    8.8260   -4.3459   26.8122 N   0  0  0  0  0  0  0  0  0  0  0  0
    9.4337   -6.6015   27.1593 N   0  0  0  0  0  0  0  0  0  0  0  0
   10.7130   -1.2728   21.5419 N   0  0  0  0  0  0  0  0  0  0  0  0
   11.6837   -3.2529   22.9025 O   0  0  0  0  0  0  0  0  0  0  0  0
   11.5119   -0.9887   23.9979 O   0  0  0  0  0  0  0  0  0  0  0  0
    9.4035   -5.6673   24.6738 S   0  0  0  0  0  0  0  0  0  0  0  0
   11.7388   -1.8064   22.8218 S   0  0  0  0  0  0  0  0  0  0  0  0
    7.8773   -0.3108   24.7389 H   0  0  0  0  0  0  0  0  0  0  0  0
    8.0675   -1.6674   26.7939 H   0  0  0  0  0  0  0  0  0  0  0  0
    9.0631   -3.6925   22.3431 H   0  0  0  0  0  0  0  0  0  0  0  0
   14.0938   -1.6404   22.8810 H   0  0  0  0  0  0  0  0  0  0  0  0
   13.4702   -1.8870   21.2179 H   0  0  0  0  0  0  0  0  0  0  0  0
   13.3371   -0.2768   21.9959 H   0  0  0  0  0  0  0  0  0  0  0  0
    7.5458   -0.3290   22.3345 H   0  0  0  0  0  0  0  0  0  0  0  0
    8.0003   -1.6971   21.3381 H   0  0  0  0  0  0  0  0  0  0  0  0
    9.4916    0.2354   20.9026 H   0  0  0  0  0  0  0  0  0  0  0  0
    9.9643    0.3137   22.6099 H   0  0  0  0  0  0  0  0  0  0  0  0
    9.3703   -6.5426   28.1813 H   0  0  0  0  0  0  0  0  0  0  0  0
    9.7720   -7.4898   26.7740 H   0  0  0  0  0  0  0  0  0  0  0  0
   10.5255   -1.9907   20.8085 H   0  0  0  0  0  0  0  0  0  0  0  0
  1  2  2  0  0  0  0
  1  4  1  0  0  0  0
  2  5  1  0  0  0  0
  3  4  2  0  0  0  0
  3  6  1  0  0  0  0
  4  9  1  0  0  0  0
  5  6  2  0  0  0  0
  5 11  1  0  0  0  0
  6 16  1  0  0  0  0
  7 11  2  0  0  0  0
  7 12  1  0  0  0  0
  7 16  1  0  0  0  0
  8 17  1  0  0  0  0
  9 10  1  0  0  0  0
 10 13  1  0  0  0  0
 13 17  1  0  0  0  0
 14 17  2  0  0  0  0
 15 17  2  0  0  0  0
  1 18  1  0  0  0  0
  2 19  1  0  0  0  0
  3 20  1  0  0  0  0
  8 21  1  0  0  0  0
  8 22  1  0  0  0  0
  8 23  1  0  0  0  0
  9 24  1  0  0  0  0
  9 25  1  0  0  0  0
 10 26  1  0  0  0  0
 10 27  1  0  0  0  0
 12 28  1  0  0  0  0
 12 29  1  0  0  0  0
 13 30  1  0  0  0  0
M  END
> <Chemgauss4 Score>
-4.98181438446045

> <Number of Confs>
161

$$$$
DAR-DIA-fc9-7
  -OEChem-03242005443D

 35 37  0     1  0  0  0  0  0999 V2000
   13.0745    0.0320   23.1959 C   0  0  0  0  0  0  0  0  0  0  0  0
   12.5204   -0.5867   22.0753 C   0  0  0  0  0  0  0  0  0  0  0  0
   12.5183   -0.1816   24.4571 C   0  0  0  0  0  0  0  0  0  0  0  0
    7.5658   -6.4416   27.8461 C   0  0  0  0  0  0  0  0  0  0  0  0
   11.4099   -1.4190   22.2159 C   0  0  0  0  0  0  0  0  0  0  0  0
   11.4078   -1.0139   24.5977 C   0  0  0  0  0  0  0  0  0  0  0  0
    7.8077   -5.8558   26.6085 C   0  0  0  0  0  0  0  0  0  0  0  0
    7.6400   -5.6357   28.9707 C   0  0  0  0  0  0  0  0  0  0  0  0
    8.1618   -3.7820   27.7178 C   0  0  0  0  0  0  0  0  0  0  0  0
   10.8536   -1.6326   23.4771 C   0  0  0  0  0  0  0  0  0  0  0  0
    8.1122   -4.5011   26.5344 C   0  0  0  0  0  0  0  0  0  0  0  0
    9.6040   -3.2389   24.9946 C   0  0  0  0  0  0  0  0  0  0  0  0
    7.1357   -2.7089   23.4292 C   0  0  0  0  0  0  0  0  0  0  0  0
    8.3368   -1.7705   23.4192 C   0  0  0  0  0  0  0  0  0  0  0  0
    7.3940   -4.0143   24.1812 C   0  0  0  0  0  0  0  0  0  0  0  0
    9.6437   -2.5391   23.6310 C   0  0  1  0  0  0  0  0  0  0  0  0
    7.9328   -4.3163   28.9383 N   0  0  0  0  0  0  0  0  0  0  0  0
    8.3678   -3.8663   25.2685 N   0  0  0  0  0  0  0  0  0  0  0  0
   10.6010   -3.2794   25.7162 O   0  0  0  0  0  0  0  0  0  0  0  0
   13.9400    0.6790   23.0864 H   0  0  0  0  0  0  0  0  0  0  0  0
   12.9541   -0.4214   21.0933 H   0  0  0  0  0  0  0  0  0  0  0  0
   12.9501    0.2991   25.3299 H   0  0  0  0  0  0  0  0  0  0  0  0
    7.3266   -7.4957   27.9277 H   0  0  0  0  0  0  0  0  0  0  0  0
   10.9847   -1.8968   21.3372 H   0  0  0  0  0  0  0  0  0  0  0  0
   10.9810   -1.1744   25.5842 H   0  0  0  0  0  0  0  0  0  0  0  0
    7.7565   -6.4636   25.7090 H   0  0  0  0  0  0  0  0  0  0  0  0
    7.4605   -6.0449   29.9595 H   0  0  0  0  0  0  0  0  0  0  0  0
    8.3941   -2.7212   27.7243 H   0  0  0  0  0  0  0  0  0  0  0  0
    6.2652   -2.1914   23.8842 H   0  0  0  0  0  0  0  0  0  0  0  0
    6.8243   -2.9355   22.3865 H   0  0  0  0  0  0  0  0  0  0  0  0
    8.3657   -1.2245   22.4589 H   0  0  0  0  0  0  0  0  0  0  0  0
    8.2068   -0.9981   24.2004 H   0  0  0  0  0  0  0  0  0  0  0  0
    6.4625   -4.3640   24.6278 H   0  0  0  0  0  0  0  0  0  0  0  0
    7.7535   -4.7680   23.4816 H   0  0  0  0  0  0  0  0  0  0  0  0
    9.7149   -3.3339   22.8858 H   0  0  0  0  0  0  0  0  0  0  0  0
  1  2  1  0  0  0  0
  1  3  2  0  0  0  0
  2  5  2  0  0  0  0
  3  6  1  0  0  0  0
  4  7  2  0  0  0  0
  4  8  1  0  0  0  0
  5 10  1  0  0  0  0
  6 10  2  0  0  0  0
  7 11  1  0  0  0  0
  8 17  2  0  0  0  0
  9 11  2  0  0  0  0
  9 17  1  0  0  0  0
 10 16  1  6  0  0  0
 11 18  1  0  0  0  0
 12 16  1  0  0  0  0
 12 18  1  0  0  0  0
 12 19  2  0  0  0  0
 13 14  1  0  0  0  0
 13 15  1  0  0  0  0
 14 16  1  0  0  0  0
 15 18  1  0  0  0  0
  1 20  1  0  0  0  0
  2 21  1  0  0  0  0
  3 22  1  0  0  0  0
  4 23  1  0  0  0  0
  5 24  1  0  0  0  0
  6 25  1  0  0  0  0
  7 26  1  0  0  0  0
  8 27  1  0  0  0  0
  9 28  1  0  0  0  0
 13 29  1  0  0  0  0
 13 30  1  0  0  0  0
 14 31  1  0  0  0  0
 14 32  1  0  0  0  0
 15 33  1  0  0  0  0
 15 34  1  0  0  0  0
 16 35  1  0  0  0  0
M  END
> <Chemgauss4 Score>
-4.98037385940552

> <Number of Confs>
20

$$$$
SAL-INS-1ea-2
  -OEChem-03242005443D

 42 44  0     1  0  0  0  0  0999 V2000
    7.8114   -4.8416   23.4662 C   0  0  0  0  0  0  0  0  0  0  0  0
    6.8188   -2.8124   24.3231 C   0  0  0  0  0  0  0  0  0  0  0  0
    6.5927   -5.5025   23.6194 C   0  0  0  0  0  0  0  0  0  0  0  0
    5.6001   -3.4733   24.4763 C   0  0  0  0  0  0  0  0  0  0  0  0
    9.0797    1.1151   23.2050 C   0  0  0  0  0  0  0  0  0  0  0  0
    7.9578    0.9513   22.3420 C   0  0  0  0  0  0  0  0  0  0  0  0
    7.9245   -3.4966   23.8181 C   0  0  0  0  0  0  0  0  0  0  0  0
    5.4870   -4.8184   24.1244 C   0  0  0  0  0  0  0  0  0  0  0  0
   10.1410    0.3208   22.8305 C   0  0  0  0  0  0  0  0  0  0  0  0
    8.2046    0.0381   21.3405 C   0  0  0  0  0  0  0  0  0  0  0  0
    9.2974   -4.3629   26.5390 C   0  0  0  0  0  0  0  0  0  0  0  0
   10.3475   -2.1409   26.5620 C   0  0  0  0  0  0  0  0  0  0  0  0
   10.4871   -0.9260   25.6606 C   0  0  0  0  0  0  0  0  0  0  0  0
   11.4798   -2.5813   24.0325 C   0  0  0  0  0  0  0  0  0  0  0  0
   10.2277   -3.3741   24.3974 C   0  0  1  0  0  0  0  0  0  0  0  0
    9.1000   -4.1467   28.0193 C   0  0  0  0  0  0  0  0  0  0  0  0
    9.9213   -3.3327   25.8307 N   0  0  0  0  0  0  0  0  0  0  0  0
   11.4660   -1.1936   24.5791 N   0  0  1  0  0  0  0  0  0  0  0  0
    8.8991   -5.4100   26.0216 O   0  0  0  0  0  0  0  0  0  0  0  0
   12.6067   -0.3971   22.4084 O   0  0  0  0  0  0  0  0  0  0  0  0
   12.1202    1.2740   24.2301 O   0  0  0  0  0  0  0  0  0  0  0  0
    9.1199   -2.8484   23.6679 O   0  0  0  0  0  0  0  0  0  0  0  0
    4.3166   -5.4530   24.2715 F   0  0  0  0  0  0  0  0  0  0  0  0
    9.7832   -0.6174   21.4434 S   0  0  0  0  0  0  0  0  0  0  0  0
   11.7639    0.0816   23.4865 S   0  0  0  0  0  0  0  0  0  0  0  0
    7.1451   -0.4618   20.0898 Cl  0  0  0  0  0  0  0  0  0  0  0  0
    8.2697   -5.5732   28.6295 Cl  0  0  0  0  0  0  0  0  0  0  0  0
    8.6691   -5.3800   23.0722 H   0  0  0  0  0  0  0  0  0  0  0  0
    6.9006   -1.7646   24.5990 H   0  0  0  0  0  0  0  0  0  0  0  0
    6.5042   -6.5497   23.3456 H   0  0  0  0  0  0  0  0  0  0  0  0
    4.7390   -2.9410   24.8695 H   0  0  0  0  0  0  0  0  0  0  0  0
    9.1041    1.7818   24.0573 H   0  0  0  0  0  0  0  0  0  0  0  0
    7.0196    1.4792   22.4569 H   0  0  0  0  0  0  0  0  0  0  0  0
   11.2969   -2.3238   27.0788 H   0  0  0  0  0  0  0  0  0  0  0  0
    9.5923   -1.9598   27.3378 H   0  0  0  0  0  0  0  0  0  0  0  0
    9.5181   -0.6553   25.2245 H   0  0  0  0  0  0  0  0  0  0  0  0
   10.8236   -0.0531   26.2345 H   0  0  0  0  0  0  0  0  0  0  0  0
   12.3716   -3.0825   24.4358 H   0  0  0  0  0  0  0  0  0  0  0  0
   11.6124   -2.5342   22.9425 H   0  0  0  0  0  0  0  0  0  0  0  0
   10.3685   -4.4009   24.0582 H   0  0  0  0  0  0  0  0  0  0  0  0
    8.4853   -3.2663   28.1660 H   0  0  0  0  0  0  0  0  0  0  0  0
   10.0705   -4.0494   28.4916 H   0  0  0  0  0  0  0  0  0  0  0  0
  1  3  2  0  0  0  0
  1  7  1  0  0  0  0
  2  4  1  0  0  0  0
  2  7  2  0  0  0  0
  3  8  1  0  0  0  0
  4  8  2  0  0  0  0
  5  6  1  0  0  0  0
  5  9  2  0  0  0  0
  6 10  2  0  0  0  0
  7 22  1  0  0  0  0
  8 23  1  0  0  0  0
  9 24  1  0  0  0  0
  9 25  1  0  0  0  0
 10 24  1  0  0  0  0
 10 26  1  0  0  0  0
 11 16  1  0  0  0  0
 11 17  1  0  0  0  0
 11 19  2  0  0  0  0
 12 13  1  0  0  0  0
 12 17  1  0  0  0  0
 13 18  1  0  0  0  0
 14 15  1  0  0  0  0
 14 18  1  0  0  0  0
 15 17  1  0  0  0  0
 15 22  1  0  0  0  0
 16 27  1  0  0  0  0
 18 25  1  6  0  0  0
 20 25  2  0  0  0  0
 21 25  2  0  0  0  0
  1 28  1  0  0  0  0
  2 29  1  0  0  0  0
  3 30  1  0  0  0  0
  4 31  1  0  0  0  0
  5 32  1  0  0  0  0
  6 33  1  0  0  0  0
 12 34  1  0  0  0  0
 12 35  1  0  0  0  0
 13 36  1  0  0  0  0
 13 37  1  0  0  0  0
 14 38  1  0  0  0  0
 14 39  1  0  0  0  0
 15 40  1  1  0  0  0
 16 41  1  0  0  0  0
 16 42  1  0  0  0  0
M  END
> <Chemgauss4 Score>
-4.97529935836792

> <Number of Confs>
200

$$$$
JOH-MEM-5e3-2
  -OEChem-03242005443D

 36 37  0     1  0  0  0  0  0999 V2000
    9.3195   -5.1442   27.0925 C   0  0  0  0  0  0  0  0  0  0  0  0
    8.0607   -4.7458   27.5492 C   0  0  0  0  0  0  0  0  0  0  0  0
    7.9767   -2.9650   25.8963 C   0  0  0  0  0  0  0  0  0  0  0  0
    9.2222   -3.3737   25.4470 C   0  0  0  0  0  0  0  0  0  0  0  0
    9.8807   -4.4634   26.0256 C   0  0  0  0  0  0  0  0  0  0  0  0
    7.3925   -3.6657   26.9529 C   0  0  0  0  0  0  0  0  0  0  0  0
   12.4496   -1.3145   22.2528 C   0  0  0  0  0  0  0  0  0  0  0  0
   11.2077   -3.8601   24.2558 C   0  0  0  0  0  0  0  0  0  0  0  0
   10.0954   -2.7825   24.3788 C   0  0  1  0  0  0  0  0  0  0  0  0
   13.8677   -1.7123   21.9999 C   0  0  0  0  0  0  0  0  0  0  0  0
    5.6335   -4.0357   28.5101 C   0  0  0  0  0  0  0  0  0  0  0  0
    9.3846   -2.5176   23.0583 C   0  0  0  0  0  0  0  0  0  0  0  0
   10.1309   -1.5204   22.1815 C   0  0  0  0  0  0  0  0  0  0  0  0
   11.4621   -2.0383   21.8620 N   0  0  0  0  0  0  0  0  0  0  0  0
   11.1389   -4.6749   25.4661 N   0  0  0  0  0  0  0  0  0  0  0  0
   12.3235   -0.1439   22.9189 O   0  0  0  0  0  0  0  0  0  0  0  0
   10.6524   -1.5704   24.8763 O   0  0  0  0  0  0  0  0  0  0  0  0
    6.1691   -3.2892   27.4192 O   0  0  0  0  0  0  0  0  0  0  0  0
    9.8378   -5.9710   27.5667 H   0  0  0  0  0  0  0  0  0  0  0  0
    7.6021   -5.2760   28.3802 H   0  0  0  0  0  0  0  0  0  0  0  0
    7.4715   -2.1162   25.4474 H   0  0  0  0  0  0  0  0  0  0  0  0
   11.0288   -4.5151   23.3941 H   0  0  0  0  0  0  0  0  0  0  0  0
   12.2049   -3.4194   24.1542 H   0  0  0  0  0  0  0  0  0  0  0  0
   14.1983   -1.3022   21.0419 H   0  0  0  0  0  0  0  0  0  0  0  0
   14.5041   -1.3308   22.8029 H   0  0  0  0  0  0  0  0  0  0  0  0
   13.9563   -2.8018   21.9669 H   0  0  0  0  0  0  0  0  0  0  0  0
    4.6554   -3.6323   28.7832 H   0  0  0  0  0  0  0  0  0  0  0  0
    6.3149   -3.9766   29.3625 H   0  0  0  0  0  0  0  0  0  0  0  0
    5.5227   -5.0793   28.2063 H   0  0  0  0  0  0  0  0  0  0  0  0
    8.3841   -2.1245   23.2719 H   0  0  0  0  0  0  0  0  0  0  0  0
    9.2541   -3.4655   22.5235 H   0  0  0  0  0  0  0  0  0  0  0  0
    9.5804   -1.3653   21.2478 H   0  0  0  0  0  0  0  0  0  0  0  0
   10.2240   -0.5510   22.6819 H   0  0  0  0  0  0  0  0  0  0  0  0
   11.6280   -5.5532   25.5678 H   0  0  0  0  0  0  0  0  0  0  0  0
   13.1770    0.2697   23.1369 H   0  0  0  0  0  0  0  0  0  0  0  0
   11.2103   -1.2103   24.1690 H   0  0  0  0  0  0  0  0  0  0  0  0
  1  2  2  0  0  0  0
  1  5  1  0  0  0  0
  2  6  1  0  0  0  0
  3  4  1  0  0  0  0
  3  6  2  0  0  0  0
  4  5  2  0  0  0  0
  4  9  1  0  0  0  0
  5 15  1  0  0  0  0
  6 18  1  0  0  0  0
  7 10  1  0  0  0  0
  7 14  2  0  0  0  0
  7 16  1  0  0  0  0
  8  9  1  0  0  0  0
  8 15  1  0  0  0  0
  9 12  1  0  0  0  0
  9 17  1  1  0  0  0
 11 18  1  0  0  0  0
 12 13  1  0  0  0  0
 13 14  1  0  0  0  0
  1 19  1  0  0  0  0
  2 20  1  0  0  0  0
  3 21  1  0  0  0  0
  8 22  1  0  0  0  0
  8 23  1  0  0  0  0
 10 24  1  0  0  0  0
 10 25  1  0  0  0  0
 10 26  1  0  0  0  0
 11 27  1  0  0  0  0
 11 28  1  0  0  0  0
 11 29  1  0  0  0  0
 12 30  1  0  0  0  0
 12 31  1  0  0  0  0
 13 32  1  0  0  0  0
 13 33  1  0  0  0  0
 15 34  1  0  0  0  0
 16 35  1  0  0  0  0
 17 36  1  0  0  0  0
M  END
> <Chemgauss4 Score>
-4.97034502029419

> <Number of Confs>
45

$$$$
ADA-UNI-f8e-6
  -OEChem-03242005443D

 40 42  0     1  0  0  0  0  0999 V2000
    6.0618   -5.7794   22.0834 C   0  0  0  0  0  0  0  0  0  0  0  0
    7.3408   -6.1217   22.5223 C   0  0  0  0  0  0  0  0  0  0  0  0
    5.3057   -4.8487   22.7960 C   0  0  0  0  0  0  0  0  0  0  0  0
   12.0208   -1.1405   22.5113 C   0  0  0  0  0  0  0  0  0  0  0  0
    7.8637   -5.5334   23.6739 C   0  0  0  0  0  0  0  0  0  0  0  0
    5.8286   -4.2604   23.9476 C   0  0  0  0  0  0  0  0  0  0  0  0
   11.0911   -2.0957   22.9068 C   0  0  0  0  0  0  0  0  0  0  0  0
   12.2827   -0.0923   23.3787 C   0  0  0  0  0  0  0  0  0  0  0  0
   10.7926   -0.8899   24.9348 C   0  0  0  0  0  0  0  0  0  0  0  0
    7.1076   -4.6027   24.3865 C   0  0  0  0  0  0  0  0  0  0  0  0
   10.4607   -1.9753   24.1402 C   0  0  0  0  0  0  0  0  0  0  0  0
    8.4200   -2.7231   25.4054 C   0  0  0  0  0  0  0  0  0  0  0  0
    6.8444   -4.0833   26.8977 C   0  0  0  0  0  0  0  0  0  0  0  0
    8.0862   -4.9071   26.7526 C   0  0  1  0  0  0  0  0  0  0  0  0
    7.6652   -3.9747   25.6174 C   0  0  1  0  0  0  0  0  0  0  0  0
   10.3793   -6.6294   26.8932 C   0  0  0  0  0  0  0  0  0  0  0  0
    9.2709   -4.6261   27.6138 C   0  0  0  0  0  0  0  0  0  0  0  0
   11.6904    0.0582   24.5846 N   0  0  0  0  0  0  0  0  0  0  0  0
    9.5101   -2.9314   24.5701 N   0  0  0  0  0  0  0  0  0  0  0  0
   10.4688   -5.1759   27.0421 N   0  0  0  0  0  0  0  0  0  0  0  0
    8.0606   -1.6758   25.9336 O   0  0  0  0  0  0  0  0  0  0  0  0
    5.6548   -6.2374   21.1867 H   0  0  0  0  0  0  0  0  0  0  0  0
    7.9299   -6.8463   21.9675 H   0  0  0  0  0  0  0  0  0  0  0  0
    4.3097   -4.5824   22.4542 H   0  0  0  0  0  0  0  0  0  0  0  0
   12.5244   -1.2142   21.5542 H   0  0  0  0  0  0  0  0  0  0  0  0
    8.8609   -5.8071   24.0081 H   0  0  0  0  0  0  0  0  0  0  0  0
    5.2309   -3.5368   24.4960 H   0  0  0  0  0  0  0  0  0  0  0  0
   10.8656   -2.9292   22.2467 H   0  0  0  0  0  0  0  0  0  0  0  0
   12.9991    0.6793   23.1164 H   0  0  0  0  0  0  0  0  0  0  0  0
   10.3343   -0.7417   25.9082 H   0  0  0  0  0  0  0  0  0  0  0  0
    5.8921   -4.6012   26.8636 H   0  0  0  0  0  0  0  0  0  0  0  0
    6.8554   -3.2478   27.5889 H   0  0  0  0  0  0  0  0  0  0  0  0
    7.9607   -5.9746   26.6033 H   0  0  0  0  0  0  0  0  0  0  0  0
   10.1947   -7.0885   27.8756 H   0  0  0  0  0  0  0  0  0  0  0  0
    9.5526   -6.8778   26.2114 H   0  0  0  0  0  0  0  0  0  0  0  0
   11.3234   -7.0144   26.4803 H   0  0  0  0  0  0  0  0  0  0  0  0
    9.3888   -3.5375   27.7171 H   0  0  0  0  0  0  0  0  0  0  0  0
    9.1077   -5.0734   28.6052 H   0  0  0  0  0  0  0  0  0  0  0  0
    9.6526   -3.8762   24.2190 H   0  0  0  0  0  0  0  0  0  0  0  0
   10.6409   -4.7675   26.1164 H   0  0  0  0  0  0  0  0  0  0  0  0
  1  2  1  0  0  0  0
  1  3  2  0  0  0  0
  2  5  2  0  0  0  0
  3  6  1  0  0  0  0
  4  7  2  0  0  0  0
  4  8  1  0  0  0  0
  5 10  1  0  0  0  0
  6 10  2  0  0  0  0
  7 11  1  0  0  0  0
  8 18  2  0  0  0  0
  9 11  2  0  0  0  0
  9 18  1  0  0  0  0
 10 15  1  0  0  0  0
 11 19  1  0  0  0  0
 12 15  1  1  0  0  0
 12 19  1  0  0  0  0
 12 21  2  0  0  0  0
 13 14  1  0  0  0  0
 13 15  1  0  0  0  0
 14 15  1  0  0  0  0
 14 17  1  6  0  0  0
 16 20  1  0  0  0  0
 17 20  1  0  0  0  0
  1 22  1  0  0  0  0
  2 23  1  0  0  0  0
  3 24  1  0  0  0  0
  4 25  1  0  0  0  0
  5 26  1  0  0  0  0
  6 27  1  0  0  0  0
  7 28  1  0  0  0  0
  8 29  1  0  0  0  0
  9 30  1  0  0  0  0
 13 31  1  0  0  0  0
 13 32  1  0  0  0  0
 14 33  1  0  0  0  0
 16 34  1  0  0  0  0
 16 35  1  0  0  0  0
 16 36  1  0  0  0  0
 17 37  1  0  0  0  0
 17 38  1  0  0  0  0
 19 39  1  0  0  0  0
 20 40  1  0  0  0  0
M  END
> <Chemgauss4 Score>
-4.96894836425781

> <Number of Confs>
60

$$$$
CAR-INS-33b-1
  -OEChem-03242005443D

 45 48  0     0  0  0  0  0  0999 V2000
    6.6461   -6.0428   28.9907 C   0  0  0  0  0  0  0  0  0  0  0  0
    7.7649   -5.8585   28.1784 C   0  0  0  0  0  0  0  0  0  0  0  0
    5.3836   -6.1897   28.4162 C   0  0  0  0  0  0  0  0  0  0  0  0
    8.6156   -0.3068   23.3702 C   0  0  0  0  0  0  0  0  0  0  0  0
    6.3586   -5.9679   26.2169 C   0  0  0  0  0  0  0  0  0  0  0  0
    7.4601   -0.4215   22.6087 C   0  0  0  0  0  0  0  0  0  0  0  0
    8.5820   -1.0372   20.6621 C   0  0  0  0  0  0  0  0  0  0  0  0
   11.9360   -0.9421   21.9965 C   0  0  0  0  0  0  0  0  0  0  0  0
    9.8213   -0.5814   22.7093 C   0  0  0  0  0  0  0  0  0  0  0  0
    7.6212   -5.8211   26.7915 C   0  0  0  0  0  0  0  0  0  0  0  0
   11.1903   -0.5852   23.0967 C   0  0  0  0  0  0  0  0  0  0  0  0
    9.7780   -0.9427   21.3617 C   0  0  0  0  0  0  0  0  0  0  0  0
    5.2398   -6.1522   27.0293 C   0  0  0  0  0  0  0  0  0  0  0  0
   11.7656   -0.2712   24.4260 C   0  0  0  0  0  0  0  0  0  0  0  0
    8.7984   -5.6269   25.9357 C   0  0  0  0  0  0  0  0  0  0  0  0
   10.9653   -0.5521   25.6347 C   0  0  0  0  0  0  0  0  0  0  0  0
   10.3325   -4.0818   24.7636 C   0  0  0  0  0  0  0  0  0  0  0  0
    8.4254   -3.1045   25.9684 C   0  0  0  0  0  0  0  0  0  0  0  0
   11.2790   -3.0792   25.4237 C   0  0  0  0  0  0  0  0  0  0  0  0
    9.3591   -2.1176   26.6590 C   0  0  0  0  0  0  0  0  0  0  0  0
    7.4199   -0.7717   21.3026 N   0  0  0  0  0  0  0  0  0  0  0  0
   11.0740   -1.1557   20.9540 N   0  0  0  0  0  0  0  0  0  0  0  0
    9.1604   -4.3210   25.6028 N   0  0  0  0  0  0  0  0  0  0  0  0
   10.5609   -1.8669   25.8537 N   0  0  0  0  0  0  0  0  0  0  0  0
   12.8948    0.1955   24.5277 O   0  0  0  0  0  0  0  0  0  0  0  0
    9.3882   -6.6465   25.5816 O   0  0  0  0  0  0  0  0  0  0  0  0
   10.7077    0.3946   26.3803 O   0  0  0  0  0  0  0  0  0  0  0  0
    4.0276   -6.2932   26.4774 F   0  0  0  0  0  0  0  0  0  0  0  0
    6.7580   -6.0720   30.0705 H   0  0  0  0  0  0  0  0  0  0  0  0
    8.7441   -5.7446   28.6365 H   0  0  0  0  0  0  0  0  0  0  0  0
    4.5123   -6.3331   29.0486 H   0  0  0  0  0  0  0  0  0  0  0  0
    8.5773   -0.0197   24.4147 H   0  0  0  0  0  0  0  0  0  0  0  0
    6.2346   -5.9399   25.1373 H   0  0  0  0  0  0  0  0  0  0  0  0
    6.4905   -0.2225   23.0554 H   0  0  0  0  0  0  0  0  0  0  0  0
    8.5210   -1.3153   19.6182 H   0  0  0  0  0  0  0  0  0  0  0  0
   13.0016   -1.0638   21.8586 H   0  0  0  0  0  0  0  0  0  0  0  0
    9.9766   -3.6960   23.8009 H   0  0  0  0  0  0  0  0  0  0  0  0
   10.8634   -5.0188   24.5669 H   0  0  0  0  0  0  0  0  0  0  0  0
    7.5789   -3.3270   26.6226 H   0  0  0  0  0  0  0  0  0  0  0  0
    8.0213   -2.6728   25.0449 H   0  0  0  0  0  0  0  0  0  0  0  0
   11.7338   -3.5173   26.3201 H   0  0  0  0  0  0  0  0  0  0  0  0
   12.0887   -2.8342   24.7318 H   0  0  0  0  0  0  0  0  0  0  0  0
    8.8316   -1.1777   26.8521 H   0  0  0  0  0  0  0  0  0  0  0  0
    9.6913   -2.5129   27.6264 H   0  0  0  0  0  0  0  0  0  0  0  0
   11.3501   -1.4298   20.0212 H   0  0  0  0  0  0  0  0  0  0  0  0
  1  2  2  0  0  0  0
  1  3  1  0  0  0  0
  2 10  1  0  0  0  0
  3 13  2  0  0  0  0
  4  6  2  0  0  0  0
  4  9  1  0  0  0  0
  5 10  2  0  0  0  0
  5 13  1  0  0  0  0
  6 21  1  0  0  0  0
  7 12  1  0  0  0  0
  7 21  2  0  0  0  0
  8 11  2  0  0  0  0
  8 22  1  0  0  0  0
  9 11  1  0  0  0  0
  9 12  2  0  0  0  0
 10 15  1  0  0  0  0
 11 14  1  0  0  0  0
 12 22  1  0  0  0  0
 13 28  1  0  0  0  0
 14 16  1  0  0  0  0
 14 25  2  0  0  0  0
 15 23  1  0  0  0  0
 15 26  2  0  0  0  0
 16 24  1  0  0  0  0
 16 27  2  0  0  0  0
 17 19  1  0  0  0  0
 17 23  1  0  0  0  0
 18 20  1  0  0  0  0
 18 23  1  0  0  0  0
 19 24  1  0  0  0  0
 20 24  1  0  0  0  0
  1 29  1  0  0  0  0
  2 30  1  0  0  0  0
  3 31  1  0  0  0  0
  4 32  1  0  0  0  0
  5 33  1  0  0  0  0
  6 34  1  0  0  0  0
  7 35  1  0  0  0  0
  8 36  1  0  0  0  0
 17 37  1  0  0  0  0
 17 38  1  0  0  0  0
 18 39  1  0  0  0  0
 18 40  1  0  0  0  0
 19 41  1  0  0  0  0
 19 42  1  0  0  0  0
 20 43  1  0  0  0  0
 20 44  1  0  0  0  0
 22 45  1  0  0  0  0
M  END
> <Chemgauss4 Score>
-4.96536922454834

> <Number of Confs>
200

$$$$
GIA-UNK-595-4
  -OEChem-03242005443D

 38 39  0     0  0  0  0  0  0999 V2000
   13.6572   -1.0490   21.8815 C   0  0  0  0  0  0  0  0  0  0  0  0
   12.4154   -1.6667   21.7333 C   0  0  0  0  0  0  0  0  0  0  0  0
   13.9085   -0.2461   22.9942 C   0  0  0  0  0  0  0  0  0  0  0  0
   11.4249   -1.4815   22.6977 C   0  0  0  0  0  0  0  0  0  0  0  0
   12.9179   -0.0610   23.9586 C   0  0  0  0  0  0  0  0  0  0  0  0
   11.6761   -0.6787   23.8104 C   0  0  0  0  0  0  0  0  0  0  0  0
    7.2164   -5.4186   27.2282 C   0  0  0  0  0  0  0  0  0  0  0  0
    9.5171   -4.3639   25.3144 C   0  0  0  0  0  0  0  0  0  0  0  0
    7.4945   -3.1557   24.4303 C   0  0  0  0  0  0  0  0  0  0  0  0
   10.0881   -3.0256   25.7797 C   0  0  0  0  0  0  0  0  0  0  0  0
    8.0995   -1.8361   24.9070 C   0  0  0  0  0  0  0  0  0  0  0  0
    7.9889   -4.3412   25.2588 C   0  0  0  0  0  0  0  0  0  0  0  0
    6.3471   -6.2078   29.4241 C   0  0  0  0  0  0  0  0  0  0  0  0
    9.5885   -1.9342   24.8928 N   0  0  0  0  0  0  0  0  0  0  0  0
    6.7056   -5.1703   28.4847 N   0  0  0  0  0  0  0  0  0  0  0  0
    7.4309   -6.5268   26.7481 O   0  0  0  0  0  0  0  0  0  0  0  0
   11.0658   -0.3786   26.3226 O   0  0  0  0  0  0  0  0  0  0  0  0
    9.5527    0.6222   24.5743 O   0  0  0  0  0  0  0  0  0  0  0  0
    7.4562   -4.2367   26.5767 O   0  0  0  0  0  0  0  0  0  0  0  0
   10.4211   -0.4419   25.0289 S   0  0  0  0  0  0  0  0  0  0  0  0
   14.4288   -1.1922   21.1306 H   0  0  0  0  0  0  0  0  0  0  0  0
   12.2190   -2.2909   20.8666 H   0  0  0  0  0  0  0  0  0  0  0  0
   14.8752    0.2352   23.1089 H   0  0  0  0  0  0  0  0  0  0  0  0
   10.4606   -1.9666   22.5721 H   0  0  0  0  0  0  0  0  0  0  0  0
   13.1241    0.5675   24.8207 H   0  0  0  0  0  0  0  0  0  0  0  0
    9.9214   -4.6235   24.3270 H   0  0  0  0  0  0  0  0  0  0  0  0
    9.8471   -5.1660   25.9906 H   0  0  0  0  0  0  0  0  0  0  0  0
    6.3971   -3.1045   24.4829 H   0  0  0  0  0  0  0  0  0  0  0  0
    7.7323   -3.3163   23.3702 H   0  0  0  0  0  0  0  0  0  0  0  0
    9.7620   -2.8395   26.8083 H   0  0  0  0  0  0  0  0  0  0  0  0
   11.1833   -3.0460   25.7609 H   0  0  0  0  0  0  0  0  0  0  0  0
    7.7764   -1.0092   24.2645 H   0  0  0  0  0  0  0  0  0  0  0  0
    7.7559   -1.6373   25.9275 H   0  0  0  0  0  0  0  0  0  0  0  0
    7.6186   -5.2786   24.8221 H   0  0  0  0  0  0  0  0  0  0  0  0
    5.2943   -6.4898   29.2756 H   0  0  0  0  0  0  0  0  0  0  0  0
    6.9884   -7.0866   29.2620 H   0  0  0  0  0  0  0  0  0  0  0  0
    6.4859   -5.8369   30.4504 H   0  0  0  0  0  0  0  0  0  0  0  0
    6.5739   -4.2035   28.7657 H   0  0  0  0  0  0  0  0  0  0  0  0
  1  2  1  0  0  0  0
  1  3  2  0  0  0  0
  2  4  2  0  0  0  0
  3  5  1  0  0  0  0
  4  6  1  0  0  0  0
  5  6  2  0  0  0  0
  6 20  1  0  0  0  0
  7 15  1  0  0  0  0
  7 16  2  0  0  0  0
  7 19  1  0  0  0  0
  8 10  1  0  0  0  0
  8 12  1  0  0  0  0
  9 11  1  0  0  0  0
  9 12  1  0  0  0  0
 10 14  1  0  0  0  0
 11 14  1  0  0  0  0
 12 19  1  0  0  0  0
 13 15  1  0  0  0  0
 14 20  1  0  0  0  0
 17 20  2  0  0  0  0
 18 20  2  0  0  0  0
  1 21  1  0  0  0  0
  2 22  1  0  0  0  0
  3 23  1  0  0  0  0
  4 24  1  0  0  0  0
  5 25  1  0  0  0  0
  8 26  1  0  0  0  0
  8 27  1  0  0  0  0
  9 28  1  0  0  0  0
  9 29  1  0  0  0  0
 10 30  1  0  0  0  0
 10 31  1  0  0  0  0
 11 32  1  0  0  0  0
 11 33  1  0  0  0  0
 12 34  1  0  0  0  0
 13 35  1  0  0  0  0
 13 36  1  0  0  0  0
 13 37  1  0  0  0  0
 15 38  1  0  0  0  0
M  END
> <Chemgauss4 Score>
-4.96244049072266

> <Number of Confs>
56

$$$$
DAR-DIA-033-9
  -OEChem-03242005443D

 53 55  0     0  0  0  0  0  0999 V2000
   14.0241   -0.1452   22.8088 C   0  0  0  0  0  0  0  0  0  0  0  0
   13.6892   -1.0984   21.8472 C   0  0  0  0  0  0  0  0  0  0  0  0
   13.0266    0.4363   23.5915 C   0  0  0  0  0  0  0  0  0  0  0  0
   12.3567   -1.4702   21.6682 C   0  0  0  0  0  0  0  0  0  0  0  0
   11.6942    0.0646   23.4125 C   0  0  0  0  0  0  0  0  0  0  0  0
    9.2204   -3.2171   28.0109 C   0  0  0  0  0  0  0  0  0  0  0  0
    8.0931   -2.4837   28.3442 C   0  0  0  0  0  0  0  0  0  0  0  0
    7.9981   -1.5154   26.2630 C   0  0  0  0  0  0  0  0  0  0  0  0
   11.3592   -0.8887   22.4508 C   0  0  0  0  0  0  0  0  0  0  0  0
    9.7380   -3.0685   26.7290 C   0  0  0  0  0  0  0  0  0  0  0  0
    9.1212   -2.2032   25.8322 C   0  0  0  0  0  0  0  0  0  0  0  0
    9.0887   -1.1883   23.5270 C   0  0  0  0  0  0  0  0  0  0  0  0
    8.3668   -5.5447   25.1376 C   0  0  0  0  0  0  0  0  0  0  0  0
    5.9286   -5.0457   21.6964 C   0  0  0  0  0  0  0  0  0  0  0  0
    5.4532   -4.8233   23.1291 C   0  0  0  0  0  0  0  0  0  0  0  0
    7.4500   -4.9656   21.6175 C   0  0  0  0  0  0  0  0  0  0  0  0
    6.1383   -5.7911   24.0876 C   0  0  0  0  0  0  0  0  0  0  0  0
    8.1201   -5.9156   22.6103 C   0  0  0  0  0  0  0  0  0  0  0  0
    9.9201   -1.2895   22.2579 C   0  0  0  0  0  0  0  0  0  0  0  0
   10.9656   -3.8546   26.3390 C   0  0  0  0  0  0  0  0  0  0  0  0
   10.6651   -5.3231   26.0489 C   0  0  0  0  0  0  0  0  0  0  0  0
    7.4664   -1.6337   27.5003 N   0  0  0  0  0  0  0  0  0  0  0  0
    7.5986   -5.7207   23.9729 N   0  0  0  0  0  0  0  0  0  0  0  0
    9.6023   -2.0207   24.5360 N   0  0  0  0  0  0  0  0  0  0  0  0
    9.7427   -5.4938   24.9485 N   0  0  0  0  0  0  0  0  0  0  0  0
    8.1042   -0.4609   23.6096 O   0  0  0  0  0  0  0  0  0  0  0  0
    7.8641   -5.4459   26.2621 O   0  0  0  0  0  0  0  0  0  0  0  0
   15.0618    0.1432   22.9490 H   0  0  0  0  0  0  0  0  0  0  0  0
   14.4658   -1.5521   21.2384 H   0  0  0  0  0  0  0  0  0  0  0  0
   13.2871    1.1777   24.3410 H   0  0  0  0  0  0  0  0  0  0  0  0
   12.1050   -2.2136   20.9164 H   0  0  0  0  0  0  0  0  0  0  0  0
   10.9237    0.5230   24.0268 H   0  0  0  0  0  0  0  0  0  0  0  0
    9.6780   -3.8835   28.7341 H   0  0  0  0  0  0  0  0  0  0  0  0
    7.6504   -2.5638   29.3316 H   0  0  0  0  0  0  0  0  0  0  0  0
    7.4723   -0.8260   25.6090 H   0  0  0  0  0  0  0  0  0  0  0  0
    5.5872   -6.0231   21.3379 H   0  0  0  0  0  0  0  0  0  0  0  0
    5.4849   -4.2874   21.0397 H   0  0  0  0  0  0  0  0  0  0  0  0
    5.6644   -3.7940   23.4292 H   0  0  0  0  0  0  0  0  0  0  0  0
    4.3693   -4.9628   23.1808 H   0  0  0  0  0  0  0  0  0  0  0  0
    7.7832   -5.2072   20.5975 H   0  0  0  0  0  0  0  0  0  0  0  0
    7.7752   -3.9356   21.8190 H   0  0  0  0  0  0  0  0  0  0  0  0
    5.8832   -5.5470   25.1276 H   0  0  0  0  0  0  0  0  0  0  0  0
    5.7539   -6.7934   23.8839 H   0  0  0  0  0  0  0  0  0  0  0  0
    7.9819   -6.9479   22.2814 H   0  0  0  0  0  0  0  0  0  0  0  0
    9.1975   -5.7262   22.6499 H   0  0  0  0  0  0  0  0  0  0  0  0
    9.4621   -0.6575   21.4863 H   0  0  0  0  0  0  0  0  0  0  0  0
    9.8731   -2.3210   21.8865 H   0  0  0  0  0  0  0  0  0  0  0  0
   11.6953   -3.7884   27.1560 H   0  0  0  0  0  0  0  0  0  0  0  0
   11.4440   -3.3879   25.4685 H   0  0  0  0  0  0  0  0  0  0  0  0
   11.5867   -5.8447   25.7721 H   0  0  0  0  0  0  0  0  0  0  0  0
   10.2360   -5.8275   26.9209 H   0  0  0  0  0  0  0  0  0  0  0  0
   10.4379   -2.5633   24.2874 H   0  0  0  0  0  0  0  0  0  0  0  0
   10.1110   -5.5789   24.0103 H   0  0  0  0  0  0  0  0  0  0  0  0
  1  2  1  0  0  0  0
  1  3  2  0  0  0  0
  2  4  2  0  0  0  0
  3  5  1  0  0  0  0
  4  9  1  0  0  0  0
  5  9  2  0  0  0  0
  6  7  2  0  0  0  0
  6 10  1  0  0  0  0
  7 22  1  0  0  0  0
  8 11  1  0  0  0  0
  8 22  2  0  0  0  0
  9 19  1  0  0  0  0
 10 11  2  0  0  0  0
 10 20  1  0  0  0  0
 11 24  1  0  0  0  0
 12 19  1  0  0  0  0
 12 24  1  0  0  0  0
 12 26  2  0  0  0  0
 13 23  1  0  0  0  0
 13 25  1  0  0  0  0
 13 27  2  0  0  0  0
 14 15  1  0  0  0  0
 14 16  1  0  0  0  0
 15 17  1  0  0  0  0
 16 18  1  0  0  0  0
 17 23  1  0  0  0  0
 18 23  1  0  0  0  0
 20 21  1  0  0  0  0
 21 25  1  0  0  0  0
  1 28  1  0  0  0  0
  2 29  1  0  0  0  0
  3 30  1  0  0  0  0
  4 31  1  0  0  0  0
  5 32  1  0  0  0  0
  6 33  1  0  0  0  0
  7 34  1  0  0  0  0
  8 35  1  0  0  0  0
 14 36  1  0  0  0  0
 14 37  1  0  0  0  0
 15 38  1  0  0  0  0
 15 39  1  0  0  0  0
 16 40  1  0  0  0  0
 16 41  1  0  0  0  0
 17 42  1  0  0  0  0
 17 43  1  0  0  0  0
 18 44  1  0  0  0  0
 18 45  1  0  0  0  0
 19 46  1  0  0  0  0
 19 47  1  0  0  0  0
 20 48  1  0  0  0  0
 20 49  1  0  0  0  0
 21 50  1  0  0  0  0
 21 51  1  0  0  0  0
 24 52  1  0  0  0  0
 25 53  1  0  0  0  0
M  END
> <Chemgauss4 Score>
-4.95688915252686

> <Number of Confs>
200

$$$$
NAU-LAT-ec9-5
  -OEChem-03242005443D

 38 41  0     1  0  0  0  0  0999 V2000
   12.0334   -1.4742   21.9916 C   0  0  0  0  0  0  0  0  0  0  0  0
   10.6919   -1.7083   21.6895 C   0  0  0  0  0  0  0  0  0  0  0  0
   12.5553   -1.8901   23.2165 C   0  0  0  0  0  0  0  0  0  0  0  0
    5.7678   -3.2219   23.8172 C   0  0  0  0  0  0  0  0  0  0  0  0
    9.7371   -0.8873   27.6485 C   0  0  0  0  0  0  0  0  0  0  0  0
    5.5261   -4.5936   23.6308 C   0  0  0  0  0  0  0  0  0  0  0  0
    9.5305   -1.6646   28.7881 C   0  0  0  0  0  0  0  0  0  0  0  0
    9.8723   -2.3582   22.6123 C   0  0  0  0  0  0  0  0  0  0  0  0
   11.7357   -2.5400   24.1393 C   0  0  0  0  0  0  0  0  0  0  0  0
    7.0277   -2.7637   24.2159 C   0  0  0  0  0  0  0  0  0  0  0  0
    9.7218   -1.4816   26.3867 C   0  0  0  0  0  0  0  0  0  0  0  0
    6.5392   -5.5292   23.8413 C   0  0  0  0  0  0  0  0  0  0  0  0
    9.3088   -3.0363   28.6660 C   0  0  0  0  0  0  0  0  0  0  0  0
   10.3942   -2.7740   23.8372 C   0  0  0  0  0  0  0  0  0  0  0  0
    8.0364   -3.6946   24.4198 C   0  0  0  0  0  0  0  0  0  0  0  0
    9.5000   -2.8533   26.2645 C   0  0  0  0  0  0  0  0  0  0  0  0
    7.7743   -5.0511   24.2345 C   0  0  0  0  0  0  0  0  0  0  0  0
    9.2935   -3.6307   27.4042 C   0  0  0  0  0  0  0  0  0  0  0  0
    9.9798   -4.9911   24.8920 C   0  0  0  0  0  0  0  0  0  0  0  0
    9.4870   -3.4936   24.8597 C   0  0  2  0  0  0  0  0  0  0  0  0
    8.9088   -5.8006   24.5068 N   0  0  0  0  0  0  0  0  0  0  0  0
   11.1008   -5.3746   25.1975 O   0  0  0  0  0  0  0  0  0  0  0  0
    9.0764   -4.9719   27.3024 O   0  0  0  0  0  0  0  0  0  0  0  0
   12.6717   -0.9693   21.2725 H   0  0  0  0  0  0  0  0  0  0  0  0
   10.2857   -1.3855   20.7353 H   0  0  0  0  0  0  0  0  0  0  0  0
   13.5999   -1.7090   23.4517 H   0  0  0  0  0  0  0  0  0  0  0  0
    4.9644   -2.5092   23.6501 H   0  0  0  0  0  0  0  0  0  0  0  0
    9.9103    0.1809   27.7432 H   0  0  0  0  0  0  0  0  0  0  0  0
    4.5391   -4.9268   23.3215 H   0  0  0  0  0  0  0  0  0  0  0  0
    9.5434   -1.2015   29.7704 H   0  0  0  0  0  0  0  0  0  0  0  0
    8.8283   -2.5362   22.3683 H   0  0  0  0  0  0  0  0  0  0  0  0
   12.1509   -2.8603   25.0912 H   0  0  0  0  0  0  0  0  0  0  0  0
    7.2047   -1.7030   24.3592 H   0  0  0  0  0  0  0  0  0  0  0  0
    9.8852   -0.8675   25.5050 H   0  0  0  0  0  0  0  0  0  0  0  0
    6.3546   -6.5883   23.7019 H   0  0  0  0  0  0  0  0  0  0  0  0
    9.1486   -3.6366   29.5574 H   0  0  0  0  0  0  0  0  0  0  0  0
    8.9427   -6.8110   24.4383 H   0  0  0  0  0  0  0  0  0  0  0  0
    8.9531   -5.3590   28.1833 H   0  0  0  0  0  0  0  0  0  0  0  0
  1  2  1  0  0  0  0
  1  3  2  0  0  0  0
  2  8  2  0  0  0  0
  3  9  1  0  0  0  0
  4  6  1  0  0  0  0
  4 10  2  0  0  0  0
  5  7  1  0  0  0  0
  5 11  2  0  0  0  0
  6 12  2  0  0  0  0
  7 13  2  0  0  0  0
  8 14  1  0  0  0  0
  9 14  2  0  0  0  0
 10 15  1  0  0  0  0
 11 16  1  0  0  0  0
 12 17  1  0  0  0  0
 13 18  1  0  0  0  0
 14 20  1  6  0  0  0
 15 17  2  0  0  0  0
 15 20  1  0  0  0  0
 16 18  2  0  0  0  0
 16 20  1  1  0  0  0
 17 21  1  0  0  0  0
 18 23  1  0  0  0  0
 19 20  1  0  0  0  0
 19 21  1  0  0  0  0
 19 22  2  0  0  0  0
  1 24  1  0  0  0  0
  2 25  1  0  0  0  0
  3 26  1  0  0  0  0
  4 27  1  0  0  0  0
  5 28  1  0  0  0  0
  6 29  1  0  0  0  0
  7 30  1  0  0  0  0
  8 31  1  0  0  0  0
  9 32  1  0  0  0  0
 10 33  1  0  0  0  0
 11 34  1  0  0  0  0
 12 35  1  0  0  0  0
 13 36  1  0  0  0  0
 21 37  1  0  0  0  0
 23 38  1  0  0  0  0
M  END
> <Chemgauss4 Score>
-4.95680093765259

> <Number of Confs>
2

$$$$
CHR-SOS-709-9
  -OEChem-03242005443D

 26 27  0     0  0  0  0  0  0999 V2000
    6.8455   -5.2187   28.3277 C   0  0  0  0  0  0  0  0  0  0  0  0
   12.5564   -0.4953   22.8610 C   0  0  0  0  0  0  0  0  0  0  0  0
    8.0622   -4.7870   28.8557 C   0  0  0  0  0  0  0  0  0  0  0  0
    6.6522   -5.2380   26.9464 C   0  0  0  0  0  0  0  0  0  0  0  0
   12.2759   -1.8397   22.6177 C   0  0  0  0  0  0  0  0  0  0  0  0
   11.9742    0.1526   23.9505 C   0  0  0  0  0  0  0  0  0  0  0  0
    9.0857   -4.3745   28.0025 C   0  0  0  0  0  0  0  0  0  0  0  0
    7.6757   -4.8255   26.0931 C   0  0  0  0  0  0  0  0  0  0  0  0
   11.4130   -2.5363   23.4637 C   0  0  0  0  0  0  0  0  0  0  0  0
   11.1113   -0.5440   24.7965 C   0  0  0  0  0  0  0  0  0  0  0  0
    8.8924   -4.3937   26.6211 C   0  0  0  0  0  0  0  0  0  0  0  0
   10.8307   -1.8885   24.5532 C   0  0  0  0  0  0  0  0  0  0  0  0
    9.9595   -3.9636   25.7316 C   0  0  0  0  0  0  0  0  0  0  0  0
    9.9538   -2.5967   25.4130 N   0  0  0  0  0  0  0  0  0  0  0  0
   10.7845   -4.7640   25.2694 O   0  0  0  0  0  0  0  0  0  0  0  0
    6.0486   -5.5398   28.9921 H   0  0  0  0  0  0  0  0  0  0  0  0
   13.2289    0.0473   22.2029 H   0  0  0  0  0  0  0  0  0  0  0  0
    8.2124   -4.7718   29.9313 H   0  0  0  0  0  0  0  0  0  0  0  0
    5.7050   -5.5744   26.5352 H   0  0  0  0  0  0  0  0  0  0  0  0
   12.7297   -2.3447   21.7701 H   0  0  0  0  0  0  0  0  0  0  0  0
   12.1937    1.1993   24.1403 H   0  0  0  0  0  0  0  0  0  0  0  0
   10.0298   -4.0399   28.4246 H   0  0  0  0  0  0  0  0  0  0  0  0
    7.5139   -4.8447   25.0184 H   0  0  0  0  0  0  0  0  0  0  0  0
   11.2018   -3.5840   23.2642 H   0  0  0  0  0  0  0  0  0  0  0  0
   10.6633   -0.0287   25.6426 H   0  0  0  0  0  0  0  0  0  0  0  0
    9.2258   -2.0422   25.8567 H   0  0  0  0  0  0  0  0  0  0  0  0
  1  3  1  0  0  0  0
  1  4  2  0  0  0  0
  2  5  1  0  0  0  0
  2  6  2  0  0  0  0
  3  7  2  0  0  0  0
  4  8  1  0  0  0  0
  5  9  2  0  0  0  0
  6 10  1  0  0  0  0
  7 11  1  0  0  0  0
  8 11  2  0  0  0  0
  9 12  1  0  0  0  0
 10 12  2  0  0  0  0
 11 13  1  0  0  0  0
 12 14  1  0  0  0  0
 13 14  1  0  0  0  0
 13 15  2  0  0  0  0
  1 16  1  0  0  0  0
  2 17  1  0  0  0  0
  3 18  1  0  0  0  0
  4 19  1  0  0  0  0
  5 20  1  0  0  0  0
  6 21  1  0  0  0  0
  7 22  1  0  0  0  0
  8 23  1  0  0  0  0
  9 24  1  0  0  0  0
 10 25  1  0  0  0  0
 14 26  1  0  0  0  0
M  END
> <Chemgauss4 Score>
-4.94854879379272

> <Number of Confs>
3

$$$$
CHR-SOS-1f3-8
  -OEChem-03242005443D

 46 48  0     0  0  0  0  0  0999 V2000
    5.8453   -2.0323   23.9551 C   0  0  0  0  0  0  0  0  0  0  0  0
    6.1543   -2.4672   25.2439 C   0  0  0  0  0  0  0  0  0  0  0  0
    5.8650   -2.9342   22.8912 C   0  0  0  0  0  0  0  0  0  0  0  0
   12.7162   -0.9425   22.6339 C   0  0  0  0  0  0  0  0  0  0  0  0
    6.5031   -4.7059   24.4048 C   0  0  0  0  0  0  0  0  0  0  0  0
   12.5594    0.2315   23.3529 C   0  0  0  0  0  0  0  0  0  0  0  0
   11.0904   -0.7562   24.8172 C   0  0  0  0  0  0  0  0  0  0  0  0
   12.0089   -2.0630   23.0551 C   0  0  0  0  0  0  0  0  0  0  0  0
   11.1781   -1.9765   24.1667 C   0  0  0  0  0  0  0  0  0  0  0  0
    6.4833   -3.8040   25.4687 C   0  0  0  0  0  0  0  0  0  0  0  0
    6.1939   -4.2710   23.1160 C   0  0  0  0  0  0  0  0  0  0  0  0
    9.5721   -3.1420   25.7297 C   0  0  0  0  0  0  0  0  0  0  0  0
    8.1179   -5.9630   28.7054 C   0  0  0  0  0  0  0  0  0  0  0  0
    8.7033   -4.5911   28.3250 C   0  0  0  0  0  0  0  0  0  0  0  0
    8.1237   -6.3167   27.2073 C   0  0  0  0  0  0  0  0  0  0  0  0
    8.1038   -4.7902   26.9029 C   0  0  0  0  0  0  0  0  0  0  0  0
   12.1587   -3.3417   22.2981 C   0  0  0  0  0  0  0  0  0  0  0  0
   11.7619    0.3540   24.4376 N   0  0  0  0  0  0  0  0  0  0  0  0
    5.7758   -4.3807   20.4858 N   0  0  0  0  0  0  0  0  0  0  0  0
   10.4386   -3.0878   24.6343 N   0  0  0  0  0  0  0  0  0  0  0  0
    9.0478   -4.4218   25.8453 N   0  0  0  0  0  0  0  0  0  0  0  0
    9.2957   -2.2185   26.4915 O   0  0  0  0  0  0  0  0  0  0  0  0
    7.5870   -5.8489   21.5855 O   0  0  0  0  0  0  0  0  0  0  0  0
    5.1573   -6.3786   21.9901 O   0  0  0  0  0  0  0  0  0  0  0  0
    6.7858   -4.2281   26.7256 O   0  0  0  0  0  0  0  0  0  0  0  0
    6.2161   -5.4003   21.7842 S   0  0  0  0  0  0  0  0  0  0  0  0
    5.5895   -0.9915   23.7801 H   0  0  0  0  0  0  0  0  0  0  0  0
    6.1374   -1.7599   26.0684 H   0  0  0  0  0  0  0  0  0  0  0  0
    5.6215   -2.5852   21.8914 H   0  0  0  0  0  0  0  0  0  0  0  0
   13.3722   -0.9766   21.7707 H   0  0  0  0  0  0  0  0  0  0  0  0
    6.7605   -5.7468   24.5853 H   0  0  0  0  0  0  0  0  0  0  0  0
   13.0890    1.1339   23.0652 H   0  0  0  0  0  0  0  0  0  0  0  0
   10.4590   -0.6259   25.6912 H   0  0  0  0  0  0  0  0  0  0  0  0
    8.7474   -6.5882   29.3435 H   0  0  0  0  0  0  0  0  0  0  0  0
    7.1134   -5.9070   29.1402 H   0  0  0  0  0  0  0  0  0  0  0  0
    8.3043   -3.7481   28.8967 H   0  0  0  0  0  0  0  0  0  0  0  0
    9.7985   -4.5522   28.3630 H   0  0  0  0  0  0  0  0  0  0  0  0
    9.0292   -6.8414   26.8797 H   0  0  0  0  0  0  0  0  0  0  0  0
    7.2509   -6.8815   26.8668 H   0  0  0  0  0  0  0  0  0  0  0  0
   12.9822   -3.9344   22.7129 H   0  0  0  0  0  0  0  0  0  0  0  0
   11.2400   -3.9394   22.3440 H   0  0  0  0  0  0  0  0  0  0  0  0
   12.3638   -3.1524   21.2371 H   0  0  0  0  0  0  0  0  0  0  0  0
    6.4996   -4.1343   19.7997 H   0  0  0  0  0  0  0  0  0  0  0  0
    4.8398   -4.4959   20.0786 H   0  0  0  0  0  0  0  0  0  0  0  0
   10.5541   -3.9490   24.1059 H   0  0  0  0  0  0  0  0  0  0  0  0
    9.3261   -5.1217   25.1786 H   0  0  0  0  0  0  0  0  0  0  0  0
  1  2  2  0  0  0  0
  1  3  1  0  0  0  0
  2 10  1  0  0  0  0
  3 11  2  0  0  0  0
  4  6  2  0  0  0  0
  4  8  1  0  0  0  0
  5 10  2  0  0  0  0
  5 11  1  0  0  0  0
  6 18  1  0  0  0  0
  7  9  1  0  0  0  0
  7 18  2  0  0  0  0
  8  9  2  0  0  0  0
  8 17  1  0  0  0  0
  9 20  1  0  0  0  0
 10 25  1  0  0  0  0
 11 26  1  0  0  0  0
 12 20  1  0  0  0  0
 12 21  1  0  0  0  0
 12 22  2  0  0  0  0
 13 14  1  0  0  0  0
 13 15  1  0  0  0  0
 14 16  1  0  0  0  0
 15 16  1  0  0  0  0
 16 21  1  0  0  0  0
 16 25  1  0  0  0  0
 19 26  1  0  0  0  0
 23 26  2  0  0  0  0
 24 26  2  0  0  0  0
  1 27  1  0  0  0  0
  2 28  1  0  0  0  0
  3 29  1  0  0  0  0
  4 30  1  0  0  0  0
  5 31  1  0  0  0  0
  6 32  1  0  0  0  0
  7 33  1  0  0  0  0
 13 34  1  0  0  0  0
 13 35  1  0  0  0  0
 14 36  1  0  0  0  0
 14 37  1  0  0  0  0
 15 38  1  0  0  0  0
 15 39  1  0  0  0  0
 17 40  1  0  0  0  0
 17 41  1  0  0  0  0
 17 42  1  0  0  0  0
 19 43  1  0  0  0  0
 19 44  1  0  0  0  0
 20 45  1  0  0  0  0
 21 46  1  0  0  0  0
M  END
> <Chemgauss4 Score>
-4.94828605651855

> <Number of Confs>
118

$$$$
CHR-SOS-709-3
  -OEChem-03242005443D

 29 30  0     0  0  0  0  0  0999 V2000
    8.2203   -4.7960   25.6654 C   0  0  0  0  0  0  0  0  0  0  0  0
    7.1377   -4.4299   23.5367 C   0  0  0  0  0  0  0  0  0  0  0  0
    7.2052   -5.6807   26.0295 C   0  0  0  0  0  0  0  0  0  0  0  0
    6.1226   -5.3146   23.9008 C   0  0  0  0  0  0  0  0  0  0  0  0
   12.2710    0.2620   24.0953 C   0  0  0  0  0  0  0  0  0  0  0  0
   12.8564   -0.0529   22.8690 C   0  0  0  0  0  0  0  0  0  0  0  0
   11.7881   -2.2194   22.9154 C   0  0  0  0  0  0  0  0  0  0  0  0
   11.2027   -1.9044   24.1417 C   0  0  0  0  0  0  0  0  0  0  0  0
    8.1865   -4.1706   24.4190 C   0  0  0  0  0  0  0  0  0  0  0  0
    6.1564   -5.9400   25.1472 C   0  0  0  0  0  0  0  0  0  0  0  0
   11.4442   -0.6637   24.7317 C   0  0  0  0  0  0  0  0  0  0  0  0
   12.6149   -1.2936   22.2791 C   0  0  0  0  0  0  0  0  0  0  0  0
   10.3446   -2.8859   24.7908 C   0  0  0  0  0  0  0  0  0  0  0  0
    9.2182   -3.2714   24.0490 N   0  0  0  0  0  0  0  0  0  0  0  0
    5.1231   -6.8407   25.5178 N   0  3  0  0  0  0  0  0  0  0  0  0
    5.1724   -7.3928   26.6436 O   0  5  0  0  0  0  0  0  0  0  0  0
   10.5883   -3.3106   25.9276 O   0  0  0  0  0  0  0  0  0  0  0  0
    4.1889   -7.0603   24.7092 O   0  0  0  0  0  0  0  0  0  0  0  0
   10.8832   -0.3382   25.9304 O   0  0  0  0  0  0  0  0  0  0  0  0
   13.3356   -1.6813   20.7651 Cl  0  0  0  0  0  0  0  0  0  0  0  0
    9.0328   -4.6014   26.3609 H   0  0  0  0  0  0  0  0  0  0  0  0
    7.1012   -3.9481   22.5629 H   0  0  0  0  0  0  0  0  0  0  0  0
    7.2436   -6.1614   27.0040 H   0  0  0  0  0  0  0  0  0  0  0  0
    5.3109   -5.5078   23.2037 H   0  0  0  0  0  0  0  0  0  0  0  0
   12.4633    1.2300   24.5503 H   0  0  0  0  0  0  0  0  0  0  0  0
   13.4974    0.6788   22.3842 H   0  0  0  0  0  0  0  0  0  0  0  0
   11.5990   -3.1881   22.4575 H   0  0  0  0  0  0  0  0  0  0  0  0
    9.1303   -2.8517   23.1268 H   0  0  0  0  0  0  0  0  0  0  0  0
   10.3366   -1.0711   26.2540 H   0  0  0  0  0  0  0  0  0  0  0  0
  1  3  2  0  0  0  0
  1  9  1  0  0  0  0
  2  4  1  0  0  0  0
  2  9  2  0  0  0  0
  3 10  1  0  0  0  0
  4 10  2  0  0  0  0
  5  6  2  0  0  0  0
  5 11  1  0  0  0  0
  6 12  1  0  0  0  0
  7  8  1  0  0  0  0
  7 12  2  0  0  0  0
  8 11  2  0  0  0  0
  8 13  1  0  0  0  0
  9 14  1  0  0  0  0
 10 15  1  0  0  0  0
 11 19  1  0  0  0  0
 12 20  1  0  0  0  0
 13 14  1  0  0  0  0
 13 17  2  0  0  0  0
 15 16  1  0  0  0  0
 15 18  2  0  0  0  0
  1 21  1  0  0  0  0
  2 22  1  0  0  0  0
  3 23  1  0  0  0  0
  4 24  1  0  0  0  0
  5 25  1  0  0  0  0
  6 26  1  0  0  0  0
  7 27  1  0  0  0  0
 14 28  1  0  0  0  0
 19 29  1  0  0  0  0
M  CHG  2  15   1  16  -1
M  END
> <Chemgauss4 Score>
-4.94704723358154

> <Number of Confs>
5

$$$$
DAR-DIA-23a-4
  -OEChem-03242005443D

 29 30  0     0  0  0  0  0  0999 V2000
    5.6337   -4.1050   25.4814 C   0  0  0  0  0  0  0  0  0  0  0  0
    9.0176   -4.9355   26.7910 C   0  0  0  0  0  0  0  0  0  0  0  0
   13.9671   -0.0722   23.1311 C   0  0  0  0  0  0  0  0  0  0  0  0
    7.6297   -4.8560   26.6774 C   0  0  0  0  0  0  0  0  0  0  0  0
   13.1615   -0.9282   22.3884 C   0  0  0  0  0  0  0  0  0  0  0  0
    9.8315   -4.3442   25.8248 C   0  0  0  0  0  0  0  0  0  0  0  0
    7.8695   -3.5942   24.6311 C   0  0  0  0  0  0  0  0  0  0  0  0
   13.3610    0.7105   24.1005 C   0  0  0  0  0  0  0  0  0  0  0  0
   11.2850   -0.1517   23.6262 C   0  0  0  0  0  0  0  0  0  0  0  0
    7.0556   -4.1854   25.5974 C   0  0  0  0  0  0  0  0  0  0  0  0
   11.7938   -0.9747   22.6344 C   0  0  0  0  0  0  0  0  0  0  0  0
    9.2575   -3.6736   24.7448 C   0  0  0  0  0  0  0  0  0  0  0  0
    9.6827   -2.3700   22.6318 C   0  0  0  0  0  0  0  0  0  0  0  0
   10.8946   -1.8918   21.8475 C   0  0  0  0  0  0  0  0  0  0  0  0
    4.4788   -4.0396   25.3872 N   0  0  0  0  0  0  0  0  0  0  0  0
   12.0360    0.6928   24.3681 N   0  0  0  0  0  0  0  0  0  0  0  0
   10.0718   -3.0813   23.7792 N   0  0  0  0  0  0  0  0  0  0  0  0
    8.5339   -2.1406   22.2676 O   0  0  0  0  0  0  0  0  0  0  0  0
    9.4647   -5.4569   27.6325 H   0  0  0  0  0  0  0  0  0  0  0  0
   15.0357   -0.0195   22.9568 H   0  0  0  0  0  0  0  0  0  0  0  0
    7.0089   -5.3227   27.4384 H   0  0  0  0  0  0  0  0  0  0  0  0
   13.6076   -1.5549   21.6210 H   0  0  0  0  0  0  0  0  0  0  0  0
   10.9120   -4.4124   25.9237 H   0  0  0  0  0  0  0  0  0  0  0  0
    7.4250   -3.0706   23.7868 H   0  0  0  0  0  0  0  0  0  0  0  0
   13.9457    1.3948   24.7064 H   0  0  0  0  0  0  0  0  0  0  0  0
   10.2255   -0.1447   23.8629 H   0  0  0  0  0  0  0  0  0  0  0  0
   10.5470   -1.3788   20.9417 H   0  0  0  0  0  0  0  0  0  0  0  0
   11.4657   -2.7669   21.5122 H   0  0  0  0  0  0  0  0  0  0  0  0
   11.0834   -3.1773   23.9257 H   0  0  0  0  0  0  0  0  0  0  0  0
  1 10  1  0  0  0  0
  1 15  3  0  0  0  0
  2  4  2  0  0  0  0
  2  6  1  0  0  0  0
  3  5  2  0  0  0  0
  3  8  1  0  0  0  0
  4 10  1  0  0  0  0
  5 11  1  0  0  0  0
  6 12  2  0  0  0  0
  7 10  2  0  0  0  0
  7 12  1  0  0  0  0
  8 16  2  0  0  0  0
  9 11  2  0  0  0  0
  9 16  1  0  0  0  0
 11 14  1  0  0  0  0
 12 17  1  0  0  0  0
 13 14  1  0  0  0  0
 13 17  1  0  0  0  0
 13 18  2  0  0  0  0
  2 19  1  0  0  0  0
  3 20  1  0  0  0  0
  4 21  1  0  0  0  0
  5 22  1  0  0  0  0
  6 23  1  0  0  0  0
  7 24  1  0  0  0  0
  8 25  1  0  0  0  0
  9 26  1  0  0  0  0
 14 27  1  0  0  0  0
 14 28  1  0  0  0  0
 17 29  1  0  0  0  0
M  END
> <Chemgauss4 Score>
-4.94497394561768

> <Number of Confs>
40

$$$$
NIM-UNI-36e-2
  -OEChem-03242005443D

 47 50  0     1  0  0  0  0  0999 V2000
   12.1788    0.8227   22.9082 C   0  0  0  0  0  0  0  0  0  0  0  0
   12.7328   -0.4380   23.1304 C   0  0  0  0  0  0  0  0  0  0  0  0
   10.8553    0.9378   22.4830 C   0  0  0  0  0  0  0  0  0  0  0  0
    8.2503   -6.5319   28.0156 C   0  0  0  0  0  0  0  0  0  0  0  0
   11.9634   -1.5836   22.9272 C   0  0  0  0  0  0  0  0  0  0  0  0
   10.0859   -0.2078   22.2798 C   0  0  0  0  0  0  0  0  0  0  0  0
    8.3024   -5.6611   26.9329 C   0  0  0  0  0  0  0  0  0  0  0  0
    8.0874   -5.9869   29.2790 C   0  0  0  0  0  0  0  0  0  0  0  0
    8.0312   -3.8465   28.4461 C   0  0  0  0  0  0  0  0  0  0  0  0
   10.6399   -1.4685   22.5019 C   0  0  0  0  0  0  0  0  0  0  0  0
    8.1916   -4.2912   27.1437 C   0  0  0  0  0  0  0  0  0  0  0  0
    8.7408   -2.0241   26.1359 C   0  0  0  0  0  0  0  0  0  0  0  0
    5.8415   -4.7069   24.6305 C   0  0  0  0  0  0  0  0  0  0  0  0
    7.4000   -4.8352   22.6395 C   0  0  0  0  0  0  0  0  0  0  0  0
    7.5461   -3.4906   21.8747 C   0  0  0  0  0  0  0  0  0  0  0  0
    8.0265   -2.4006   23.9500 C   0  0  1  0  0  0  0  0  0  0  0  0
    8.1460   -3.7446   24.6567 C   0  0  1  0  0  0  0  0  0  0  0  0
    4.7356   -5.1256   23.6947 C   0  0  0  0  0  0  0  0  0  0  0  0
    9.8112   -2.7011   22.2828 C   0  0  0  0  0  0  0  0  0  0  0  0
    7.9761   -4.6619   29.5230 N   0  0  0  0  0  0  0  0  0  0  0  0
    8.7548   -1.5166   24.8062 N   0  0  0  0  0  0  0  0  0  0  0  0
    8.2416   -3.3754   26.0562 N   0  0  0  0  0  0  0  0  0  0  0  0
    7.1131   -4.5877   24.0658 N   0  0  0  0  0  0  0  0  0  0  0  0
    8.3924   -2.4579   22.5338 N   0  0  1  0  0  0  0  0  0  0  0  0
    9.1307   -1.4014   27.1150 O   0  0  0  0  0  0  0  0  0  0  0  0
    5.5799   -4.5051   25.8182 O   0  0  0  0  0  0  0  0  0  0  0  0
   12.7777    1.7146   23.0677 H   0  0  0  0  0  0  0  0  0  0  0  0
   13.7630   -0.5278   23.4625 H   0  0  0  0  0  0  0  0  0  0  0  0
   10.4233    1.9192   22.3109 H   0  0  0  0  0  0  0  0  0  0  0  0
    8.3345   -7.6035   27.8748 H   0  0  0  0  0  0  0  0  0  0  0  0
   12.4035   -2.5617   23.1026 H   0  0  0  0  0  0  0  0  0  0  0  0
    9.0556   -0.1084   21.9483 H   0  0  0  0  0  0  0  0  0  0  0  0
    8.4295   -6.0602   25.9300 H   0  0  0  0  0  0  0  0  0  0  0  0
    8.0415   -6.6236   30.1563 H   0  0  0  0  0  0  0  0  0  0  0  0
    7.9388   -2.7887   28.6741 H   0  0  0  0  0  0  0  0  0  0  0  0
    6.6232   -5.4370   22.1642 H   0  0  0  0  0  0  0  0  0  0  0  0
    8.3350   -5.4052   22.5857 H   0  0  0  0  0  0  0  0  0  0  0  0
    7.9019   -3.6828   20.8550 H   0  0  0  0  0  0  0  0  0  0  0  0
    6.5424   -3.0602   21.7576 H   0  0  0  0  0  0  0  0  0  0  0  0
    6.9912   -2.0317   24.0114 H   0  0  0  0  0  0  0  0  0  0  0  0
    9.1076   -4.2328   24.4458 H   0  0  0  0  0  0  0  0  0  0  0  0
    4.6641   -6.2082   23.6917 H   0  0  0  0  0  0  0  0  0  0  0  0
    4.9602   -4.7659   22.6957 H   0  0  0  0  0  0  0  0  0  0  0  0
    3.8002   -4.6929   24.0346 H   0  0  0  0  0  0  0  0  0  0  0  0
    9.9151   -3.0581   21.2524 H   0  0  0  0  0  0  0  0  0  0  0  0
   10.1334   -3.5136   22.9426 H   0  0  0  0  0  0  0  0  0  0  0  0
    9.2114   -0.6593   24.5111 H   0  0  0  0  0  0  0  0  0  0  0  0
  1  2  1  0  0  0  0
  1  3  2  0  0  0  0
  2  5  2  0  0  0  0
  3  6  1  0  0  0  0
  4  7  2  0  0  0  0
  4  8  1  0  0  0  0
  5 10  1  0  0  0  0
  6 10  2  0  0  0  0
  7 11  1  0  0  0  0
  8 20  2  0  0  0  0
  9 11  2  0  0  0  0
  9 20  1  0  0  0  0
 10 19  1  0  0  0  0
 11 22  1  0  0  0  0
 12 21  1  0  0  0  0
 12 22  1  0  0  0  0
 12 25  2  0  0  0  0
 13 18  1  0  0  0  0
 13 23  1  0  0  0  0
 13 26  2  0  0  0  0
 14 15  1  0  0  0  0
 14 23  1  0  0  0  0
 15 24  1  0  0  0  0
 16 17  1  0  0  0  0
 16 21  1  1  0  0  0
 16 24  1  0  0  0  0
 17 22  1  0  0  0  0
 17 23  1  1  0  0  0
 19 24  1  6  0  0  0
  1 27  1  0  0  0  0
  2 28  1  0  0  0  0
  3 29  1  0  0  0  0
  4 30  1  0  0  0  0
  5 31  1  0  0  0  0
  6 32  1  0  0  0  0
  7 33  1  0  0  0  0
  8 34  1  0  0  0  0
  9 35  1  0  0  0  0
 14 36  1  0  0  0  0
 14 37  1  0  0  0  0
 15 38  1  0  0  0  0
 15 39  1  0  0  0  0
 16 40  1  0  0  0  0
 17 41  1  0  0  0  0
 18 42  1  0  0  0  0
 18 43  1  0  0  0  0
 18 44  1  0  0  0  0
 19 45  1  0  0  0  0
 19 46  1  0  0  0  0
 21 47  1  0  0  0  0
M  END
> <Chemgauss4 Score>
-4.94093799591064

> <Number of Confs>
6

$$$$
DAR-DIA-fc9-6
  -OEChem-03242005443D

 34 36  0     0  0  0  0  0  0999 V2000
   13.2243    0.8699   22.0396 C   0  0  0  0  0  0  0  0  0  0  0  0
   13.4828   -0.5006   22.0534 C   0  0  0  0  0  0  0  0  0  0  0  0
   11.9622    1.3452   22.3961 C   0  0  0  0  0  0  0  0  0  0  0  0
    9.3008   -4.2610   28.2051 C   0  0  0  0  0  0  0  0  0  0  0  0
   12.4793   -1.3960   22.4234 C   0  0  0  0  0  0  0  0  0  0  0  0
   10.9587    0.4499   22.7662 C   0  0  0  0  0  0  0  0  0  0  0  0
    9.4876   -3.6247   26.9830 C   0  0  0  0  0  0  0  0  0  0  0  0
    8.6822   -5.5008   28.2029 C   0  0  0  0  0  0  0  0  0  0  0  0
    8.4488   -5.4799   25.9175 C   0  0  0  0  0  0  0  0  0  0  0  0
   11.2172   -0.9208   22.7798 C   0  0  0  0  0  0  0  0  0  0  0  0
    9.0562   -4.2391   25.8126 C   0  0  0  0  0  0  0  0  0  0  0  0
   10.3338   -2.7197   24.2753 C   0  0  0  0  0  0  0  0  0  0  0  0
    8.4443   -3.1912   22.1682 C   0  0  0  0  0  0  0  0  0  0  0  0
    8.9047   -1.7830   22.4485 C   0  0  0  0  0  0  0  0  0  0  0  0
    8.2310   -3.9061   23.4843 C   0  0  0  0  0  0  0  0  0  0  0  0
    8.2498   -6.1289   27.0867 N   0  0  0  0  0  0  0  0  0  0  0  0
   10.1798   -1.8468   23.1626 N   0  0  0  0  0  0  0  0  0  0  0  0
    9.2372   -3.5984   24.5179 N   0  0  0  0  0  0  0  0  0  0  0  0
   11.3377   -2.7010   24.9947 O   0  0  0  0  0  0  0  0  0  0  0  0
   14.0056    1.5675   21.7523 H   0  0  0  0  0  0  0  0  0  0  0  0
   14.4655   -0.8710   21.7767 H   0  0  0  0  0  0  0  0  0  0  0  0
   11.7615    2.4127   22.3863 H   0  0  0  0  0  0  0  0  0  0  0  0
    9.6292   -3.8008   29.1301 H   0  0  0  0  0  0  0  0  0  0  0  0
   12.6924   -2.4620   22.4305 H   0  0  0  0  0  0  0  0  0  0  0  0
    9.9789    0.8318   23.0421 H   0  0  0  0  0  0  0  0  0  0  0  0
    9.9701   -2.6513   26.9540 H   0  0  0  0  0  0  0  0  0  0  0  0
    8.5125   -6.0378   29.1303 H   0  0  0  0  0  0  0  0  0  0  0  0
    8.0911   -6.0095   25.0394 H   0  0  0  0  0  0  0  0  0  0  0  0
    7.5174   -3.1886   21.5737 H   0  0  0  0  0  0  0  0  0  0  0  0
    9.1999   -3.7233   21.5720 H   0  0  0  0  0  0  0  0  0  0  0  0
    9.0657   -1.2329   21.5263 H   0  0  0  0  0  0  0  0  0  0  0  0
    8.1726   -1.2681   23.0621 H   0  0  0  0  0  0  0  0  0  0  0  0
    7.2279   -3.6533   23.8837 H   0  0  0  0  0  0  0  0  0  0  0  0
    8.2431   -5.0057   23.3380 H   0  0  0  0  0  0  0  0  0  0  0  0
  1  2  1  0  0  0  0
  1  3  2  0  0  0  0
  2  5  2  0  0  0  0
  3  6  1  0  0  0  0
  4  7  2  0  0  0  0
  4  8  1  0  0  0  0
  5 10  1  0  0  0  0
  6 10  2  0  0  0  0
  7 11  1  0  0  0  0
  8 16  2  0  0  0  0
  9 11  2  0  0  0  0
  9 16  1  0  0  0  0
 10 17  1  0  0  0  0
 11 18  1  0  0  0  0
 12 17  1  0  0  0  0
 12 18  1  0  0  0  0
 12 19  2  0  0  0  0
 13 14  1  0  0  0  0
 13 15  1  0  0  0  0
 14 17  1  0  0  0  0
 15 18  1  0  0  0  0
  1 20  1  0  0  0  0
  2 21  1  0  0  0  0
  3 22  1  0  0  0  0
  4 23  1  0  0  0  0
  5 24  1  0  0  0  0
  6 25  1  0  0  0  0
  7 26  1  0  0  0  0
  8 27  1  0  0  0  0
  9 28  1  0  0  0  0
 13 29  1  0  0  0  0
 13 30  1  0  0  0  0
 14 31  1  0  0  0  0
 14 32  1  0  0  0  0
 15 33  1  0  0  0  0
 15 34  1  0  0  0  0
M  END
> <Chemgauss4 Score>
-4.93463373184204

> <Number of Confs>
12

$$$$
ROB-UNI-b2e-8
  -OEChem-03242005443D

 49 50  0     1  0  0  0  0  0999 V2000
   10.3762   -0.6076   27.5309 C   0  0  0  0  0  0  0  0  0  0  0  0
    9.3456   -2.5648   26.4908 C   0  0  0  0  0  0  0  0  0  0  0  0
   10.1628   -0.7474   25.1028 C   0  0  0  0  0  0  0  0  0  0  0  0
    8.1510   -4.6483   23.7353 C   0  0  0  0  0  0  0  0  0  0  0  0
    9.9574   -1.3128   26.3597 C   0  0  0  0  0  0  0  0  0  0  0  0
    8.9358   -3.2541   25.3321 C   0  0  0  0  0  0  0  0  0  0  0  0
    9.7649   -1.4126   23.9395 C   0  0  0  0  0  0  0  0  0  0  0  0
    8.3022   -4.5061   25.0954 C   0  0  0  0  0  0  0  0  0  0  0  0
    9.1545   -2.6633   24.0858 C   0  0  0  0  0  0  0  0  0  0  0  0
    5.1175   -3.7839   25.3470 C   0  0  0  0  0  0  0  0  0  0  0  0
   12.4874   -0.9719   22.6256 C   0  0  0  0  0  0  0  0  0  0  0  0
    3.9160   -3.8857   24.4671 C   0  0  0  0  0  0  0  0  0  0  0  0
   13.6433   -1.4852   21.8328 C   0  0  0  0  0  0  0  0  0  0  0  0
    8.8218   -4.6333   20.9370 C   0  0  0  0  0  0  0  0  0  0  0  0
    9.9780    0.7772   22.6892 C   0  0  0  0  0  0  0  0  0  0  0  0
    7.8783   -5.4842   26.1178 C   0  0  0  0  0  0  0  0  0  0  0  0
    8.6801   -3.3285   21.7018 C   0  0  0  0  0  0  0  0  0  0  0  0
    6.5896   -5.0935   26.8638 C   0  0  0  0  0  0  0  0  0  0  0  0
   10.0103   -0.7559   22.6204 C   0  0  1  0  0  0  0  0  0  0  0  0
   10.7162   -0.0353   28.4815 N   0  0  0  0  0  0  0  0  0  0  0  0
    8.6683   -3.5319   23.1348 N   0  0  0  0  0  0  0  0  0  0  0  0
    5.4653   -4.9690   25.9753 N   0  0  0  0  0  0  0  0  0  0  0  0
   11.2653   -1.1753   22.0221 N   0  0  0  0  0  0  0  0  0  0  0  0
    5.6981   -2.7102   25.4550 O   0  0  0  0  0  0  0  0  0  0  0  0
   12.6887   -0.4318   23.7071 O   0  0  0  0  0  0  0  0  0  0  0  0
    9.1844   -3.0062   27.4713 H   0  0  0  0  0  0  0  0  0  0  0  0
   10.6390    0.2286   25.0182 H   0  0  0  0  0  0  0  0  0  0  0  0
    7.7189   -5.4477   23.1475 H   0  0  0  0  0  0  0  0  0  0  0  0
    2.9798   -3.6719   25.0074 H   0  0  0  0  0  0  0  0  0  0  0  0
    3.9425   -3.1649   23.6342 H   0  0  0  0  0  0  0  0  0  0  0  0
    3.7598   -4.8686   23.9945 H   0  0  0  0  0  0  0  0  0  0  0  0
   14.0493   -0.7281   21.1428 H   0  0  0  0  0  0  0  0  0  0  0  0
   14.4914   -1.7827   22.4702 H   0  0  0  0  0  0  0  0  0  0  0  0
   13.4305   -2.3651   21.2048 H   0  0  0  0  0  0  0  0  0  0  0  0
    9.7483   -5.1512   21.2063 H   0  0  0  0  0  0  0  0  0  0  0  0
    8.8387   -4.4416   19.8597 H   0  0  0  0  0  0  0  0  0  0  0  0
    7.9873   -5.3094   21.1506 H   0  0  0  0  0  0  0  0  0  0  0  0
   10.7269    1.1494   23.3968 H   0  0  0  0  0  0  0  0  0  0  0  0
   10.1861    1.2220   21.7096 H   0  0  0  0  0  0  0  0  0  0  0  0
    8.9975    1.1475   23.0090 H   0  0  0  0  0  0  0  0  0  0  0  0
    8.6795   -5.6174   26.8714 H   0  0  0  0  0  0  0  0  0  0  0  0
    7.7407   -6.4927   25.6781 H   0  0  0  0  0  0  0  0  0  0  0  0
    7.7506   -2.8178   21.4257 H   0  0  0  0  0  0  0  0  0  0  0  0
    9.5070   -2.6497   21.4641 H   0  0  0  0  0  0  0  0  0  0  0  0
    6.3218   -5.8507   27.6075 H   0  0  0  0  0  0  0  0  0  0  0  0
    6.7102   -4.1355   27.3801 H   0  0  0  0  0  0  0  0  0  0  0  0
    9.2371   -1.0619   21.8949 H   0  0  0  0  0  0  0  0  0  0  0  0
    4.8953   -5.7947   25.7987 H   0  0  0  0  0  0  0  0  0  0  0  0
   11.2414   -1.6376   21.1217 H   0  0  0  0  0  0  0  0  0  0  0  0
  1  5  1  0  0  0  0
  1 20  3  0  0  0  0
  2  5  2  0  0  0  0
  2  6  1  0  0  0  0
  3  5  1  0  0  0  0
  3  7  2  0  0  0  0
  4  8  2  0  0  0  0
  4 21  1  0  0  0  0
  6  8  1  0  0  0  0
  6  9  2  0  0  0  0
  7  9  1  0  0  0  0
  7 19  1  0  0  0  0
  8 16  1  0  0  0  0
  9 21  1  0  0  0  0
 10 12  1  0  0  0  0
 10 22  1  0  0  0  0
 10 24  2  0  0  0  0
 11 13  1  0  0  0  0
 11 23  1  0  0  0  0
 11 25  2  0  0  0  0
 14 17  1  0  0  0  0
 15 19  1  1  0  0  0
 16 18  1  0  0  0  0
 17 21  1  0  0  0  0
 18 22  1  0  0  0  0
 19 23  1  0  0  0  0
  2 26  1  0  0  0  0
  3 27  1  0  0  0  0
  4 28  1  0  0  0  0
 12 29  1  0  0  0  0
 12 30  1  0  0  0  0
 12 31  1  0  0  0  0
 13 32  1  0  0  0  0
 13 33  1  0  0  0  0
 13 34  1  0  0  0  0
 14 35  1  0  0  0  0
 14 36  1  0  0  0  0
 14 37  1  0  0  0  0
 15 38  1  0  0  0  0
 15 39  1  0  0  0  0
 15 40  1  0  0  0  0
 16 41  1  0  0  0  0
 16 42  1  0  0  0  0
 17 43  1  0  0  0  0
 17 44  1  0  0  0  0
 18 45  1  0  0  0  0
 18 46  1  0  0  0  0
 19 47  1  0  0  0  0
 22 48  1  0  0  0  0
 23 49  1  0  0  0  0
M  END
> <Chemgauss4 Score>
-4.93208789825439

> <Number of Confs>
178

$$$$
DAR-DIA-033-11
  -OEChem-03242005443D

 52 54  0     0  0  0  0  0  0999 V2000
   13.1304   -0.0451   22.7852 C   0  0  0  0  0  0  0  0  0  0  0  0
   12.9519   -1.2617   22.1269 C   0  0  0  0  0  0  0  0  0  0  0  0
   12.4812    0.1944   23.9965 C   0  0  0  0  0  0  0  0  0  0  0  0
   12.1242   -2.2390   22.6797 C   0  0  0  0  0  0  0  0  0  0  0  0
   11.6535   -0.7829   24.5492 C   0  0  0  0  0  0  0  0  0  0  0  0
    6.4718   -5.6845   27.8083 C   0  0  0  0  0  0  0  0  0  0  0  0
    6.7718   -5.1150   29.0353 C   0  0  0  0  0  0  0  0  0  0  0  0
    8.5683   -3.9756   28.1678 C   0  0  0  0  0  0  0  0  0  0  0  0
    7.2821   -5.3618   26.7255 C   0  0  0  0  0  0  0  0  0  0  0  0
   11.4750   -1.9996   23.8909 C   0  0  0  0  0  0  0  0  0  0  0  0
    8.3525   -4.4918   26.9002 C   0  0  0  0  0  0  0  0  0  0  0  0
    6.5780   -3.4475   23.2434 C   0  0  0  0  0  0  0  0  0  0  0  0
    9.9071   -2.9297   25.6502 C   0  0  0  0  0  0  0  0  0  0  0  0
    6.5956    0.8693   22.6611 C   0  0  0  0  0  0  0  0  0  0  0  0
    6.5715   -0.1799   21.5484 C   0  0  0  0  0  0  0  0  0  0  0  0
    6.8917    0.2758   24.0369 C   0  0  0  0  0  0  0  0  0  0  0  0
    7.2949   -1.4608   21.9450 C   0  0  0  0  0  0  0  0  0  0  0  0
    6.2837   -1.1121   24.2051 C   0  0  0  0  0  0  0  0  0  0  0  0
    6.9787   -5.9680   25.3773 C   0  0  0  0  0  0  0  0  0  0  0  0
    5.7877   -5.3115   24.6835 C   0  0  0  0  0  0  0  0  0  0  0  0
    7.8029   -4.2659   29.2437 N   0  0  0  0  0  0  0  0  0  0  0  0
    6.7069   -2.0486   23.1527 N   0  0  0  0  0  0  0  0  0  0  0  0
   10.6355   -2.9910   24.4515 N   0  0  0  0  0  0  0  0  0  0  0  0
    9.1931   -4.1377   25.8452 N   0  0  0  0  0  0  0  0  0  0  0  0
    6.0023   -3.9058   24.4250 N   0  0  0  0  0  0  0  0  0  0  0  0
    6.9391   -4.2157   22.3468 O   0  0  0  0  0  0  0  0  0  0  0  0
    9.8869   -1.9748   26.4202 O   0  0  0  0  0  0  0  0  0  0  0  0
   13.7754    0.7158   22.3555 H   0  0  0  0  0  0  0  0  0  0  0  0
   13.4578   -1.4489   21.1843 H   0  0  0  0  0  0  0  0  0  0  0  0
   12.6213    1.1415   24.5094 H   0  0  0  0  0  0  0  0  0  0  0  0
   11.9927   -3.1835   22.1576 H   0  0  0  0  0  0  0  0  0  0  0  0
   11.1528   -0.5851   25.4938 H   0  0  0  0  0  0  0  0  0  0  0  0
    5.6293   -6.3599   27.7056 H   0  0  0  0  0  0  0  0  0  0  0  0
    6.1705   -5.3346   29.9114 H   0  0  0  0  0  0  0  0  0  0  0  0
    9.3875   -3.2911   28.3673 H   0  0  0  0  0  0  0  0  0  0  0  0
    7.3465    1.6451   22.4216 H   0  0  0  0  0  0  0  0  0  0  0  0
    5.6211    1.3939   22.6893 H   0  0  0  0  0  0  0  0  0  0  0  0
    5.5293   -0.4086   21.2873 H   0  0  0  0  0  0  0  0  0  0  0  0
    7.0367    0.2389   20.6442 H   0  0  0  0  0  0  0  0  0  0  0  0
    7.9812    0.2219   24.1903 H   0  0  0  0  0  0  0  0  0  0  0  0
    6.5009    0.9467   24.8167 H   0  0  0  0  0  0  0  0  0  0  0  0
    7.2150   -2.2103   21.1482 H   0  0  0  0  0  0  0  0  0  0  0  0
    8.3525   -1.2245   22.0709 H   0  0  0  0  0  0  0  0  0  0  0  0
    6.5333   -1.5051   25.2006 H   0  0  0  0  0  0  0  0  0  0  0  0
    5.1852   -1.0559   24.1580 H   0  0  0  0  0  0  0  0  0  0  0  0
    6.7739   -7.0373   25.5147 H   0  0  0  0  0  0  0  0  0  0  0  0
    7.8677   -5.9109   24.7363 H   0  0  0  0  0  0  0  0  0  0  0  0
    5.6122   -5.7876   23.7137 H   0  0  0  0  0  0  0  0  0  0  0  0
    4.8731   -5.4020   25.2788 H   0  0  0  0  0  0  0  0  0  0  0  0
   10.5492   -3.8542   23.9209 H   0  0  0  0  0  0  0  0  0  0  0  0
    9.3203   -4.8368   25.1054 H   0  0  0  0  0  0  0  0  0  0  0  0
    5.7250   -3.2309   25.1260 H   0  0  0  0  0  0  0  0  0  0  0  0
  1  2  1  0  0  0  0
  1  3  2  0  0  0  0
  2  4  2  0  0  0  0
  3  5  1  0  0  0  0
  4 10  1  0  0  0  0
  5 10  2  0  0  0  0
  6  7  2  0  0  0  0
  6  9  1  0  0  0  0
  7 21  1  0  0  0  0
  8 11  1  0  0  0  0
  8 21  2  0  0  0  0
  9 11  2  0  0  0  0
  9 19  1  0  0  0  0
 10 23  1  0  0  0  0
 11 24  1  0  0  0  0
 12 22  1  0  0  0  0
 12 25  1  0  0  0  0
 12 26  2  0  0  0  0
 13 23  1  0  0  0  0
 13 24  1  0  0  0  0
 13 27  2  0  0  0  0
 14 15  1  0  0  0  0
 14 16  1  0  0  0  0
 15 17  1  0  0  0  0
 16 18  1  0  0  0  0
 17 22  1  0  0  0  0
 18 22  1  0  0  0  0
 19 20  1  0  0  0  0
 20 25  1  0  0  0  0
  1 28  1  0  0  0  0
  2 29  1  0  0  0  0
  3 30  1  0  0  0  0
  4 31  1  0  0  0  0
  5 32  1  0  0  0  0
  6 33  1  0  0  0  0
  7 34  1  0  0  0  0
  8 35  1  0  0  0  0
 14 36  1  0  0  0  0
 14 37  1  0  0  0  0
 15 38  1  0  0  0  0
 15 39  1  0  0  0  0
 16 40  1  0  0  0  0
 16 41  1  0  0  0  0
 17 42  1  0  0  0  0
 17 43  1  0  0  0  0
 18 44  1  0  0  0  0
 18 45  1  0  0  0  0
 19 46  1  0  0  0  0
 19 47  1  0  0  0  0
 20 48  1  0  0  0  0
 20 49  1  0  0  0  0
 23 50  1  0  0  0  0
 24 51  1  0  0  0  0
 25 52  1  0  0  0  0
M  END
> <Chemgauss4 Score>
-4.93022680282593

> <Number of Confs>
200

$$$$
DUN-NEW-f8c-22
  -OEChem-03242005443D

 37 38  0     1  0  0  0  0  0999 V2000
   13.1375   -0.4678   22.7059 C   0  0  0  0  0  0  0  0  0  0  0  0
   12.7305    0.0127   23.9505 C   0  0  0  0  0  0  0  0  0  0  0  0
   12.4216   -1.4915   22.0854 C   0  0  0  0  0  0  0  0  0  0  0  0
   11.6077   -0.5306   24.5747 C   0  0  0  0  0  0  0  0  0  0  0  0
   11.2987   -2.0349   22.7096 C   0  0  0  0  0  0  0  0  0  0  0  0
   10.8917   -1.5544   23.9542 C   0  0  0  0  0  0  0  0  0  0  0  0
    8.3320   -5.3279   25.7823 C   0  0  0  0  0  0  0  0  0  0  0  0
    7.0113   -3.3028   25.0011 C   0  0  0  0  0  0  0  0  0  0  0  0
    7.2978   -1.8305   25.2740 C   0  0  0  0  0  0  0  0  0  0  0  0
    9.3757   -3.6250   24.3211 C   0  0  0  0  0  0  0  0  0  0  0  0
    9.6687   -2.1468   24.6337 C   0  0  2  0  0  0  0  0  0  0  0  0
    6.8163    0.3764   23.1626 C   0  0  0  0  0  0  0  0  0  0  0  0
    7.4286   -5.5106   26.9759 C   0  0  0  0  0  0  0  0  0  0  0  0
    8.2326   -4.1129   25.1027 N   0  0  0  0  0  0  0  0  0  0  0  0
    8.4120   -1.3445   24.4077 N   0  0  1  0  0  0  0  0  0  0  0  0
    9.1044   -6.2367   25.4669 O   0  0  0  0  0  0  0  0  0  0  0  0
    7.2698   -2.0097   22.1992 O   0  0  0  0  0  0  0  0  0  0  0  0
    9.1342   -0.3043   22.1669 O   0  0  0  0  0  0  0  0  0  0  0  0
    7.9860   -0.9090   22.8058 S   0  0  0  0  0  0  0  0  0  0  0  0
    7.8606   -4.2551   28.1313 Cl  0  0  0  0  0  0  0  0  0  0  0  0
   14.0111   -0.0437   22.2194 H   0  0  0  0  0  0  0  0  0  0  0  0
   13.2872    0.8106   24.4333 H   0  0  0  0  0  0  0  0  0  0  0  0
   12.7375   -1.8651   21.1159 H   0  0  0  0  0  0  0  0  0  0  0  0
   11.2980   -0.1501   25.5445 H   0  0  0  0  0  0  0  0  0  0  0  0
   10.7471   -2.8323   22.2187 H   0  0  0  0  0  0  0  0  0  0  0  0
    6.3117   -3.6970   25.7475 H   0  0  0  0  0  0  0  0  0  0  0  0
    6.5335   -3.4028   24.0257 H   0  0  0  0  0  0  0  0  0  0  0  0
    6.4013   -1.2241   25.0996 H   0  0  0  0  0  0  0  0  0  0  0  0
    7.5848   -1.7167   26.3257 H   0  0  0  0  0  0  0  0  0  0  0  0
    9.2187   -3.7786   23.2595 H   0  0  0  0  0  0  0  0  0  0  0  0
   10.2245   -4.2310   24.6315 H   0  0  0  0  0  0  0  0  0  0  0  0
    9.8658   -2.0822   25.7445 H   0  0  0  0  0  0  0  0  0  0  0  0
    6.4392    0.7709   22.2178 H   0  0  0  0  0  0  0  0  0  0  0  0
    6.0028   -0.0517   23.7502 H   0  0  0  0  0  0  0  0  0  0  0  0
    7.3258    1.1585   23.7274 H   0  0  0  0  0  0  0  0  0  0  0  0
    7.6078   -6.4895   27.4057 H   0  0  0  0  0  0  0  0  0  0  0  0
    6.3992   -5.3874   26.6595 H   0  0  0  0  0  0  0  0  0  0  0  0
  1  2  1  0  0  0  0
  1  3  2  0  0  0  0
  2  4  2  0  0  0  0
  3  5  1  0  0  0  0
  4  6  1  0  0  0  0
  5  6  2  0  0  0  0
  6 11  1  1  0  0  0
  7 13  1  0  0  0  0
  7 14  1  0  0  0  0
  7 16  2  0  0  0  0
  8  9  1  0  0  0  0
  8 14  1  0  0  0  0
  9 15  1  0  0  0  0
 10 11  1  0  0  0  0
 10 14  1  0  0  0  0
 11 15  1  0  0  0  0
 12 19  1  0  0  0  0
 13 20  1  0  0  0  0
 15 19  1  6  0  0  0
 17 19  2  0  0  0  0
 18 19  2  0  0  0  0
  1 21  1  0  0  0  0
  2 22  1  0  0  0  0
  3 23  1  0  0  0  0
  4 24  1  0  0  0  0
  5 25  1  0  0  0  0
  8 26  1  0  0  0  0
  8 27  1  0  0  0  0
  9 28  1  0  0  0  0
  9 29  1  0  0  0  0
 10 30  1  0  0  0  0
 10 31  1  0  0  0  0
 11 32  1  0  0  0  0
 12 33  1  0  0  0  0
 12 34  1  0  0  0  0
 12 35  1  0  0  0  0
 13 36  1  0  0  0  0
 13 37  1  0  0  0  0
M  END
> <Chemgauss4 Score>
-4.9291820526123

> <Number of Confs>
17

$$$$
GIA-UNK-995-7
  -OEChem-03242005443D

 31 31  0     0  0  0  0  0  0999 V2000
   10.2346   -1.1662   24.2522 C   0  0  0  0  0  0  0  0  0  0  0  0
    7.5892   -5.2628   25.7620 C   0  0  0  0  0  0  0  0  0  0  0  0
   10.5678   -3.5705   24.7996 C   0  0  0  0  0  0  0  0  0  0  0  0
    8.6548   -2.8499   23.2882 C   0  0  0  0  0  0  0  0  0  0  0  0
    9.5510   -3.7642   25.9231 C   0  0  0  0  0  0  0  0  0  0  0  0
    7.6940   -3.0843   24.4547 C   0  0  0  0  0  0  0  0  0  0  0  0
   10.0914   -2.5704   23.7414 C   0  0  0  0  0  0  0  0  0  0  0  0
    5.6937   -6.8432   25.6399 C   0  0  0  0  0  0  0  0  0  0  0  0
    6.2341   -5.5208   25.1529 C   0  0  0  0  0  0  0  0  0  0  0  0
   12.5303   -0.1129   23.1838 C   0  0  0  0  0  0  0  0  0  0  0  0
    8.2325   -4.0865   25.3792 N   0  0  0  0  0  0  0  0  0  0  0  0
    9.2958   -0.3825   24.3247 O   0  0  0  0  0  0  0  0  0  0  0  0
    8.0610   -6.0843   26.5523 O   0  0  0  0  0  0  0  0  0  0  0  0
   12.4900   -1.0889   22.2379 F   0  0  0  0  0  0  0  0  0  0  0  0
   11.8781   -0.7533   24.7394 S   0  0  0  0  0  0  0  0  0  0  0  0
   11.5229   -3.2463   25.2302 H   0  0  0  0  0  0  0  0  0  0  0  0
   10.7495   -4.5396   24.3172 H   0  0  0  0  0  0  0  0  0  0  0  0
    8.6531   -3.7424   22.6492 H   0  0  0  0  0  0  0  0  0  0  0  0
    8.2809   -2.0206   22.6757 H   0  0  0  0  0  0  0  0  0  0  0  0
    9.8976   -4.5520   26.5996 H   0  0  0  0  0  0  0  0  0  0  0  0
    9.4479   -2.8490   26.5177 H   0  0  0  0  0  0  0  0  0  0  0  0
    7.5461   -2.1618   25.0276 H   0  0  0  0  0  0  0  0  0  0  0  0
    6.7169   -3.3721   24.0624 H   0  0  0  0  0  0  0  0  0  0  0  0
   10.7563   -2.6375   22.8713 H   0  0  0  0  0  0  0  0  0  0  0  0
    6.3667   -7.6530   25.3421 H   0  0  0  0  0  0  0  0  0  0  0  0
    4.7028   -7.0469   25.2199 H   0  0  0  0  0  0  0  0  0  0  0  0
    5.6006   -6.8584   26.7309 H   0  0  0  0  0  0  0  0  0  0  0  0
    5.5807   -4.6973   25.4373 H   0  0  0  0  0  0  0  0  0  0  0  0
    6.3590   -5.5214   24.0710 H   0  0  0  0  0  0  0  0  0  0  0  0
   13.5709    0.2013   23.2988 H   0  0  0  0  0  0  0  0  0  0  0  0
   11.9284    0.7267   22.8265 H   0  0  0  0  0  0  0  0  0  0  0  0
  1  7  1  0  0  0  0
  1 12  2  0  0  0  0
  1 15  1  0  0  0  0
  2  9  1  0  0  0  0
  2 11  1  0  0  0  0
  2 13  2  0  0  0  0
  3  5  1  0  0  0  0
  3  7  1  0  0  0  0
  4  6  1  0  0  0  0
  4  7  1  0  0  0  0
  5 11  1  0  0  0  0
  6 11  1  0  0  0  0
  8  9  1  0  0  0  0
 10 14  1  0  0  0  0
 10 15  1  0  0  0  0
  3 16  1  0  0  0  0
  3 17  1  0  0  0  0
  4 18  1  0  0  0  0
  4 19  1  0  0  0  0
  5 20  1  0  0  0  0
  5 21  1  0  0  0  0
  6 22  1  0  0  0  0
  6 23  1  0  0  0  0
  7 24  1  0  0  0  0
  8 25  1  0  0  0  0
  8 26  1  0  0  0  0
  8 27  1  0  0  0  0
  9 28  1  0  0  0  0
  9 29  1  0  0  0  0
 10 30  1  0  0  0  0
 10 31  1  0  0  0  0
M  END
> <Chemgauss4 Score>
-4.92742443084717

> <Number of Confs>
200

$$$$
GIA-UNK-995-9
  -OEChem-03242005443D

 37 37  0     1  0  0  0  0  0999 V2000
    8.2245   -5.1149   25.8453 C   0  0  0  0  0  0  0  0  0  0  0  0
   10.9234   -0.9624   24.6077 C   0  0  0  0  0  0  0  0  0  0  0  0
    8.0387   -2.6336   25.8516 C   0  0  0  0  0  0  0  0  0  0  0  0
    8.9065   -3.8521   23.7960 C   0  0  0  0  0  0  0  0  0  0  0  0
    9.4774   -2.2278   26.1661 C   0  0  0  0  0  0  0  0  0  0  0  0
   10.3175   -3.3919   24.1646 C   0  0  0  0  0  0  0  0  0  0  0  0
    7.9592   -3.9040   24.9990 C   0  0  0  0  0  0  0  0  0  0  0  0
   13.7520    0.0273   22.1700 C   0  0  0  0  0  0  0  0  0  0  0  0
   10.7789   -0.5911   22.1922 C   0  0  0  0  0  0  0  0  0  0  0  0
   12.8907    0.0136   23.4264 C   0  0  0  0  0  0  0  0  0  0  0  0
    8.3123   -5.2306   28.5841 C   0  0  0  0  0  0  0  0  0  0  0  0
   11.7209   -0.9658   23.3279 C   0  0  1  0  0  0  0  0  0  0  0  0
   10.2735   -2.1497   24.9420 N   0  0  0  0  0  0  0  0  0  0  0  0
    9.1183   -5.9169   25.6029 O   0  0  0  0  0  0  0  0  0  0  0  0
   10.8789    0.0663   25.2874 O   0  0  0  0  0  0  0  0  0  0  0  0
    9.0108   -4.0646   28.5453 F   0  0  0  0  0  0  0  0  0  0  0  0
    7.1317   -5.2722   27.2202 S   0  0  0  0  0  0  0  0  0  0  0  0
    7.4889   -2.7681   26.7910 H   0  0  0  0  0  0  0  0  0  0  0  0
    7.5500   -1.8119   25.3124 H   0  0  0  0  0  0  0  0  0  0  0  0
    8.4954   -3.1574   23.0522 H   0  0  0  0  0  0  0  0  0  0  0  0
    8.9636   -4.8355   23.3140 H   0  0  0  0  0  0  0  0  0  0  0  0
    9.4807   -1.2697   26.6957 H   0  0  0  0  0  0  0  0  0  0  0  0
    9.9551   -2.9630   26.8240 H   0  0  0  0  0  0  0  0  0  0  0  0
   10.8220   -4.1431   24.7830 H   0  0  0  0  0  0  0  0  0  0  0  0
   10.9092   -3.2842   23.2537 H   0  0  0  0  0  0  0  0  0  0  0  0
    6.9305   -4.0177   24.6347 H   0  0  0  0  0  0  0  0  0  0  0  0
   14.1333   -0.9740   21.9454 H   0  0  0  0  0  0  0  0  0  0  0  0
   13.1887    0.3845   21.3025 H   0  0  0  0  0  0  0  0  0  0  0  0
   14.6101    0.6925   22.3095 H   0  0  0  0  0  0  0  0  0  0  0  0
   10.4004    0.4275   22.3260 H   0  0  0  0  0  0  0  0  0  0  0  0
   11.2807   -0.6444   21.2193 H   0  0  0  0  0  0  0  0  0  0  0  0
    9.9190   -1.2692   22.1551 H   0  0  0  0  0  0  0  0  0  0  0  0
   12.5281    1.0310   23.6188 H   0  0  0  0  0  0  0  0  0  0  0  0
   13.5254   -0.2664   24.2759 H   0  0  0  0  0  0  0  0  0  0  0  0
    9.0271   -6.0537   28.5044 H   0  0  0  0  0  0  0  0  0  0  0  0
    7.7962   -5.2815   29.5463 H   0  0  0  0  0  0  0  0  0  0  0  0
   12.0857   -1.9850   23.1733 H   0  0  0  0  0  0  0  0  0  0  0  0
  1  7  1  0  0  0  0
  1 14  2  0  0  0  0
  1 17  1  0  0  0  0
  2 12  1  0  0  0  0
  2 13  1  0  0  0  0
  2 15  2  0  0  0  0
  3  5  1  0  0  0  0
  3  7  1  0  0  0  0
  4  6  1  0  0  0  0
  4  7  1  0  0  0  0
  5 13  1  0  0  0  0
  6 13  1  0  0  0  0
  8 10  1  0  0  0  0
  9 12  1  6  0  0  0
 10 12  1  0  0  0  0
 11 16  1  0  0  0  0
 11 17  1  0  0  0  0
  3 18  1  0  0  0  0
  3 19  1  0  0  0  0
  4 20  1  0  0  0  0
  4 21  1  0  0  0  0
  5 22  1  0  0  0  0
  5 23  1  0  0  0  0
  6 24  1  0  0  0  0
  6 25  1  0  0  0  0
  7 26  1  0  0  0  0
  8 27  1  0  0  0  0
  8 28  1  0  0  0  0
  8 29  1  0  0  0  0
  9 30  1  0  0  0  0
  9 31  1  0  0  0  0
  9 32  1  0  0  0  0
 10 33  1  0  0  0  0
 10 34  1  0  0  0  0
 11 35  1  0  0  0  0
 11 36  1  0  0  0  0
 12 37  1  0  0  0  0
M  END
> <Chemgauss4 Score>
-4.9233570098877

> <Number of Confs>
200

$$$$
TRY-UNI-714-16
  -OEChem-03242005443D

 40 41  0     1  0  0  0  0  0999 V2000
   12.2673   -0.7364   22.5044 C   0  0  0  0  0  0  0  0  0  0  0  0
   12.2934    0.3425   23.3734 C   0  0  0  0  0  0  0  0  0  0  0  0
   10.9026   -0.7124   24.8671 C   0  0  0  0  0  0  0  0  0  0  0  0
   11.5096   -1.8449   22.8658 C   0  0  0  0  0  0  0  0  0  0  0  0
   10.8111   -1.8406   24.0680 C   0  0  0  0  0  0  0  0  0  0  0  0
    9.2839   -3.0687   25.6509 C   0  0  0  0  0  0  0  0  0  0  0  0
    5.9290   -4.7273   23.0413 C   0  0  0  0  0  0  0  0  0  0  0  0
    6.6699   -3.4345   23.3679 C   0  0  0  0  0  0  0  0  0  0  0  0
    6.4061   -5.8899   23.9061 C   0  0  0  0  0  0  0  0  0  0  0  0
    6.5904   -3.0991   24.8563 C   0  0  0  0  0  0  0  0  0  0  0  0
    6.3262   -5.5554   25.3947 C   0  0  0  0  0  0  0  0  0  0  0  0
    7.0529   -4.2524   25.7589 C   0  0  0  0  0  0  0  0  0  0  0  0
   11.4630   -3.0218   21.9474 C   0  0  0  0  0  0  0  0  0  0  0  0
    9.0491   -5.2021   26.9471 C   0  0  0  0  0  0  0  0  0  0  0  0
    8.5740   -4.4242   25.7214 C   0  0  2  0  0  0  0  0  0  0  0  0
   11.6283    0.3832   24.5496 N   0  0  0  0  0  0  0  0  0  0  0  0
   10.0267   -2.9443   24.4802 N   0  0  0  0  0  0  0  0  0  0  0  0
    9.1667   -2.2345   26.5440 O   0  0  0  0  0  0  0  0  0  0  0  0
   12.8234   -0.7079   21.5736 H   0  0  0  0  0  0  0  0  0  0  0  0
   12.8693    1.2314   23.1378 H   0  0  0  0  0  0  0  0  0  0  0  0
   10.3807   -0.6491   25.8174 H   0  0  0  0  0  0  0  0  0  0  0  0
    4.8510   -4.5803   23.1837 H   0  0  0  0  0  0  0  0  0  0  0  0
    6.0790   -4.9756   21.9821 H   0  0  0  0  0  0  0  0  0  0  0  0
    7.7196   -3.5257   23.0663 H   0  0  0  0  0  0  0  0  0  0  0  0
    6.2408   -2.6100   22.7853 H   0  0  0  0  0  0  0  0  0  0  0  0
    5.7932   -6.7756   23.6984 H   0  0  0  0  0  0  0  0  0  0  0  0
    7.4380   -6.1466   23.6410 H   0  0  0  0  0  0  0  0  0  0  0  0
    7.2022   -2.2023   25.0552 H   0  0  0  0  0  0  0  0  0  0  0  0
    5.5537   -2.8206   25.1084 H   0  0  0  0  0  0  0  0  0  0  0  0
    5.2667   -5.4877   25.6927 H   0  0  0  0  0  0  0  0  0  0  0  0
    6.7512   -6.3932   25.9740 H   0  0  0  0  0  0  0  0  0  0  0  0
    6.7746   -3.9939   26.8027 H   0  0  0  0  0  0  0  0  0  0  0  0
   12.2685   -3.7247   22.1897 H   0  0  0  0  0  0  0  0  0  0  0  0
   10.5040   -3.5484   22.0263 H   0  0  0  0  0  0  0  0  0  0  0  0
   11.5721   -2.7121   20.9006 H   0  0  0  0  0  0  0  0  0  0  0  0
    8.8086   -4.6629   27.8693 H   0  0  0  0  0  0  0  0  0  0  0  0
   10.1326   -5.3587   26.9255 H   0  0  0  0  0  0  0  0  0  0  0  0
    8.5768   -6.1897   26.9951 H   0  0  0  0  0  0  0  0  0  0  0  0
    8.8298   -4.9905   24.8169 H   0  0  0  0  0  0  0  0  0  0  0  0
   10.0029   -3.7402   23.8464 H   0  0  0  0  0  0  0  0  0  0  0  0
  1  2  2  0  0  0  0
  1  4  1  0  0  0  0
  2 16  1  0  0  0  0
  3  5  1  0  0  0  0
  3 16  2  0  0  0  0
  4  5  2  0  0  0  0
  4 13  1  0  0  0  0
  5 17  1  0  0  0  0
  6 15  1  0  0  0  0
  6 17  1  0  0  0  0
  6 18  2  0  0  0  0
  7  8  1  0  0  0  0
  7  9  1  0  0  0  0
  8 10  1  0  0  0  0
  9 11  1  0  0  0  0
 10 12  1  0  0  0  0
 11 12  1  0  0  0  0
 12 15  1  0  0  0  0
 14 15  1  1  0  0  0
  1 19  1  0  0  0  0
  2 20  1  0  0  0  0
  3 21  1  0  0  0  0
  7 22  1  0  0  0  0
  7 23  1  0  0  0  0
  8 24  1  0  0  0  0
  8 25  1  0  0  0  0
  9 26  1  0  0  0  0
  9 27  1  0  0  0  0
 10 28  1  0  0  0  0
 10 29  1  0  0  0  0
 11 30  1  0  0  0  0
 11 31  1  0  0  0  0
 12 32  1  0  0  0  0
 13 33  1  0  0  0  0
 13 34  1  0  0  0  0
 13 35  1  0  0  0  0
 14 36  1  0  0  0  0
 14 37  1  0  0  0  0
 14 38  1  0  0  0  0
 15 39  1  0  0  0  0
 17 40  1  0  0  0  0
M  END
> <Chemgauss4 Score>
-4.92306518554688

> <Number of Confs>
19

$$$$
PAU-WEI-b9b-6
  -OEChem-03242005443D

 54 56  0     1  0  0  0  0  0999 V2000
   13.5628   -1.5254   21.4213 C   0  0  0  0  0  0  0  0  0  0  0  0
   12.1006    0.3409   24.2910 C   0  0  0  0  0  0  0  0  0  0  0  0
   13.0188   -0.1232   23.3491 C   0  0  0  0  0  0  0  0  0  0  0  0
   10.7849   -0.1219   24.2692 C   0  0  0  0  0  0  0  0  0  0  0  0
    9.6841   -3.9318   27.1555 C   0  0  0  0  0  0  0  0  0  0  0  0
    8.1238   -5.6367   26.4514 C   0  0  0  0  0  0  0  0  0  0  0  0
    9.9760   -3.6479   25.8214 C   0  0  0  0  0  0  0  0  0  0  0  0
    8.4156   -5.3528   25.1172 C   0  0  0  0  0  0  0  0  0  0  0  0
   11.3056   -1.5128   22.3637 C   0  0  0  0  0  0  0  0  0  0  0  0
   12.6213   -1.0500   22.3855 C   0  0  0  0  0  0  0  0  0  0  0  0
    8.7580   -4.9262   27.4705 C   0  0  0  0  0  0  0  0  0  0  0  0
    9.3418   -4.3584   24.8023 C   0  0  0  0  0  0  0  0  0  0  0  0
   10.3874   -1.0487   23.3056 C   0  0  0  0  0  0  0  0  0  0  0  0
    5.4324    0.1856   19.3778 C   0  0  0  0  0  0  0  0  0  0  0  0
    7.7469    0.5211   20.3714 C   0  0  0  0  0  0  0  0  0  0  0  0
    5.8303   -0.0559   21.8060 C   0  0  0  0  0  0  0  0  0  0  0  0
    8.5991   -0.4809   21.1523 C   0  0  0  0  0  0  0  0  0  0  0  0
    6.7167   -1.0505   22.5548 C   0  0  0  0  0  0  0  0  0  0  0  0
    8.4453   -5.2303   28.8966 C   0  0  0  0  0  0  0  0  0  0  0  0
    9.6565   -4.0498   23.3606 C   0  0  0  0  0  0  0  0  0  0  0  0
    5.9962    0.5759   18.0348 C   0  0  0  0  0  0  0  0  0  0  0  0
    8.7754   -2.9719   22.7077 C   0  0  0  0  0  0  0  0  0  0  0  0
    8.9596   -1.5507   23.2821 C   0  0  2  0  0  0  0  0  0  0  0  0
   14.3274   -1.9114   20.6383 N   0  0  0  0  0  0  0  0  0  0  0  0
    6.3238    0.1783   20.4498 N   0  0  0  0  0  0  0  0  0  0  0  0
    8.1204   -0.6139   22.5361 N   0  0  0  0  0  0  0  0  0  0  0  0
    4.2376   -0.1073   19.4692 O   0  0  0  0  0  0  0  0  0  0  0  0
    6.5838   -0.9044   17.2857 Cl  0  0  0  0  0  0  0  0  0  0  0  0
   12.4094    1.0634   25.0408 H   0  0  0  0  0  0  0  0  0  0  0  0
   14.0410    0.2465   23.3791 H   0  0  0  0  0  0  0  0  0  0  0  0
   10.0769    0.2452   25.0076 H   0  0  0  0  0  0  0  0  0  0  0  0
   10.1835   -3.3736   27.9430 H   0  0  0  0  0  0  0  0  0  0  0  0
    7.4000   -6.4123   26.6879 H   0  0  0  0  0  0  0  0  0  0  0  0
   10.6976   -2.8705   25.5852 H   0  0  0  0  0  0  0  0  0  0  0  0
    7.9171   -5.9113   24.3294 H   0  0  0  0  0  0  0  0  0  0  0  0
   10.9894   -2.2350   21.6137 H   0  0  0  0  0  0  0  0  0  0  0  0
    7.8568    1.5281   20.7928 H   0  0  0  0  0  0  0  0  0  0  0  0
    8.0979    0.5629   19.3384 H   0  0  0  0  0  0  0  0  0  0  0  0
    4.7989   -0.4229   21.7851 H   0  0  0  0  0  0  0  0  0  0  0  0
    5.8210    0.9139   22.3187 H   0  0  0  0  0  0  0  0  0  0  0  0
    8.5897   -1.4510   20.6378 H   0  0  0  0  0  0  0  0  0  0  0  0
    9.6353   -0.1217   21.1530 H   0  0  0  0  0  0  0  0  0  0  0  0
    6.3624   -1.1122   23.5909 H   0  0  0  0  0  0  0  0  0  0  0  0
    6.6079   -2.0494   22.1117 H   0  0  0  0  0  0  0  0  0  0  0  0
    7.6102   -4.6104   29.2452 H   0  0  0  0  0  0  0  0  0  0  0  0
    8.1739   -6.2857   29.0288 H   0  0  0  0  0  0  0  0  0  0  0  0
    9.3121   -5.0420   29.5435 H   0  0  0  0  0  0  0  0  0  0  0  0
    9.5426   -4.9844   22.7954 H   0  0  0  0  0  0  0  0  0  0  0  0
   10.7114   -3.7674   23.2533 H   0  0  0  0  0  0  0  0  0  0  0  0
    6.8170    1.2678   18.1859 H   0  0  0  0  0  0  0  0  0  0  0  0
    5.2047    1.0087   17.4339 H   0  0  0  0  0  0  0  0  0  0  0  0
    7.7199   -3.2686   22.7217 H   0  0  0  0  0  0  0  0  0  0  0  0
    9.0551   -2.9401   21.6450 H   0  0  0  0  0  0  0  0  0  0  0  0
    8.5537   -1.5420   24.3015 H   0  0  0  0  0  0  0  0  0  0  0  0
  1 10  1  0  0  0  0
  1 24  3  0  0  0  0
  2  3  1  0  0  0  0
  2  4  2  0  0  0  0
  3 10  2  0  0  0  0
  4 13  1  0  0  0  0
  5  7  2  0  0  0  0
  5 11  1  0  0  0  0
  6  8  1  0  0  0  0
  6 11  2  0  0  0  0
  7 12  1  0  0  0  0
  8 12  2  0  0  0  0
  9 10  1  0  0  0  0
  9 13  2  0  0  0  0
 11 19  1  0  0  0  0
 12 20  1  0  0  0  0
 13 23  1  0  0  0  0
 14 21  1  0  0  0  0
 14 25  1  0  0  0  0
 14 27  2  0  0  0  0
 15 17  1  0  0  0  0
 15 25  1  0  0  0  0
 16 18  1  0  0  0  0
 16 25  1  0  0  0  0
 17 26  1  0  0  0  0
 18 26  1  0  0  0  0
 20 22  1  0  0  0  0
 21 28  1  0  0  0  0
 22 23  1  1  0  0  0
 23 26  1  0  0  0  0
  2 29  1  0  0  0  0
  3 30  1  0  0  0  0
  4 31  1  0  0  0  0
  5 32  1  0  0  0  0
  6 33  1  0  0  0  0
  7 34  1  0  0  0  0
  8 35  1  0  0  0  0
  9 36  1  0  0  0  0
 15 37  1  0  0  0  0
 15 38  1  0  0  0  0
 16 39  1  0  0  0  0
 16 40  1  0  0  0  0
 17 41  1  0  0  0  0
 17 42  1  0  0  0  0
 18 43  1  0  0  0  0
 18 44  1  0  0  0  0
 19 45  1  0  0  0  0
 19 46  1  0  0  0  0
 19 47  1  0  0  0  0
 20 48  1  0  0  0  0
 20 49  1  0  0  0  0
 21 50  1  0  0  0  0
 21 51  1  0  0  0  0
 22 52  1  0  0  0  0
 22 53  1  0  0  0  0
 23 54  1  0  0  0  0
M  END
> <Chemgauss4 Score>
-4.92124938964844

> <Number of Confs>
200

$$$$
KIM-UNI-60f-9
  -OEChem-03242005443D

 44 46  0     1  0  0  0  0  0999 V2000
   12.7581   -0.5169   22.4064 C   0  0  0  0  0  0  0  0  0  0  0  0
   12.7988    0.5316   23.3112 C   0  0  0  0  0  0  0  0  0  0  0  0
   10.8468   -0.1433   24.3174 C   0  0  0  0  0  0  0  0  0  0  0  0
   11.6928   -1.4066   22.4886 C   0  0  0  0  0  0  0  0  0  0  0  0
   10.7145   -1.2233   23.4596 C   0  0  0  0  0  0  0  0  0  0  0  0
    7.3102   -3.6870   23.8626 C   0  0  0  0  0  0  0  0  0  0  0  0
    7.2500   -2.6366   23.0444 C   0  0  0  0  0  0  0  0  0  0  0  0
    8.5208   -4.0534   24.5750 C   0  0  0  0  0  0  0  0  0  0  0  0
    9.6173   -3.2683   24.4079 C   0  0  0  0  0  0  0  0  0  0  0  0
    8.4308   -1.7624   22.8633 C   0  0  0  0  0  0  0  0  0  0  0  0
    7.4549   -5.5489   28.1283 C   0  0  0  0  0  0  0  0  0  0  0  0
   10.9328   -3.6979   25.0367 C   0  0  0  0  0  0  0  0  0  0  0  0
   10.9716   -5.1863   25.3762 C   0  0  0  0  0  0  0  0  0  0  0  0
    9.7210   -5.5980   26.1353 C   0  0  0  0  0  0  0  0  0  0  0  0
   11.6236   -2.5458   21.5252 C   0  0  0  0  0  0  0  0  0  0  0  0
    6.5773   -5.5163   26.8904 C   0  0  0  0  0  0  0  0  0  0  0  0
    7.3318   -6.0076   25.6622 C   0  0  0  0  0  0  0  0  0  0  0  0
   11.8672    0.7421   24.2681 N   0  0  0  0  0  0  0  0  0  0  0  0
    7.8995   -6.7002   28.5294 N   0  0  0  0  0  0  0  0  0  0  0  0
    9.5909   -2.1179   23.5862 N   0  0  0  0  0  0  0  0  0  0  0  0
    8.5233   -5.2063   25.3845 N   0  0  3  0  0  0  0  0  0  0  0  0
    7.7351   -4.3547   28.7388 N   0  0  0  0  0  0  0  0  0  0  0  0
    8.2988   -0.7756   22.1378 O   0  0  0  0  0  0  0  0  0  0  0  0
   13.5373   -0.6316   21.6606 H   0  0  0  0  0  0  0  0  0  0  0  0
   13.6087    1.2533   23.2889 H   0  0  0  0  0  0  0  0  0  0  0  0
   10.1158    0.0525   25.0964 H   0  0  0  0  0  0  0  0  0  0  0  0
    6.4055   -4.2671   24.0069 H   0  0  0  0  0  0  0  0  0  0  0  0
    6.3520   -2.4074   22.4823 H   0  0  0  0  0  0  0  0  0  0  0  0
   11.7487   -3.4504   24.3462 H   0  0  0  0  0  0  0  0  0  0  0  0
   11.1159   -3.1501   25.9684 H   0  0  0  0  0  0  0  0  0  0  0  0
   11.0605   -5.7738   24.4552 H   0  0  0  0  0  0  0  0  0  0  0  0
   11.8608   -5.4078   25.9809 H   0  0  0  0  0  0  0  0  0  0  0  0
    9.7074   -6.6837   26.2898 H   0  0  0  0  0  0  0  0  0  0  0  0
    9.7382   -5.1222   27.1229 H   0  0  0  0  0  0  0  0  0  0  0  0
   12.1445   -3.4199   21.9326 H   0  0  0  0  0  0  0  0  0  0  0  0
   10.5837   -2.8248   21.3154 H   0  0  0  0  0  0  0  0  0  0  0  0
   12.0831   -2.2809   20.5648 H   0  0  0  0  0  0  0  0  0  0  0  0
    5.6826   -6.1250   27.0667 H   0  0  0  0  0  0  0  0  0  0  0  0
    6.2492   -4.4827   26.7299 H   0  0  0  0  0  0  0  0  0  0  0  0
    7.6691   -7.0376   25.8138 H   0  0  0  0  0  0  0  0  0  0  0  0
    6.7023   -5.9780   24.7674 H   0  0  0  0  0  0  0  0  0  0  0  0
    8.4765   -6.5574   29.3656 H   0  0  0  0  0  0  0  0  0  0  0  0
    7.3666   -3.4815   28.3774 H   0  0  0  0  0  0  0  0  0  0  0  0
    8.3125   -4.3020   29.5713 H   0  0  0  0  0  0  0  0  0  0  0  0
  1  2  2  0  0  0  0
  1  4  1  0  0  0  0
  2 18  1  0  0  0  0
  3  5  1  0  0  0  0
  3 18  2  0  0  0  0
  4  5  2  0  0  0  0
  4 15  1  0  0  0  0
  5 20  1  0  0  0  0
  6  7  2  0  0  0  0
  6  8  1  0  0  0  0
  7 10  1  0  0  0  0
  8  9  2  0  0  0  0
  8 21  1  0  0  0  0
  9 12  1  0  0  0  0
  9 20  1  0  0  0  0
 10 20  1  0  0  0  0
 10 23  2  0  0  0  0
 11 16  1  0  0  0  0
 11 19  2  0  0  0  0
 11 22  1  0  0  0  0
 12 13  1  0  0  0  0
 13 14  1  0  0  0  0
 14 21  1  0  0  0  0
 16 17  1  0  0  0  0
 17 21  1  6  0  0  0
  1 24  1  0  0  0  0
  2 25  1  0  0  0  0
  3 26  1  0  0  0  0
  6 27  1  0  0  0  0
  7 28  1  0  0  0  0
 12 29  1  0  0  0  0
 12 30  1  0  0  0  0
 13 31  1  0  0  0  0
 13 32  1  0  0  0  0
 14 33  1  0  0  0  0
 14 34  1  0  0  0  0
 15 35  1  0  0  0  0
 15 36  1  0  0  0  0
 15 37  1  0  0  0  0
 16 38  1  0  0  0  0
 16 39  1  0  0  0  0
 17 40  1  0  0  0  0
 17 41  1  0  0  0  0
 19 42  1  0  0  0  0
 22 43  1  0  0  0  0
 22 44  1  0  0  0  0
M  END
> <Chemgauss4 Score>
-4.91749286651611

> <Number of Confs>
20

$$$$
KIM-UNI-60f-9
  -OEChem-03242005443D

 44 46  0     1  0  0  0  0  0999 V2000
   12.7581   -0.5169   22.4064 C   0  0  0  0  0  0  0  0  0  0  0  0
   12.7988    0.5316   23.3112 C   0  0  0  0  0  0  0  0  0  0  0  0
   10.8468   -0.1433   24.3174 C   0  0  0  0  0  0  0  0  0  0  0  0
   11.6928   -1.4066   22.4886 C   0  0  0  0  0  0  0  0  0  0  0  0
   10.7145   -1.2233   23.4596 C   0  0  0  0  0  0  0  0  0  0  0  0
    7.3102   -3.6870   23.8626 C   0  0  0  0  0  0  0  0  0  0  0  0
    7.2500   -2.6366   23.0444 C   0  0  0  0  0  0  0  0  0  0  0  0
    8.5208   -4.0534   24.5750 C   0  0  0  0  0  0  0  0  0  0  0  0
    9.6173   -3.2683   24.4079 C   0  0  0  0  0  0  0  0  0  0  0  0
    8.4308   -1.7624   22.8633 C   0  0  0  0  0  0  0  0  0  0  0  0
    7.4549   -5.5489   28.1283 C   0  0  0  0  0  0  0  0  0  0  0  0
   10.9328   -3.6979   25.0367 C   0  0  0  0  0  0  0  0  0  0  0  0
   10.9716   -5.1863   25.3762 C   0  0  0  0  0  0  0  0  0  0  0  0
    9.7210   -5.5980   26.1353 C   0  0  0  0  0  0  0  0  0  0  0  0
   11.6236   -2.5458   21.5252 C   0  0  0  0  0  0  0  0  0  0  0  0
    6.5773   -5.5163   26.8904 C   0  0  0  0  0  0  0  0  0  0  0  0
    7.3318   -6.0076   25.6622 C   0  0  0  0  0  0  0  0  0  0  0  0
   11.8672    0.7421   24.2681 N   0  0  0  0  0  0  0  0  0  0  0  0
    7.8995   -6.7002   28.5294 N   0  0  0  0  0  0  0  0  0  0  0  0
    9.5909   -2.1179   23.5862 N   0  0  0  0  0  0  0  0  0  0  0  0
    8.5233   -5.2063   25.3845 N   0  0  3  0  0  0  0  0  0  0  0  0
    7.7351   -4.3547   28.7388 N   0  0  0  0  0  0  0  0  0  0  0  0
    8.2988   -0.7756   22.1378 O   0  0  0  0  0  0  0  0  0  0  0  0
   13.5373   -0.6316   21.6606 H   0  0  0  0  0  0  0  0  0  0  0  0
   13.6087    1.2533   23.2889 H   0  0  0  0  0  0  0  0  0  0  0  0
   10.1158    0.0525   25.0964 H   0  0  0  0  0  0  0  0  0  0  0  0
    6.4055   -4.2671   24.0069 H   0  0  0  0  0  0  0  0  0  0  0  0
    6.3520   -2.4074   22.4823 H   0  0  0  0  0  0  0  0  0  0  0  0
   11.7487   -3.4504   24.3462 H   0  0  0  0  0  0  0  0  0  0  0  0
   11.1159   -3.1501   25.9684 H   0  0  0  0  0  0  0  0  0  0  0  0
   11.0605   -5.7738   24.4552 H   0  0  0  0  0  0  0  0  0  0  0  0
   11.8608   -5.4078   25.9809 H   0  0  0  0  0  0  0  0  0  0  0  0
    9.7074   -6.6837   26.2898 H   0  0  0  0  0  0  0  0  0  0  0  0
    9.7382   -5.1222   27.1229 H   0  0  0  0  0  0  0  0  0  0  0  0
   12.1445   -3.4199   21.9326 H   0  0  0  0  0  0  0  0  0  0  0  0
   10.5837   -2.8248   21.3154 H   0  0  0  0  0  0  0  0  0  0  0  0
   12.0831   -2.2809   20.5648 H   0  0  0  0  0  0  0  0  0  0  0  0
    5.6826   -6.1250   27.0667 H   0  0  0  0  0  0  0  0  0  0  0  0
    6.2492   -4.4827   26.7299 H   0  0  0  0  0  0  0  0  0  0  0  0
    7.6691   -7.0376   25.8138 H   0  0  0  0  0  0  0  0  0  0  0  0
    6.7023   -5.9780   24.7674 H   0  0  0  0  0  0  0  0  0  0  0  0
    7.5530   -7.4269   27.8934 H   0  0  0  0  0  0  0  0  0  0  0  0
    7.3666   -3.4815   28.3774 H   0  0  0  0  0  0  0  0  0  0  0  0
    8.3125   -4.3020   29.5713 H   0  0  0  0  0  0  0  0  0  0  0  0
  1  2  2  0  0  0  0
  1  4  1  0  0  0  0
  2 18  1  0  0  0  0
  3  5  1  0  0  0  0
  3 18  2  0  0  0  0
  4  5  2  0  0  0  0
  4 15  1  0  0  0  0
  5 20  1  0  0  0  0
  6  7  2  0  0  0  0
  6  8  1  0  0  0  0
  7 10  1  0  0  0  0
  8  9  2  0  0  0  0
  8 21  1  0  0  0  0
  9 12  1  0  0  0  0
  9 20  1  0  0  0  0
 10 20  1  0  0  0  0
 10 23  2  0  0  0  0
 11 16  1  0  0  0  0
 11 19  2  0  0  0  0
 11 22  1  0  0  0  0
 12 13  1  0  0  0  0
 13 14  1  0  0  0  0
 14 21  1  0  0  0  0
 16 17  1  0  0  0  0
 17 21  1  6  0  0  0
  1 24  1  0  0  0  0
  2 25  1  0  0  0  0
  3 26  1  0  0  0  0
  6 27  1  0  0  0  0
  7 28  1  0  0  0  0
 12 29  1  0  0  0  0
 12 30  1  0  0  0  0
 13 31  1  0  0  0  0
 13 32  1  0  0  0  0
 14 33  1  0  0  0  0
 14 34  1  0  0  0  0
 15 35  1  0  0  0  0
 15 36  1  0  0  0  0
 15 37  1  0  0  0  0
 16 38  1  0  0  0  0
 16 39  1  0  0  0  0
 17 40  1  0  0  0  0
 17 41  1  0  0  0  0
 19 42  1  0  0  0  0
 22 43  1  0  0  0  0
 22 44  1  0  0  0  0
M  END
> <Chemgauss4 Score>
-4.91749286651611

> <Number of Confs>
18

$$$$
ANT-DIA-b7f-4
  -OEChem-03242005443D

 25 25  0     0  0  0  0  0  0999 V2000
    7.1565   -4.9034   25.8839 C   0  0  0  0  0  0  0  0  0  0  0  0
    8.3959   -5.5419   25.9252 C   0  0  0  0  0  0  0  0  0  0  0  0
    7.0148   -3.6995   25.1937 C   0  0  0  0  0  0  0  0  0  0  0  0
    9.4937   -4.9766   25.2765 C   0  0  0  0  0  0  0  0  0  0  0  0
    8.1126   -3.1341   24.5450 C   0  0  0  0  0  0  0  0  0  0  0  0
    9.3520   -3.7726   24.5863 C   0  0  0  0  0  0  0  0  0  0  0  0
   12.1845   -0.9182   22.6091 C   0  0  0  0  0  0  0  0  0  0  0  0
   13.3099   -0.4702   21.7367 C   0  0  0  0  0  0  0  0  0  0  0  0
   10.5255   -3.1674   23.8927 C   0  0  0  0  0  0  0  0  0  0  0  0
   10.1484   -2.3447   22.6545 C   0  0  0  0  0  0  0  0  0  0  0  0
   11.3002   -1.7905   21.9949 N   0  0  0  0  0  0  0  0  0  0  0  0
   12.1137   -0.5087   23.7619 O   0  0  0  0  0  0  0  0  0  0  0  0
    6.3015   -5.3445   26.3879 H   0  0  0  0  0  0  0  0  0  0  0  0
    8.5061   -6.4799   26.4616 H   0  0  0  0  0  0  0  0  0  0  0  0
    6.0497   -3.2027   25.1604 H   0  0  0  0  0  0  0  0  0  0  0  0
   10.4556   -5.4810   25.3142 H   0  0  0  0  0  0  0  0  0  0  0  0
    7.9928   -2.1958   24.0098 H   0  0  0  0  0  0  0  0  0  0  0  0
   13.0673    0.4459   21.1747 H   0  0  0  0  0  0  0  0  0  0  0  0
   14.2171   -0.2268   22.3127 H   0  0  0  0  0  0  0  0  0  0  0  0
   13.6359   -1.1984   20.9770 H   0  0  0  0  0  0  0  0  0  0  0  0
   11.2196   -3.9670   23.5835 H   0  0  0  0  0  0  0  0  0  0  0  0
   11.1045   -2.5356   24.5879 H   0  0  0  0  0  0  0  0  0  0  0  0
    9.6348   -2.9719   21.9190 H   0  0  0  0  0  0  0  0  0  0  0  0
    9.4858   -1.5132   22.9163 H   0  0  0  0  0  0  0  0  0  0  0  0
   11.4750   -2.0529   21.0261 H   0  0  0  0  0  0  0  0  0  0  0  0
  1  2  1  0  0  0  0
  1  3  2  0  0  0  0
  2  4  2  0  0  0  0
  3  5  1  0  0  0  0
  4  6  1  0  0  0  0
  5  6  2  0  0  0  0
  6  9  1  0  0  0  0
  7  8  1  0  0  0  0
  7 11  1  0  0  0  0
  7 12  2  0  0  0  0
  9 10  1  0  0  0  0
 10 11  1  0  0  0  0
  1 13  1  0  0  0  0
  2 14  1  0  0  0  0
  3 15  1  0  0  0  0
  4 16  1  0  0  0  0
  5 17  1  0  0  0  0
  8 18  1  0  0  0  0
  8 19  1  0  0  0  0
  8 20  1  0  0  0  0
  9 21  1  0  0  0  0
  9 22  1  0  0  0  0
 10 23  1  0  0  0  0
 10 24  1  0  0  0  0
 11 25  1  0  0  0  0
M  END
> <Chemgauss4 Score>
-4.91220235824585

> <Number of Confs>
17

$$$$
ANT-DIA-b7f-7
  -OEChem-03242005443D

 28 29  0     0  0  0  0  0  0999 V2000
    9.7245   -3.2647   27.0848 C   0  0  0  0  0  0  0  0  0  0  0  0
    9.1223   -4.5073   26.8669 C   0  0  0  0  0  0  0  0  0  0  0  0
    8.4834   -2.2970   25.2403 C   0  0  0  0  0  0  0  0  0  0  0  0
    6.7189   -5.5969   24.4672 C   0  0  0  0  0  0  0  0  0  0  0  0
    9.4078   -2.1753   26.2809 C   0  0  0  0  0  0  0  0  0  0  0  0
    8.1848   -4.6577   25.8222 C   0  0  0  0  0  0  0  0  0  0  0  0
    7.8823   -3.5480   25.0272 C   0  0  0  0  0  0  0  0  0  0  0  0
   12.4826   -1.8534   22.2753 C   0  0  0  0  0  0  0  0  0  0  0  0
   10.0625   -0.8572   26.5309 C   0  0  0  0  0  0  0  0  0  0  0  0
   11.3690   -0.6657   25.7518 C   0  0  0  0  0  0  0  0  0  0  0  0
    7.5104   -5.8235   25.4894 N   0  0  0  0  0  0  0  0  0  0  0  0
   11.1704   -0.7218   24.3284 N   0  0  0  0  0  0  0  0  0  0  0  0
    9.9943   -2.4627   22.8115 O   0  0  0  0  0  0  0  0  0  0  0  0
   11.8089   -3.2398   24.3799 O   0  0  0  0  0  0  0  0  0  0  0  0
    6.7195   -4.0058   23.8393 S   0  0  0  0  0  0  0  0  0  0  0  0
   11.2496   -2.2322   23.4993 S   0  0  0  0  0  0  0  0  0  0  0  0
   10.4450   -3.1608   27.8925 H   0  0  0  0  0  0  0  0  0  0  0  0
    9.3771   -5.3517   27.5011 H   0  0  0  0  0  0  0  0  0  0  0  0
    8.2353   -1.4465   24.6118 H   0  0  0  0  0  0  0  0  0  0  0  0
    6.0967   -6.3718   24.0408 H   0  0  0  0  0  0  0  0  0  0  0  0
   12.6413   -2.7406   21.6602 H   0  0  0  0  0  0  0  0  0  0  0  0
   12.1191   -1.0251   21.6652 H   0  0  0  0  0  0  0  0  0  0  0  0
   13.4037   -1.5746   22.7892 H   0  0  0  0  0  0  0  0  0  0  0  0
   10.2778   -0.7558   27.6075 H   0  0  0  0  0  0  0  0  0  0  0  0
    9.3714   -0.0305   26.2947 H   0  0  0  0  0  0  0  0  0  0  0  0
   11.8055    0.3138   25.9713 H   0  0  0  0  0  0  0  0  0  0  0  0
   12.1046   -1.4336   26.0132 H   0  0  0  0  0  0  0  0  0  0  0  0
   10.4707   -0.0513   23.9420 H   0  0  0  0  0  0  0  0  0  0  0  0
  1  2  2  0  0  0  0
  1  5  1  0  0  0  0
  2  6  1  0  0  0  0
  3  5  2  0  0  0  0
  3  7  1  0  0  0  0
  4 11  2  0  0  0  0
  4 15  1  0  0  0  0
  5  9  1  0  0  0  0
  6  7  2  0  0  0  0
  6 11  1  0  0  0  0
  7 15  1  0  0  0  0
  8 16  1  0  0  0  0
  9 10  1  0  0  0  0
 10 12  1  0  0  0  0
 12 16  1  0  0  0  0
 13 16  2  0  0  0  0
 14 16  2  0  0  0  0
  1 17  1  0  0  0  0
  2 18  1  0  0  0  0
  3 19  1  0  0  0  0
  4 20  1  0  0  0  0
  8 21  1  0  0  0  0
  8 22  1  0  0  0  0
  8 23  1  0  0  0  0
  9 24  1  0  0  0  0
  9 25  1  0  0  0  0
 10 26  1  0  0  0  0
 10 27  1  0  0  0  0
 12 28  1  0  0  0  0
M  END
> <Chemgauss4 Score>
-4.91106033325195

> <Number of Confs>
166

$$$$
DAN-LON-a5f-2
  -OEChem-03242005443D

 41 43  0     1  0  0  0  0  0999 V2000
    9.4446   -0.5278   22.0033 C   0  0  0  0  0  0  0  0  0  0  0  0
    8.4578    0.0234   25.4999 C   0  0  0  0  0  0  0  0  0  0  0  0
    9.1782   -1.8438   22.3810 C   0  0  0  0  0  0  0  0  0  0  0  0
   10.7487   -0.0361   22.0606 C   0  0  0  0  0  0  0  0  0  0  0  0
    8.4355   -1.3947   25.3636 C   0  0  0  0  0  0  0  0  0  0  0  0
   11.5200   -2.1765   22.8734 C   0  0  0  0  0  0  0  0  0  0  0  0
    9.7068    0.4905   25.8453 C   0  0  0  0  0  0  0  0  0  0  0  0
   10.2159   -2.6682   22.8161 C   0  0  0  0  0  0  0  0  0  0  0  0
   11.7864   -0.8605   22.4957 C   0  0  0  0  0  0  0  0  0  0  0  0
    9.6686   -1.9575   25.6098 C   0  0  0  0  0  0  0  0  0  0  0  0
    7.9829   -4.4288   28.4268 C   0  0  0  0  0  0  0  0  0  0  0  0
    8.1687   -5.5757   26.1889 C   0  0  0  0  0  0  0  0  0  0  0  0
    9.0178   -5.5432   24.9177 C   0  0  0  0  0  0  0  0  0  0  0  0
    9.9564   -4.0495   26.9814 C   0  0  0  0  0  0  0  0  0  0  0  0
   10.0650   -3.4283   25.5681 C   0  0  1  0  0  0  0  0  0  0  0  0
    9.9282   -4.0843   23.2236 C   0  0  0  0  0  0  0  0  0  0  0  0
    6.6864   -5.1780   28.6170 C   0  0  0  0  0  0  0  0  0  0  0  0
    8.6528   -4.6613   27.2250 N   0  0  0  0  0  0  0  0  0  0  0  0
    9.2905   -4.1568   24.5374 N   0  0  1  0  0  0  0  0  0  0  0  0
    8.3792   -3.6619   29.3072 O   0  0  0  0  0  0  0  0  0  0  0  0
   10.8460   -0.7781   26.0038 S   0  0  0  0  0  0  0  0  0  0  0  0
   13.3950   -0.2529   22.5673 Cl  0  0  0  0  0  0  0  0  0  0  0  0
    7.0992   -6.7176   29.3632 Cl  0  0  0  0  0  0  0  0  0  0  0  0
    8.6363    0.1138   21.6647 H   0  0  0  0  0  0  0  0  0  0  0  0
    7.6019    0.6688   25.3515 H   0  0  0  0  0  0  0  0  0  0  0  0
    8.1591   -2.2185   22.3332 H   0  0  0  0  0  0  0  0  0  0  0  0
   10.9415    0.9918   21.7634 H   0  0  0  0  0  0  0  0  0  0  0  0
    7.5570   -1.9684   25.0966 H   0  0  0  0  0  0  0  0  0  0  0  0
   12.3257   -2.8234   23.2129 H   0  0  0  0  0  0  0  0  0  0  0  0
   10.0047    1.5160   26.0126 H   0  0  0  0  0  0  0  0  0  0  0  0
    7.1259   -5.2866   25.9641 H   0  0  0  0  0  0  0  0  0  0  0  0
    8.1236   -6.6086   26.5755 H   0  0  0  0  0  0  0  0  0  0  0  0
    9.9417   -6.0957   25.0883 H   0  0  0  0  0  0  0  0  0  0  0  0
    8.4588   -6.0439   24.1286 H   0  0  0  0  0  0  0  0  0  0  0  0
   10.7722   -4.7692   27.1268 H   0  0  0  0  0  0  0  0  0  0  0  0
   10.0903   -3.2780   27.7576 H   0  0  0  0  0  0  0  0  0  0  0  0
   11.1479   -3.4436   25.2708 H   0  0  0  0  0  0  0  0  0  0  0  0
    9.2636   -4.5672   22.4990 H   0  0  0  0  0  0  0  0  0  0  0  0
   10.8488   -4.6760   23.2652 H   0  0  0  0  0  0  0  0  0  0  0  0
    6.2313   -5.3445   27.6474 H   0  0  0  0  0  0  0  0  0  0  0  0
    6.0432   -4.6056   29.2754 H   0  0  0  0  0  0  0  0  0  0  0  0
  1  3  2  0  0  0  0
  1  4  1  0  0  0  0
  2  5  1  0  0  0  0
  2  7  2  0  0  0  0
  3  8  1  0  0  0  0
  4  9  2  0  0  0  0
  5 10  2  0  0  0  0
  6  8  2  0  0  0  0
  6  9  1  0  0  0  0
  7 21  1  0  0  0  0
  8 16  1  0  0  0  0
  9 22  1  0  0  0  0
 10 15  1  1  0  0  0
 10 21  1  0  0  0  0
 11 17  1  0  0  0  0
 11 18  1  0  0  0  0
 11 20  2  0  0  0  0
 12 13  1  0  0  0  0
 12 18  1  0  0  0  0
 13 19  1  0  0  0  0
 14 15  1  0  0  0  0
 14 18  1  0  0  0  0
 15 19  1  0  0  0  0
 16 19  1  6  0  0  0
 17 23  1  0  0  0  0
  1 24  1  0  0  0  0
  2 25  1  0  0  0  0
  3 26  1  0  0  0  0
  4 27  1  0  0  0  0
  5 28  1  0  0  0  0
  6 29  1  0  0  0  0
  7 30  1  0  0  0  0
 12 31  1  0  0  0  0
 12 32  1  0  0  0  0
 13 33  1  0  0  0  0
 13 34  1  0  0  0  0
 14 35  1  0  0  0  0
 14 36  1  0  0  0  0
 15 37  1  0  0  0  0
 16 38  1  0  0  0  0
 16 39  1  0  0  0  0
 17 40  1  0  0  0  0
 17 41  1  0  0  0  0
M  END
> <Chemgauss4 Score>
-4.90708065032959

> <Number of Confs>
182

$$$$
CHR-SOS-709-21
  -OEChem-03242005443D

 25 26  0     0  0  0  0  0  0999 V2000
   12.2142   -1.5526   22.0179 C   0  0  0  0  0  0  0  0  0  0  0  0
   11.6245   -2.5928   22.7360 C   0  0  0  0  0  0  0  0  0  0  0  0
   11.8226   -0.2343   22.2513 C   0  0  0  0  0  0  0  0  0  0  0  0
    7.8937   -4.2578   28.8125 C   0  0  0  0  0  0  0  0  0  0  0  0
   10.2515   -0.9965   23.9209 C   0  0  0  0  0  0  0  0  0  0  0  0
    7.7655   -5.5899   28.4538 C   0  0  0  0  0  0  0  0  0  0  0  0
    8.7534   -5.2277   26.4115 C   0  0  0  0  0  0  0  0  0  0  0  0
   10.6432   -2.3148   23.6875 C   0  0  0  0  0  0  0  0  0  0  0  0
    8.9277   -3.8785   26.6744 C   0  0  0  0  0  0  0  0  0  0  0  0
   10.8412    0.0438   23.2027 C   0  0  0  0  0  0  0  0  0  0  0  0
    8.4870   -3.3923   27.9003 C   0  0  0  0  0  0  0  0  0  0  0  0
   10.0285   -3.3999   24.4353 C   0  0  0  0  0  0  0  0  0  0  0  0
    8.1815   -6.0990   27.2725 N   0  0  0  0  0  0  0  0  0  0  0  0
    9.5400   -3.0471   25.7030 N   0  0  0  0  0  0  0  0  0  0  0  0
    9.9790   -4.5538   23.9870 O   0  0  0  0  0  0  0  0  0  0  0  0
   10.3588    1.6707   23.4905 Cl  0  0  0  0  0  0  0  0  0  0  0  0
    8.6572   -1.7283   28.3261 Cl  0  0  0  0  0  0  0  0  0  0  0  0
   12.9784   -1.7692   21.2774 H   0  0  0  0  0  0  0  0  0  0  0  0
   11.9379   -3.6160   22.5452 H   0  0  0  0  0  0  0  0  0  0  0  0
   12.2909    0.5660   21.6840 H   0  0  0  0  0  0  0  0  0  0  0  0
    7.5374   -3.9164   29.7788 H   0  0  0  0  0  0  0  0  0  0  0  0
    9.4861   -0.7826   24.6642 H   0  0  0  0  0  0  0  0  0  0  0  0
    7.3104   -6.3062   29.1303 H   0  0  0  0  0  0  0  0  0  0  0  0
    9.0770   -5.6670   25.4726 H   0  0  0  0  0  0  0  0  0  0  0  0
    9.6381   -2.0674   25.9578 H   0  0  0  0  0  0  0  0  0  0  0  0
  1  2  2  0  0  0  0
  1  3  1  0  0  0  0
  2  8  1  0  0  0  0
  3 10  2  0  0  0  0
  4  6  2  0  0  0  0
  4 11  1  0  0  0  0
  5  8  2  0  0  0  0
  5 10  1  0  0  0  0
  6 13  1  0  0  0  0
  7  9  1  0  0  0  0
  7 13  2  0  0  0  0
  8 12  1  0  0  0  0
  9 11  2  0  0  0  0
  9 14  1  0  0  0  0
 10 16  1  0  0  0  0
 11 17  1  0  0  0  0
 12 14  1  0  0  0  0
 12 15  2  0  0  0  0
  1 18  1  0  0  0  0
  2 19  1  0  0  0  0
  3 20  1  0  0  0  0
  4 21  1  0  0  0  0
  5 22  1  0  0  0  0
  6 23  1  0  0  0  0
  7 24  1  0  0  0  0
 14 25  1  0  0  0  0
M  END
> <Chemgauss4 Score>
-4.90644788742065

> <Number of Confs>
6

$$$$
WAR-XCH-eb7-4
  -OEChem-03242005443D

 28 29  0     0  0  0  0  0  0999 V2000
   13.1604   -0.7274   22.4253 C   0  0  0  0  0  0  0  0  0  0  0  0
   12.2076   -1.7271   22.5864 C   0  0  0  0  0  0  0  0  0  0  0  0
    8.2480   -4.8173   26.9526 C   0  0  0  0  0  0  0  0  0  0  0  0
    6.6447   -5.2020   25.1867 C   0  0  0  0  0  0  0  0  0  0  0  0
    6.1903   -5.9924   27.4241 C   0  0  0  0  0  0  0  0  0  0  0  0
   13.1071    0.3629   23.2788 C   0  0  0  0  0  0  0  0  0  0  0  0
   11.2769   -0.4782   24.3836 C   0  0  0  0  0  0  0  0  0  0  0  0
   11.2443   -1.6078   23.5818 C   0  0  0  0  0  0  0  0  0  0  0  0
    7.8650   -4.6821   25.6182 C   0  0  0  0  0  0  0  0  0  0  0  0
    7.4106   -5.4725   27.8556 C   0  0  0  0  0  0  0  0  0  0  0  0
    5.8073   -5.8571   26.0896 C   0  0  0  0  0  0  0  0  0  0  0  0
    9.6214   -2.9774   24.9636 C   0  0  0  0  0  0  0  0  0  0  0  0
   12.1866    0.5137   24.2573 N   0  0  0  0  0  0  0  0  0  0  0  0
   10.2617   -2.6085   23.7698 N   0  0  0  0  0  0  0  0  0  0  0  0
    8.7020   -4.0259   24.7154 N   0  0  0  0  0  0  0  0  0  0  0  0
    9.8232   -2.4712   26.0628 O   0  0  0  0  0  0  0  0  0  0  0  0
    7.7841   -5.6042   29.1577 O   0  0  0  0  0  0  0  0  0  0  0  0
    4.3018   -6.4985   25.5578 Cl  0  0  0  0  0  0  0  0  0  0  0  0
   13.9207   -0.7994   21.6560 H   0  0  0  0  0  0  0  0  0  0  0  0
   12.2250   -2.5941   21.9313 H   0  0  0  0  0  0  0  0  0  0  0  0
    9.1985   -4.4138   27.2940 H   0  0  0  0  0  0  0  0  0  0  0  0
    6.3487   -5.0947   24.1453 H   0  0  0  0  0  0  0  0  0  0  0  0
    5.5431   -6.5019   28.1343 H   0  0  0  0  0  0  0  0  0  0  0  0
   13.8273    1.1700   23.1936 H   0  0  0  0  0  0  0  0  0  0  0  0
   10.5514   -0.3285   25.1777 H   0  0  0  0  0  0  0  0  0  0  0  0
    9.9853   -3.1238   22.9379 H   0  0  0  0  0  0  0  0  0  0  0  0
    8.6551   -4.3353   23.7387 H   0  0  0  0  0  0  0  0  0  0  0  0
    8.6517   -5.1939   29.3020 H   0  0  0  0  0  0  0  0  0  0  0  0
  1  2  2  0  0  0  0
  1  6  1  0  0  0  0
  2  8  1  0  0  0  0
  3  9  1  0  0  0  0
  3 10  2  0  0  0  0
  4  9  2  0  0  0  0
  4 11  1  0  0  0  0
  5 10  1  0  0  0  0
  5 11  2  0  0  0  0
  6 13  2  0  0  0  0
  7  8  2  0  0  0  0
  7 13  1  0  0  0  0
  8 14  1  0  0  0  0
  9 15  1  0  0  0  0
 10 17  1  0  0  0  0
 11 18  1  0  0  0  0
 12 14  1  0  0  0  0
 12 15  1  0  0  0  0
 12 16  2  0  0  0  0
  1 19  1  0  0  0  0
  2 20  1  0  0  0  0
  3 21  1  0  0  0  0
  4 22  1  0  0  0  0
  5 23  1  0  0  0  0
  6 24  1  0  0  0  0
  7 25  1  0  0  0  0
 14 26  1  0  0  0  0
 15 27  1  0  0  0  0
 17 28  1  0  0  0  0
M  END
> <Chemgauss4 Score>
-4.90604734420776

> <Number of Confs>
12

$$$$
DAN-LON-a5f-6
  -OEChem-03242005443D

 44 46  0     1  0  0  0  0  0999 V2000
   13.8769   -1.7502   20.7352 C   0  0  0  0  0  0  0  0  0  0  0  0
   13.7738   -0.9967   21.9045 C   0  0  0  0  0  0  0  0  0  0  0  0
   12.9171   -2.7194   20.4431 C   0  0  0  0  0  0  0  0  0  0  0  0
    7.3927   -5.4114   29.0072 C   0  0  0  0  0  0  0  0  0  0  0  0
   12.7110   -1.2123   22.7817 C   0  0  0  0  0  0  0  0  0  0  0  0
   11.8543   -2.9350   21.3204 C   0  0  0  0  0  0  0  0  0  0  0  0
    8.6091   -5.0513   28.4275 C   0  0  0  0  0  0  0  0  0  0  0  0
    6.3141   -5.7709   28.1990 C   0  0  0  0  0  0  0  0  0  0  0  0
    7.6685   -5.4102   26.2312 C   0  0  0  0  0  0  0  0  0  0  0  0
   11.7512   -2.1815   22.4897 C   0  0  0  0  0  0  0  0  0  0  0  0
    8.7471   -5.0507   27.0394 C   0  0  0  0  0  0  0  0  0  0  0  0
    6.4521   -5.7703   26.8110 C   0  0  0  0  0  0  0  0  0  0  0  0
    9.3957   -0.2499   23.2769 C   0  0  0  0  0  0  0  0  0  0  0  0
   10.3464   -1.0241   25.4997 C   0  0  0  0  0  0  0  0  0  0  0  0
    9.8852   -2.2534   26.2945 C   0  0  0  0  0  0  0  0  0  0  0  0
   10.9532   -3.4885   24.4968 C   0  0  0  0  0  0  0  0  0  0  0  0
   10.5927   -2.4173   23.4455 C   0  0  1  0  0  0  0  0  0  0  0  0
   10.0564   -4.6618   26.4161 C   0  0  0  0  0  0  0  0  0  0  0  0
    9.2391   -0.5872   21.8160 C   0  0  0  0  0  0  0  0  0  0  0  0
   10.0930   -1.1709   24.0635 N   0  0  0  0  0  0  0  0  0  0  0  0
    9.9192   -3.5091   25.5319 N   0  0  1  0  0  0  0  0  0  0  0  0
    8.9118    0.7990   23.7107 O   0  0  0  0  0  0  0  0  0  0  0  0
    5.1207   -6.2128   25.8143 Cl  0  0  0  0  0  0  0  0  0  0  0  0
    7.7619   -1.5336   21.6727 Cl  0  0  0  0  0  0  0  0  0  0  0  0
   14.7038   -1.5812   20.0516 H   0  0  0  0  0  0  0  0  0  0  0  0
   14.5204   -0.2412   22.1315 H   0  0  0  0  0  0  0  0  0  0  0  0
   12.9965   -3.3054   19.5324 H   0  0  0  0  0  0  0  0  0  0  0  0
    7.2856   -5.4116   30.0881 H   0  0  0  0  0  0  0  0  0  0  0  0
   12.6388   -0.6206   23.6905 H   0  0  0  0  0  0  0  0  0  0  0  0
   11.1113   -3.6924   21.0847 H   0  0  0  0  0  0  0  0  0  0  0  0
    9.4441   -4.7725   29.0650 H   0  0  0  0  0  0  0  0  0  0  0  0
    5.3719   -6.0490   28.6647 H   0  0  0  0  0  0  0  0  0  0  0  0
    7.7813   -5.4086   25.1495 H   0  0  0  0  0  0  0  0  0  0  0  0
    9.8844   -0.1272   25.9166 H   0  0  0  0  0  0  0  0  0  0  0  0
   11.4316   -0.9002   25.6059 H   0  0  0  0  0  0  0  0  0  0  0  0
   10.5114   -2.3166   27.1942 H   0  0  0  0  0  0  0  0  0  0  0  0
    8.8540   -2.0945   26.6321 H   0  0  0  0  0  0  0  0  0  0  0  0
   11.0057   -4.4614   23.9900 H   0  0  0  0  0  0  0  0  0  0  0  0
   11.9440   -3.3088   24.9377 H   0  0  0  0  0  0  0  0  0  0  0  0
    9.7505   -2.8105   22.8191 H   0  0  0  0  0  0  0  0  0  0  0  0
   10.7916   -4.4092   27.1879 H   0  0  0  0  0  0  0  0  0  0  0  0
   10.4723   -5.4869   25.8283 H   0  0  0  0  0  0  0  0  0  0  0  0
   10.0912   -1.1772   21.4980 H   0  0  0  0  0  0  0  0  0  0  0  0
    9.1479    0.3331   21.2505 H   0  0  0  0  0  0  0  0  0  0  0  0
  1  2  1  0  0  0  0
  1  3  2  0  0  0  0
  2  5  2  0  0  0  0
  3  6  1  0  0  0  0
  4  7  2  0  0  0  0
  4  8  1  0  0  0  0
  5 10  1  0  0  0  0
  6 10  2  0  0  0  0
  7 11  1  0  0  0  0
  8 12  2  0  0  0  0
  9 11  2  0  0  0  0
  9 12  1  0  0  0  0
 10 17  1  6  0  0  0
 11 18  1  0  0  0  0
 12 23  1  0  0  0  0
 13 19  1  0  0  0  0
 13 20  1  0  0  0  0
 13 22  2  0  0  0  0
 14 15  1  0  0  0  0
 14 20  1  0  0  0  0
 15 21  1  0  0  0  0
 16 17  1  0  0  0  0
 16 21  1  0  0  0  0
 17 20  1  0  0  0  0
 18 21  1  6  0  0  0
 19 24  1  0  0  0  0
  1 25  1  0  0  0  0
  2 26  1  0  0  0  0
  3 27  1  0  0  0  0
  4 28  1  0  0  0  0
  5 29  1  0  0  0  0
  6 30  1  0  0  0  0
  7 31  1  0  0  0  0
  8 32  1  0  0  0  0
  9 33  1  0  0  0  0
 14 34  1  0  0  0  0
 14 35  1  0  0  0  0
 15 36  1  0  0  0  0
 15 37  1  0  0  0  0
 16 38  1  0  0  0  0
 16 39  1  0  0  0  0
 17 40  1  0  0  0  0
 18 41  1  0  0  0  0
 18 42  1  0  0  0  0
 19 43  1  0  0  0  0
 19 44  1  0  0  0  0
M  END
> <Chemgauss4 Score>
-4.90404939651489

> <Number of Confs>
75

$$$$
DAV-AUT-7eb-4
  -OEChem-03242005443D

 37 39  0     1  0  0  0  0  0999 V2000
    9.7813   -4.9995   25.2804 C   0  0  0  0  0  0  0  0  0  0  0  0
    8.6269   -5.5817   25.8084 C   0  0  0  0  0  0  0  0  0  0  0  0
    8.5473   -3.0007   24.5981 C   0  0  0  0  0  0  0  0  0  0  0  0
    7.4150   -3.5881   25.1241 C   0  0  0  0  0  0  0  0  0  0  0  0
    9.7426   -3.7227   24.6824 C   0  0  0  0  0  0  0  0  0  0  0  0
    7.4666   -4.8468   25.7178 C   0  0  0  0  0  0  0  0  0  0  0  0
    6.0315   -3.0688   25.1728 C   0  0  0  0  0  0  0  0  0  0  0  0
   11.9267   -0.0950   24.0513 C   0  0  0  0  0  0  0  0  0  0  0  0
   12.6526   -0.8482   22.9504 C   0  0  0  0  0  0  0  0  0  0  0  0
   11.7723   -2.3208   25.1924 C   0  0  0  0  0  0  0  0  0  0  0  0
   11.7725   -1.8518   22.2133 C   0  0  0  0  0  0  0  0  0  0  0  0
   11.0184   -3.1256   24.1194 C   0  0  2  0  0  0  0  0  0  0  0  0
   10.8108   -0.2803   26.2561 C   0  0  0  0  0  0  0  0  0  0  0  0
    5.9882   -5.2932   28.0327 C   0  0  0  0  0  0  0  0  0  0  0  0
    5.1522   -4.0032   25.8021 N   0  0  0  0  0  0  0  0  0  0  0  0
   11.5067   -0.8813   25.1285 N   0  0  0  0  0  0  0  0  0  0  0  0
    5.7383   -1.9742   24.7160 O   0  0  0  0  0  0  0  0  0  0  0  0
   11.7513    1.1206   23.9583 O   0  0  0  0  0  0  0  0  0  0  0  0
    5.6275   -6.6644   25.8129 O   0  0  0  0  0  0  0  0  0  0  0  0
   10.6762   -2.3459   22.9717 O   0  0  0  0  0  0  0  0  0  0  0  0
    5.8698   -5.3106   26.2659 S   0  0  1  0  0  0  0  0  0  0  0  0
   10.7208   -5.5451   25.3329 H   0  0  0  0  0  0  0  0  0  0  0  0
    8.6535   -6.5635   26.2652 H   0  0  0  0  0  0  0  0  0  0  0  0
    8.5138   -2.0201   24.1364 H   0  0  0  0  0  0  0  0  0  0  0  0
   13.1195   -0.1247   22.2594 H   0  0  0  0  0  0  0  0  0  0  0  0
   13.4827   -1.3939   23.4342 H   0  0  0  0  0  0  0  0  0  0  0  0
   11.4969   -2.6694   26.2008 H   0  0  0  0  0  0  0  0  0  0  0  0
   12.8605   -2.4692   25.0941 H   0  0  0  0  0  0  0  0  0  0  0  0
   11.3297   -1.3466   21.3341 H   0  0  0  0  0  0  0  0  0  0  0  0
   12.3600   -2.7009   21.8058 H   0  0  0  0  0  0  0  0  0  0  0  0
   11.6429   -4.0071   23.7867 H   0  0  0  0  0  0  0  0  0  0  0  0
    9.7271   -0.2920   26.0673 H   0  0  0  0  0  0  0  0  0  0  0  0
   11.0299   -0.8527   27.1694 H   0  0  0  0  0  0  0  0  0  0  0  0
   11.1492    0.7585   26.3842 H   0  0  0  0  0  0  0  0  0  0  0  0
    5.0185   -5.5756   28.4456 H   0  0  0  0  0  0  0  0  0  0  0  0
    6.7550   -6.0087   28.3335 H   0  0  0  0  0  0  0  0  0  0  0  0
    6.2600   -4.2852   28.3496 H   0  0  0  0  0  0  0  0  0  0  0  0
  1  2  2  0  0  0  0
  1  5  1  0  0  0  0
  2  6  1  0  0  0  0
  3  4  1  0  0  0  0
  3  5  2  0  0  0  0
  4  6  2  0  0  0  0
  4  7  1  0  0  0  0
  5 12  1  0  0  0  0
  6 21  1  0  0  0  0
  7 15  1  0  0  0  0
  7 17  2  0  0  0  0
  8  9  1  0  0  0  0
  8 16  1  0  0  0  0
  8 18  2  0  0  0  0
  9 11  1  0  0  0  0
 10 12  1  0  0  0  0
 10 16  1  0  0  0  0
 11 20  1  0  0  0  0
 12 20  1  0  0  0  0
 13 16  1  0  0  0  0
 14 21  1  6  0  0  0
 15 21  2  0  0  0  0
 19 21  2  0  0  0  0
  1 22  1  0  0  0  0
  2 23  1  0  0  0  0
  3 24  1  0  0  0  0
  9 25  1  0  0  0  0
  9 26  1  0  0  0  0
 10 27  1  0  0  0  0
 10 28  1  0  0  0  0
 11 29  1  0  0  0  0
 11 30  1  0  0  0  0
 12 31  1  6  0  0  0
 13 32  1  0  0  0  0
 13 33  1  0  0  0  0
 13 34  1  0  0  0  0
 14 35  1  0  0  0  0
 14 36  1  0  0  0  0
 14 37  1  0  0  0  0
M  END
> <Chemgauss4 Score>
-4.9032621383667

> <Number of Confs>
8

$$$$
CHR-SOS-b30-2
  -OEChem-03242005443D

 45 47  0     0  0  0  0  0  0999 V2000
   10.0409   -2.4911   23.7362 C   0  0  0  0  0  0  0  0  0  0  0  0
    9.0476   -3.0452   24.1223 C   0  0  0  0  0  0  0  0  0  0  0  0
   12.9280   -0.1502   23.5221 C   0  0  0  0  0  0  0  0  0  0  0  0
    7.0238    1.4790   20.4719 C   0  0  0  0  0  0  0  0  0  0  0  0
   11.7766   -0.7722   23.9919 C   0  0  0  0  0  0  0  0  0  0  0  0
    6.9289    0.3971   21.3401 C   0  0  0  0  0  0  0  0  0  0  0  0
   13.4841   -0.6203   22.3433 C   0  0  0  0  0  0  0  0  0  0  0  0
    7.1950    1.2148   19.1226 C   0  0  0  0  0  0  0  0  0  0  0  0
   11.8566   -2.2251   22.1106 C   0  0  0  0  0  0  0  0  0  0  0  0
    7.1787   -1.0556   19.4737 C   0  0  0  0  0  0  0  0  0  0  0  0
   11.2243   -1.8303   23.2786 C   0  0  0  0  0  0  0  0  0  0  0  0
    7.0069   -0.8977   20.8395 C   0  0  0  0  0  0  0  0  0  0  0  0
    6.7419   -2.0176   23.0795 C   0  0  0  0  0  0  0  0  0  0  0  0
    8.5751   -5.1070   27.1454 C   0  0  0  0  0  0  0  0  0  0  0  0
    9.0234   -5.6562   25.7958 C   0  0  0  0  0  0  0  0  0  0  0  0
    8.3823   -3.5953   27.1013 C   0  0  0  0  0  0  0  0  0  0  0  0
    8.0642   -5.2518   24.6740 C   0  0  0  0  0  0  0  0  0  0  0  0
    7.4201   -3.1803   25.9860 C   0  0  0  0  0  0  0  0  0  0  0  0
    7.8224   -3.7285   24.5997 C   0  0  0  0  0  0  0  0  0  0  0  0
    6.6957   -3.4410   23.5925 C   0  0  0  0  0  0  0  0  0  0  0  0
   12.9764   -1.6454   21.6229 N   0  0  0  0  0  0  0  0  0  0  0  0
    7.2751   -0.0291   18.5992 N   0  0  0  0  0  0  0  0  0  0  0  0
    6.9139   -2.0188   21.6982 N   0  0  0  0  0  0  0  0  0  0  0  0
    6.6376   -1.0431   23.8171 O   0  0  0  0  0  0  0  0  0  0  0  0
   13.3761    0.6769   24.0606 H   0  0  0  0  0  0  0  0  0  0  0  0
    6.9656    2.4970   20.8400 H   0  0  0  0  0  0  0  0  0  0  0  0
   11.3212   -0.4221   24.9148 H   0  0  0  0  0  0  0  0  0  0  0  0
    6.7943    0.5742   22.4039 H   0  0  0  0  0  0  0  0  0  0  0  0
   14.3825   -0.1694   21.9354 H   0  0  0  0  0  0  0  0  0  0  0  0
    7.2754    2.0241   18.4045 H   0  0  0  0  0  0  0  0  0  0  0  0
   11.4756   -3.0441   21.5071 H   0  0  0  0  0  0  0  0  0  0  0  0
    7.2464   -2.0416   19.0235 H   0  0  0  0  0  0  0  0  0  0  0  0
    7.6333   -5.5865   27.4399 H   0  0  0  0  0  0  0  0  0  0  0  0
    9.3155   -5.3621   27.9118 H   0  0  0  0  0  0  0  0  0  0  0  0
   10.0348   -5.2969   25.5700 H   0  0  0  0  0  0  0  0  0  0  0  0
    9.0833   -6.7494   25.8483 H   0  0  0  0  0  0  0  0  0  0  0  0
    7.9941   -3.2486   28.0659 H   0  0  0  0  0  0  0  0  0  0  0  0
    9.3529   -3.1048   26.9589 H   0  0  0  0  0  0  0  0  0  0  0  0
    8.4554   -5.6275   23.7193 H   0  0  0  0  0  0  0  0  0  0  0  0
    7.1074   -5.7648   24.8412 H   0  0  0  0  0  0  0  0  0  0  0  0
    6.4177   -3.5469   26.2458 H   0  0  0  0  0  0  0  0  0  0  0  0
    7.3538   -2.0846   25.9634 H   0  0  0  0  0  0  0  0  0  0  0  0
    5.7396   -3.6173   24.0844 H   0  0  0  0  0  0  0  0  0  0  0  0
    6.7964   -4.1308   22.7552 H   0  0  0  0  0  0  0  0  0  0  0  0
    6.9820   -2.9249   21.2394 H   0  0  0  0  0  0  0  0  0  0  0  0
  1  2  3  0  0  0  0
  1 11  1  0  0  0  0
  2 19  1  0  0  0  0
  3  5  2  0  0  0  0
  3  7  1  0  0  0  0
  4  6  2  0  0  0  0
  4  8  1  0  0  0  0
  5 11  1  0  0  0  0
  6 12  1  0  0  0  0
  7 21  2  0  0  0  0
  8 22  2  0  0  0  0
  9 11  2  0  0  0  0
  9 21  1  0  0  0  0
 10 12  2  0  0  0  0
 10 22  1  0  0  0  0
 12 23  1  0  0  0  0
 13 20  1  0  0  0  0
 13 23  1  0  0  0  0
 13 24  2  0  0  0  0
 14 15  1  0  0  0  0
 14 16  1  0  0  0  0
 15 17  1  0  0  0  0
 16 18  1  0  0  0  0
 17 19  1  0  0  0  0
 18 19  1  0  0  0  0
 19 20  1  0  0  0  0
  3 25  1  0  0  0  0
  4 26  1  0  0  0  0
  5 27  1  0  0  0  0
  6 28  1  0  0  0  0
  7 29  1  0  0  0  0
  8 30  1  0  0  0  0
  9 31  1  0  0  0  0
 10 32  1  0  0  0  0
 14 33  1  0  0  0  0
 14 34  1  0  0  0  0
 15 35  1  0  0  0  0
 15 36  1  0  0  0  0
 16 37  1  0  0  0  0
 16 38  1  0  0  0  0
 17 39  1  0  0  0  0
 17 40  1  0  0  0  0
 18 41  1  0  0  0  0
 18 42  1  0  0  0  0
 20 43  1  0  0  0  0
 20 44  1  0  0  0  0
 23 45  1  0  0  0  0
M  END
> <Chemgauss4 Score>
-4.90041875839233

> <Number of Confs>
75

$$$$
ANT-DIA-045-1
  -OEChem-03242005443D

 29 30  0     1  0  0  0  0  0999 V2000
   11.1618   -2.4403   23.3827 C   0  0  0  0  0  0  0  0  0  0  0  0
   11.6958   -1.5088   22.5197 C   0  0  0  0  0  0  0  0  0  0  0  0
   11.2279   -0.5525   24.7370 C   0  0  0  0  0  0  0  0  0  0  0  0
   10.8905   -1.8864   24.6671 C   0  0  0  0  0  0  0  0  0  0  0  0
    8.0820   -2.8566   24.6122 C   0  0  0  0  0  0  0  0  0  0  0  0
    9.6519   -4.6782   26.9667 C   0  0  0  0  0  0  0  0  0  0  0  0
   10.5958   -4.1766   25.8822 C   0  0  0  0  0  0  0  0  0  0  0  0
    8.4153   -3.7807   26.8918 C   0  0  0  0  0  0  0  0  0  0  0  0
   10.3020   -2.6729   25.8181 C   0  0  2  0  0  0  0  0  0  0  0  0
    8.7655   -2.6362   25.9335 C   0  0  1  0  0  0  0  0  0  0  0  0
    7.2173   -4.6218   23.0894 C   0  0  0  0  0  0  0  0  0  0  0  0
    7.8611   -4.1863   24.3079 N   0  0  0  0  0  0  0  0  0  0  0  0
    7.7767   -1.8915   23.9214 O   0  0  0  0  0  0  0  0  0  0  0  0
   11.8684    0.0265   23.2582 S   0  0  0  0  0  0  0  0  0  0  0  0
   10.9765   -3.4694   23.1018 H   0  0  0  0  0  0  0  0  0  0  0  0
   11.9935   -1.6565   21.4912 H   0  0  0  0  0  0  0  0  0  0  0  0
   11.1316    0.1129   25.5838 H   0  0  0  0  0  0  0  0  0  0  0  0
    9.4014   -5.7348   26.8308 H   0  0  0  0  0  0  0  0  0  0  0  0
   10.1233   -4.5747   27.9513 H   0  0  0  0  0  0  0  0  0  0  0  0
   11.6432   -4.3844   26.1249 H   0  0  0  0  0  0  0  0  0  0  0  0
   10.3748   -4.6691   24.9269 H   0  0  0  0  0  0  0  0  0  0  0  0
    7.5390   -4.3512   26.5637 H   0  0  0  0  0  0  0  0  0  0  0  0
    8.1894   -3.3879   27.8900 H   0  0  0  0  0  0  0  0  0  0  0  0
   10.7097   -2.2019   26.7573 H   0  0  0  0  0  0  0  0  0  0  0  0
    8.4192   -1.6722   26.3154 H   0  0  0  0  0  0  0  0  0  0  0  0
    6.1312   -4.6870   23.2510 H   0  0  0  0  0  0  0  0  0  0  0  0
    7.4256   -3.8994   22.2864 H   0  0  0  0  0  0  0  0  0  0  0  0
    7.6052   -5.6104   22.8029 H   0  0  0  0  0  0  0  0  0  0  0  0
    8.1658   -4.8914   24.9723 H   0  0  0  0  0  0  0  0  0  0  0  0
  1  2  2  0  0  0  0
  1  4  1  0  0  0  0
  2 14  1  0  0  0  0
  3  4  2  0  0  0  0
  3 14  1  0  0  0  0
  4  9  1  0  0  0  0
  5 10  1  0  0  0  0
  5 12  1  0  0  0  0
  5 13  2  0  0  0  0
  6  7  1  0  0  0  0
  6  8  1  0  0  0  0
  7  9  1  0  0  0  0
  8 10  1  0  0  0  0
  9 10  1  0  0  0  0
 11 12  1  0  0  0  0
  1 15  1  0  0  0  0
  2 16  1  0  0  0  0
  3 17  1  0  0  0  0
  6 18  1  0  0  0  0
  6 19  1  0  0  0  0
  7 20  1  0  0  0  0
  7 21  1  0  0  0  0
  8 22  1  0  0  0  0
  8 23  1  0  0  0  0
  9 24  1  6  0  0  0
 10 25  1  1  0  0  0
 11 26  1  0  0  0  0
 11 27  1  0  0  0  0
 11 28  1  0  0  0  0
 12 29  1  0  0  0  0
M  END
> <Chemgauss4 Score>
-4.89860916137695

> <Number of Confs>
18

$$$$
DAR-DIA-fc9-10
  -OEChem-03242005443D

 37 39  0     0  0  0  0  0  0999 V2000
   14.0420   -1.2463   22.7585 C   0  0  0  0  0  0  0  0  0  0  0  0
   13.8241   -1.7424   24.0438 C   0  0  0  0  0  0  0  0  0  0  0  0
   12.9664   -1.0657   21.8890 C   0  0  0  0  0  0  0  0  0  0  0  0
    8.2800   -6.1758   27.7483 C   0  0  0  0  0  0  0  0  0  0  0  0
   12.5306   -2.0580   24.4596 C   0  0  0  0  0  0  0  0  0  0  0  0
   11.6728   -1.3813   22.3047 C   0  0  0  0  0  0  0  0  0  0  0  0
    8.6326   -5.2711   26.7531 C   0  0  0  0  0  0  0  0  0  0  0  0
    7.9248   -5.6700   28.9884 C   0  0  0  0  0  0  0  0  0  0  0  0
    8.2487   -3.5032   28.2969 C   0  0  0  0  0  0  0  0  0  0  0  0
   11.4549   -1.8774   23.5900 C   0  0  0  0  0  0  0  0  0  0  0  0
    8.6193   -3.9075   27.0245 C   0  0  0  0  0  0  0  0  0  0  0  0
    9.9161   -3.2395   24.9752 C   0  0  0  0  0  0  0  0  0  0  0  0
    7.5727   -1.9871   23.7316 C   0  0  0  0  0  0  0  0  0  0  0  0
    7.2531   -1.4003   25.1003 C   0  0  0  0  0  0  0  0  0  0  0  0
    8.9804   -1.6402   23.2516 C   0  0  0  0  0  0  0  0  0  0  0  0
    8.3834   -1.5977   26.1008 C   0  0  0  0  0  0  0  0  0  0  0  0
    7.8999   -4.3523   29.2894 N   0  0  0  0  0  0  0  0  0  0  0  0
   10.1107   -2.2053   24.0224 N   0  0  0  0  0  0  0  0  0  0  0  0
    8.9815   -2.9407   26.0091 N   0  0  0  0  0  0  0  0  0  0  0  0
   10.5198   -4.3112   24.8626 O   0  0  0  0  0  0  0  0  0  0  0  0
   15.0490   -0.9997   22.4347 H   0  0  0  0  0  0  0  0  0  0  0  0
   14.6612   -1.8823   24.7213 H   0  0  0  0  0  0  0  0  0  0  0  0
   13.1363   -0.6784   20.8885 H   0  0  0  0  0  0  0  0  0  0  0  0
    8.2832   -7.2432   27.5592 H   0  0  0  0  0  0  0  0  0  0  0  0
   12.3729   -2.4438   25.4636 H   0  0  0  0  0  0  0  0  0  0  0  0
   10.8422   -1.2363   21.6184 H   0  0  0  0  0  0  0  0  0  0  0  0
    8.9158   -5.6392   25.7705 H   0  0  0  0  0  0  0  0  0  0  0  0
    7.6424   -6.3343   29.7985 H   0  0  0  0  0  0  0  0  0  0  0  0
    8.2188   -2.4523   28.5690 H   0  0  0  0  0  0  0  0  0  0  0  0
    7.4487   -3.0778   23.7508 H   0  0  0  0  0  0  0  0  0  0  0  0
    6.8435   -1.6055   23.0059 H   0  0  0  0  0  0  0  0  0  0  0  0
    7.0237   -0.3312   25.0068 H   0  0  0  0  0  0  0  0  0  0  0  0
    6.3447   -1.8802   25.4845 H   0  0  0  0  0  0  0  0  0  0  0  0
    9.0819   -1.9813   22.1959 H   0  0  0  0  0  0  0  0  0  0  0  0
    9.1051   -0.5332   23.2003 H   0  0  0  0  0  0  0  0  0  0  0  0
    9.1628   -0.8547   25.9007 H   0  0  0  0  0  0  0  0  0  0  0  0
    8.0294   -1.4274   27.1229 H   0  0  0  0  0  0  0  0  0  0  0  0
  1  2  1  0  0  0  0
  1  3  2  0  0  0  0
  2  5  2  0  0  0  0
  3  6  1  0  0  0  0
  4  7  2  0  0  0  0
  4  8  1  0  0  0  0
  5 10  1  0  0  0  0
  6 10  2  0  0  0  0
  7 11  1  0  0  0  0
  8 17  2  0  0  0  0
  9 11  2  0  0  0  0
  9 17  1  0  0  0  0
 10 18  1  0  0  0  0
 11 19  1  0  0  0  0
 12 18  1  0  0  0  0
 12 19  1  0  0  0  0
 12 20  2  0  0  0  0
 13 14  1  0  0  0  0
 13 15  1  0  0  0  0
 14 16  1  0  0  0  0
 15 18  1  0  0  0  0
 16 19  1  0  0  0  0
  1 21  1  0  0  0  0
  2 22  1  0  0  0  0
  3 23  1  0  0  0  0
  4 24  1  0  0  0  0
  5 25  1  0  0  0  0
  6 26  1  0  0  0  0
  7 27  1  0  0  0  0
  8 28  1  0  0  0  0
  9 29  1  0  0  0  0
 13 30  1  0  0  0  0
 13 31  1  0  0  0  0
 14 32  1  0  0  0  0
 14 33  1  0  0  0  0
 15 34  1  0  0  0  0
 15 35  1  0  0  0  0
 16 36  1  0  0  0  0
 16 37  1  0  0  0  0
M  END
> <Chemgauss4 Score>
-4.89683866500854

> <Number of Confs>
50

$$$$
AGN-NEW-891-2
  -OEChem-03242005443D

 27 28  0     0  0  0  0  0  0999 V2000
   12.9724   -0.6548   22.6244 C   0  0  0  0  0  0  0  0  0  0  0  0
   11.9758   -1.6226   22.5664 C   0  0  0  0  0  0  0  0  0  0  0  0
    8.6449   -4.7098   25.8195 C   0  0  0  0  0  0  0  0  0  0  0  0
    7.2520   -6.3877   26.8593 C   0  0  0  0  0  0  0  0  0  0  0  0
    6.5459   -5.3377   24.8012 C   0  0  0  0  0  0  0  0  0  0  0  0
   12.8214    0.3780   23.5357 C   0  0  0  0  0  0  0  0  0  0  0  0
   10.8171   -0.4576   24.2859 C   0  0  0  0  0  0  0  0  0  0  0  0
   10.8741   -1.5294   23.4096 C   0  0  0  0  0  0  0  0  0  0  0  0
    8.4159   -5.6190   26.8521 C   0  0  0  0  0  0  0  0  0  0  0  0
    7.7098   -4.5690   24.7940 C   0  0  0  0  0  0  0  0  0  0  0  0
    6.3169   -6.2470   25.8338 C   0  0  0  0  0  0  0  0  0  0  0  0
    8.6957   -2.5464   24.1394 C   0  0  0  0  0  0  0  0  0  0  0  0
   11.7656    0.5019   24.3709 N   0  0  0  0  0  0  0  0  0  0  0  0
    9.8451   -2.4976   23.3737 N   0  0  0  0  0  0  0  0  0  0  0  0
    8.3389   -1.7565   25.0060 O   0  0  0  0  0  0  0  0  0  0  0  0
    9.3287   -5.7565   27.8526 O   0  0  0  0  0  0  0  0  0  0  0  0
    7.9335   -3.6821   23.7860 O   0  0  0  0  0  0  0  0  0  0  0  0
    4.8818   -7.1967   25.8422 Cl  0  0  0  0  0  0  0  0  0  0  0  0
   13.8401   -0.7074   21.9766 H   0  0  0  0  0  0  0  0  0  0  0  0
   12.0675   -2.4444   21.8612 H   0  0  0  0  0  0  0  0  0  0  0  0
    9.5523   -4.1112   25.8140 H   0  0  0  0  0  0  0  0  0  0  0  0
    7.0808   -7.0945   27.6680 H   0  0  0  0  0  0  0  0  0  0  0  0
    5.8221   -5.2220   23.9977 H   0  0  0  0  0  0  0  0  0  0  0  0
   13.5706    1.1583   23.6192 H   0  0  0  0  0  0  0  0  0  0  0  0
    9.9824   -0.3307   24.9689 H   0  0  0  0  0  0  0  0  0  0  0  0
    9.9653   -3.2514   22.7013 H   0  0  0  0  0  0  0  0  0  0  0  0
    9.0293   -6.4226   28.4917 H   0  0  0  0  0  0  0  0  0  0  0  0
  1  2  2  0  0  0  0
  1  6  1  0  0  0  0
  2  8  1  0  0  0  0
  3  9  2  0  0  0  0
  3 10  1  0  0  0  0
  4  9  1  0  0  0  0
  4 11  2  0  0  0  0
  5 10  2  0  0  0  0
  5 11  1  0  0  0  0
  6 13  2  0  0  0  0
  7  8  2  0  0  0  0
  7 13  1  0  0  0  0
  8 14  1  0  0  0  0
  9 16  1  0  0  0  0
 10 17  1  0  0  0  0
 11 18  1  0  0  0  0
 12 14  1  0  0  0  0
 12 15  2  0  0  0  0
 12 17  1  0  0  0  0
  1 19  1  0  0  0  0
  2 20  1  0  0  0  0
  3 21  1  0  0  0  0
  4 22  1  0  0  0  0
  5 23  1  0  0  0  0
  6 24  1  0  0  0  0
  7 25  1  0  0  0  0
 14 26  1  0  0  0  0
 16 27  1  0  0  0  0
M  END
> <Chemgauss4 Score>
-4.89531993865967

> <Number of Confs>
56

$$$$
PAU-WEI-b9b-6
  -OEChem-03242005443D

 54 56  0     1  0  0  0  0  0999 V2000
   13.3874   -1.4035   21.1427 C   0  0  0  0  0  0  0  0  0  0  0  0
   12.4506   -0.1827   24.5321 C   0  0  0  0  0  0  0  0  0  0  0  0
   13.1859   -0.4142   23.3697 C   0  0  0  0  0  0  0  0  0  0  0  0
   11.1626   -0.7033   24.6580 C   0  0  0  0  0  0  0  0  0  0  0  0
    5.6568    2.1806   20.6999 C   0  0  0  0  0  0  0  0  0  0  0  0
    5.6738    0.0439   19.5724 C   0  0  0  0  0  0  0  0  0  0  0  0
    6.6482    1.7289   21.5709 C   0  0  0  0  0  0  0  0  0  0  0  0
    6.6653   -0.4078   20.4434 C   0  0  0  0  0  0  0  0  0  0  0  0
   11.3453   -1.6870   22.4589 C   0  0  0  0  0  0  0  0  0  0  0  0
   12.6332   -1.1663   22.3331 C   0  0  0  0  0  0  0  0  0  0  0  0
    5.1696    1.3381   19.7006 C   0  0  0  0  0  0  0  0  0  0  0  0
    7.1524    0.4347   21.4426 C   0  0  0  0  0  0  0  0  0  0  0  0
   10.6100   -1.4554   23.6214 C   0  0  0  0  0  0  0  0  0  0  0  0
    7.5994   -5.1944   27.3219 C   0  0  0  0  0  0  0  0  0  0  0  0
    9.3856   -3.8446   26.2779 C   0  0  0  0  0  0  0  0  0  0  0  0
    7.2013   -3.9712   25.1326 C   0  0  0  0  0  0  0  0  0  0  0  0
   10.0773   -3.9755   24.9202 C   0  0  0  0  0  0  0  0  0  0  0  0
    7.9420   -4.0947   23.7986 C   0  0  0  0  0  0  0  0  0  0  0  0
    4.1096    1.8202   18.7689 C   0  0  0  0  0  0  0  0  0  0  0  0
    8.2252   -0.0521   22.3834 C   0  0  0  0  0  0  0  0  0  0  0  0
    6.1183   -5.1768   27.6051 C   0  0  0  0  0  0  0  0  0  0  0  0
    8.2174   -1.5629   22.6697 C   0  0  0  0  0  0  0  0  0  0  0  0
    9.2123   -2.0201   23.7582 C   0  0  1  0  0  0  0  0  0  0  0  0
   13.9999   -1.5961   20.1760 N   0  0  0  0  0  0  0  0  0  0  0  0
    8.0395   -4.4163   26.2509 N   0  0  0  0  0  0  0  0  0  0  0  0
    9.2756   -3.4791   23.7940 N   0  0  0  0  0  0  0  0  0  0  0  0
    8.3409   -5.8817   28.0289 O   0  0  0  0  0  0  0  0  0  0  0  0
    5.9319   -5.4713   29.3303 Cl  0  0  0  0  0  0  0  0  0  0  0  0
   12.8801    0.4039   25.3390 H   0  0  0  0  0  0  0  0  0  0  0  0
   14.1888   -0.0022   23.2864 H   0  0  0  0  0  0  0  0  0  0  0  0
   10.5978   -0.5179   25.5678 H   0  0  0  0  0  0  0  0  0  0  0  0
    5.2693    3.1903   20.8075 H   0  0  0  0  0  0  0  0  0  0  0  0
    5.3007   -0.6188   18.7958 H   0  0  0  0  0  0  0  0  0  0  0  0
    7.0230    2.3927   22.3454 H   0  0  0  0  0  0  0  0  0  0  0  0
    7.0525   -1.4177   20.3366 H   0  0  0  0  0  0  0  0  0  0  0  0
   10.9084   -2.2735   21.6533 H   0  0  0  0  0  0  0  0  0  0  0  0
    9.9495   -4.3883   27.0486 H   0  0  0  0  0  0  0  0  0  0  0  0
    9.3745   -2.7917   26.5743 H   0  0  0  0  0  0  0  0  0  0  0  0
    6.8771   -2.9368   25.2810 H   0  0  0  0  0  0  0  0  0  0  0  0
    6.3028   -4.5996   25.1339 H   0  0  0  0  0  0  0  0  0  0  0  0
   11.0596   -3.4572   24.9594 H   0  0  0  0  0  0  0  0  0  0  0  0
   10.3129   -5.0473   24.7598 H   0  0  0  0  0  0  0  0  0  0  0  0
    8.0342   -5.1756   23.5605 H   0  0  0  0  0  0  0  0  0  0  0  0
    7.3096   -3.6676   22.9883 H   0  0  0  0  0  0  0  0  0  0  0  0
    4.5613    2.2893   17.8862 H   0  0  0  0  0  0  0  0  0  0  0  0
    3.4677    0.9950   18.4342 H   0  0  0  0  0  0  0  0  0  0  0  0
    3.4546    2.5544   19.2562 H   0  0  0  0  0  0  0  0  0  0  0  0
    8.0938    0.4845   23.3324 H   0  0  0  0  0  0  0  0  0  0  0  0
    9.2164    0.2402   22.0144 H   0  0  0  0  0  0  0  0  0  0  0  0
    5.6427   -5.9693   27.0387 H   0  0  0  0  0  0  0  0  0  0  0  0
    5.7233   -4.2004   27.3492 H   0  0  0  0  0  0  0  0  0  0  0  0
    8.3538   -2.1367   21.7453 H   0  0  0  0  0  0  0  0  0  0  0  0
    7.2048   -1.8102   23.0193 H   0  0  0  0  0  0  0  0  0  0  0  0
    8.7979   -1.7345   24.7332 H   0  0  0  0  0  0  0  0  0  0  0  0
  1 10  1  0  0  0  0
  1 24  3  0  0  0  0
  2  3  1  0  0  0  0
  2  4  2  0  0  0  0
  3 10  2  0  0  0  0
  4 13  1  0  0  0  0
  5  7  2  0  0  0  0
  5 11  1  0  0  0  0
  6  8  1  0  0  0  0
  6 11  2  0  0  0  0
  7 12  1  0  0  0  0
  8 12  2  0  0  0  0
  9 10  1  0  0  0  0
  9 13  2  0  0  0  0
 11 19  1  0  0  0  0
 12 20  1  0  0  0  0
 13 23  1  0  0  0  0
 14 21  1  0  0  0  0
 14 25  1  0  0  0  0
 14 27  2  0  0  0  0
 15 17  1  0  0  0  0
 15 25  1  0  0  0  0
 16 18  1  0  0  0  0
 16 25  1  0  0  0  0
 17 26  1  0  0  0  0
 18 26  1  0  0  0  0
 20 22  1  0  0  0  0
 21 28  1  0  0  0  0
 22 23  1  6  0  0  0
 23 26  1  0  0  0  0
  2 29  1  0  0  0  0
  3 30  1  0  0  0  0
  4 31  1  0  0  0  0
  5 32  1  0  0  0  0
  6 33  1  0  0  0  0
  7 34  1  0  0  0  0
  8 35  1  0  0  0  0
  9 36  1  0  0  0  0
 15 37  1  0  0  0  0
 15 38  1  0  0  0  0
 16 39  1  0  0  0  0
 16 40  1  0  0  0  0
 17 41  1  0  0  0  0
 17 42  1  0  0  0  0
 18 43  1  0  0  0  0
 18 44  1  0  0  0  0
 19 45  1  0  0  0  0
 19 46  1  0  0  0  0
 19 47  1  0  0  0  0
 20 48  1  0  0  0  0
 20 49  1  0  0  0  0
 21 50  1  0  0  0  0
 21 51  1  0  0  0  0
 22 52  1  0  0  0  0
 22 53  1  0  0  0  0
 23 54  1  0  0  0  0
M  END
> <Chemgauss4 Score>
-4.89285469055176

> <Number of Confs>
193

$$$$
DAV-AUT-7eb-2
  -OEChem-03242005443D

 37 39  0     1  0  0  0  0  0999 V2000
   10.2520   -3.3600   25.1010 C   0  0  0  0  0  0  0  0  0  0  0  0
   11.3336   -2.6904   24.5246 C   0  0  0  0  0  0  0  0  0  0  0  0
    8.6984   -2.3998   23.4734 C   0  0  0  0  0  0  0  0  0  0  0  0
    9.7763   -1.7444   22.9146 C   0  0  0  0  0  0  0  0  0  0  0  0
    8.9482   -3.2160   24.5818 C   0  0  0  0  0  0  0  0  0  0  0  0
   11.0582   -1.8896   23.4394 C   0  0  0  0  0  0  0  0  0  0  0  0
    9.8126   -0.8319   21.7517 C   0  0  0  0  0  0  0  0  0  0  0  0
    7.3745   -4.6557   28.2938 C   0  0  0  0  0  0  0  0  0  0  0  0
    6.5792   -5.6392   27.4533 C   0  0  0  0  0  0  0  0  0  0  0  0
    7.1434   -3.1089   26.3357 C   0  0  0  0  0  0  0  0  0  0  0  0
    7.3183   -6.1169   26.2080 C   0  0  0  0  0  0  0  0  0  0  0  0
    7.8002   -3.9612   25.2359 C   0  0  2  0  0  0  0  0  0  0  0  0
    8.3719   -2.3890   28.3833 C   0  0  0  0  0  0  0  0  0  0  0  0
   12.7016    0.3510   23.5911 C   0  0  0  0  0  0  0  0  0  0  0  0
   11.1421   -0.3729   21.4983 N   0  0  0  0  0  0  0  0  0  0  0  0
    7.6305   -3.4254   27.6808 N   0  0  0  0  0  0  0  0  0  0  0  0
    8.8026   -0.5449   21.1270 O   0  0  0  0  0  0  0  0  0  0  0  0
    7.7389   -4.9643   29.4292 O   0  0  0  0  0  0  0  0  0  0  0  0
   13.3288   -1.7978   22.2023 O   0  0  0  0  0  0  0  0  0  0  0  0
    8.2982   -5.2109   25.7180 O   0  0  0  0  0  0  0  0  0  0  0  0
   12.1950   -0.9473   22.4987 S   0  0  2  0  0  0  0  0  0  0  0  0
   10.4241   -4.0008   25.9628 H   0  0  0  0  0  0  0  0  0  0  0  0
   12.3358   -2.8010   24.9203 H   0  0  0  0  0  0  0  0  0  0  0  0
    7.6978   -2.2889   23.0703 H   0  0  0  0  0  0  0  0  0  0  0  0
    6.2539   -6.4822   28.0876 H   0  0  0  0  0  0  0  0  0  0  0  0
    5.6585   -5.1152   27.1391 H   0  0  0  0  0  0  0  0  0  0  0  0
    7.3268   -2.0374   26.1548 H   0  0  0  0  0  0  0  0  0  0  0  0
    6.0495   -3.2465   26.3305 H   0  0  0  0  0  0  0  0  0  0  0  0
    7.8638   -7.0454   26.4618 H   0  0  0  0  0  0  0  0  0  0  0  0
    6.6208   -6.3940   25.3901 H   0  0  0  0  0  0  0  0  0  0  0  0
    7.0588   -4.1612   24.4065 H   0  0  0  0  0  0  0  0  0  0  0  0
    9.4465   -2.5029   28.1777 H   0  0  0  0  0  0  0  0  0  0  0  0
    8.0355   -1.4001   28.0385 H   0  0  0  0  0  0  0  0  0  0  0  0
    8.1940   -2.4803   29.4649 H   0  0  0  0  0  0  0  0  0  0  0  0
   13.4182    0.9838   23.0649 H   0  0  0  0  0  0  0  0  0  0  0  0
   11.8192    0.9266   23.8745 H   0  0  0  0  0  0  0  0  0  0  0  0
   13.1633   -0.0998   24.4708 H   0  0  0  0  0  0  0  0  0  0  0  0
  1  2  2  0  0  0  0
  1  5  1  0  0  0  0
  2  6  1  0  0  0  0
  3  4  1  0  0  0  0
  3  5  2  0  0  0  0
  4  6  2  0  0  0  0
  4  7  1  0  0  0  0
  5 12  1  0  0  0  0
  6 21  1  0  0  0  0
  7 15  1  0  0  0  0
  7 17  2  0  0  0  0
  8  9  1  0  0  0  0
  8 16  1  0  0  0  0
  8 18  2  0  0  0  0
  9 11  1  0  0  0  0
 10 12  1  0  0  0  0
 10 16  1  0  0  0  0
 11 20  1  0  0  0  0
 12 20  1  0  0  0  0
 13 16  1  0  0  0  0
 14 21  1  1  0  0  0
 15 21  2  0  0  0  0
 19 21  2  0  0  0  0
  1 22  1  0  0  0  0
  2 23  1  0  0  0  0
  3 24  1  0  0  0  0
  9 25  1  0  0  0  0
  9 26  1  0  0  0  0
 10 27  1  0  0  0  0
 10 28  1  0  0  0  0
 11 29  1  0  0  0  0
 11 30  1  0  0  0  0
 12 31  1  6  0  0  0
 13 32  1  0  0  0  0
 13 33  1  0  0  0  0
 13 34  1  0  0  0  0
 14 35  1  0  0  0  0
 14 36  1  0  0  0  0
 14 37  1  0  0  0  0
M  END
> <Chemgauss4 Score>
-4.88886165618896

> <Number of Confs>
8

$$$$
ANN-UNI-263-5
  -OEChem-03242005443D

 29 30  0     0  0  0  0  0  0999 V2000
   12.5118   -0.9374   22.8236 C   0  0  0  0  0  0  0  0  0  0  0  0
    8.9210   -0.4788   23.6906 C   0  0  0  0  0  0  0  0  0  0  0  0
    5.2860   -4.8068   28.0710 C   0  0  0  0  0  0  0  0  0  0  0  0
   10.2531   -0.1930   23.3916 C   0  0  0  0  0  0  0  0  0  0  0  0
    8.4830   -1.8026   23.7276 C   0  0  0  0  0  0  0  0  0  0  0  0
    6.0350   -4.7265   26.9023 C   0  0  0  0  0  0  0  0  0  0  0  0
   10.7092   -2.5549   23.1662 C   0  0  0  0  0  0  0  0  0  0  0  0
    5.8909   -4.4219   29.2567 C   0  0  0  0  0  0  0  0  0  0  0  0
    7.8599   -3.9091   28.1898 C   0  0  0  0  0  0  0  0  0  0  0  0
   11.1472   -1.2310   23.1293 C   0  0  0  0  0  0  0  0  0  0  0  0
    9.3771   -2.8406   23.4653 C   0  0  0  0  0  0  0  0  0  0  0  0
    7.3474   -4.2702   26.9542 C   0  0  0  0  0  0  0  0  0  0  0  0
    7.7601   -4.5016   24.4801 C   0  0  0  0  0  0  0  0  0  0  0  0
    8.9085   -4.2560   23.5047 C   0  0  0  0  0  0  0  0  0  0  0  0
   13.6201   -0.6989   22.5753 N   0  0  0  0  0  0  0  0  0  0  0  0
    7.1631   -3.9735   29.3465 N   0  0  0  0  0  0  0  0  0  0  0  0
    8.1346   -4.1777   25.7817 N   0  0  0  0  0  0  0  0  0  0  0  0
    6.6739   -4.9310   24.1046 O   0  0  0  0  0  0  0  0  0  0  0  0
    8.2243    0.3292   23.8938 H   0  0  0  0  0  0  0  0  0  0  0  0
    4.2612   -5.1596   28.0542 H   0  0  0  0  0  0  0  0  0  0  0  0
   10.5798    0.8439   23.3670 H   0  0  0  0  0  0  0  0  0  0  0  0
    7.4433   -2.0152   23.9621 H   0  0  0  0  0  0  0  0  0  0  0  0
    5.5866   -5.0218   25.9574 H   0  0  0  0  0  0  0  0  0  0  0  0
   11.4017   -3.3688   22.9615 H   0  0  0  0  0  0  0  0  0  0  0  0
    5.3495   -4.4667   30.1959 H   0  0  0  0  0  0  0  0  0  0  0  0
    8.8778   -3.5452   28.2943 H   0  0  0  0  0  0  0  0  0  0  0  0
    8.5795   -4.5786   22.5031 H   0  0  0  0  0  0  0  0  0  0  0  0
    9.7398   -4.9259   23.7796 H   0  0  0  0  0  0  0  0  0  0  0  0
    9.0850   -3.8344   25.9040 H   0  0  0  0  0  0  0  0  0  0  0  0
  1 10  1  0  0  0  0
  1 15  3  0  0  0  0
  2  4  2  0  0  0  0
  2  5  1  0  0  0  0
  3  6  2  0  0  0  0
  3  8  1  0  0  0  0
  4 10  1  0  0  0  0
  5 11  2  0  0  0  0
  6 12  1  0  0  0  0
  7 10  2  0  0  0  0
  7 11  1  0  0  0  0
  8 16  2  0  0  0  0
  9 12  2  0  0  0  0
  9 16  1  0  0  0  0
 11 14  1  0  0  0  0
 12 17  1  0  0  0  0
 13 14  1  0  0  0  0
 13 17  1  0  0  0  0
 13 18  2  0  0  0  0
  2 19  1  0  0  0  0
  3 20  1  0  0  0  0
  4 21  1  0  0  0  0
  5 22  1  0  0  0  0
  6 23  1  0  0  0  0
  7 24  1  0  0  0  0
  8 25  1  0  0  0  0
  9 26  1  0  0  0  0
 14 27  1  0  0  0  0
 14 28  1  0  0  0  0
 17 29  1  0  0  0  0
M  END
> <Chemgauss4 Score>
-4.88376092910767

> <Number of Confs>
40

$$$$
ADA-UNI-f8e-8
  -OEChem-03242005443D

 42 43  0     1  0  0  0  0  0999 V2000
   11.8972    0.4166   23.6993 C   0  0  0  0  0  0  0  0  0  0  0  0
    5.5387   -4.4130   21.1591 C   0  0  0  0  0  0  0  0  0  0  0  0
   11.0002   -0.4755   24.2868 C   0  0  0  0  0  0  0  0  0  0  0  0
    6.5463   -3.8944   21.9647 C   0  0  0  0  0  0  0  0  0  0  0  0
   12.8074   -0.0369   22.7445 C   0  0  0  0  0  0  0  0  0  0  0  0
   11.9238   -2.2746   22.9649 C   0  0  0  0  0  0  0  0  0  0  0  0
    5.6014   -5.7566   20.8263 C   0  0  0  0  0  0  0  0  0  0  0  0
    7.5430   -6.0531   22.0182 C   0  0  0  0  0  0  0  0  0  0  0  0
   11.0135   -1.8211   23.9196 C   0  0  0  0  0  0  0  0  0  0  0  0
    7.5714   -4.7234   22.4067 C   0  0  0  0  0  0  0  0  0  0  0  0
   12.8207   -1.3825   22.3774 C   0  0  0  0  0  0  0  0  0  0  0  0
    8.7729   -2.9228   23.6957 C   0  0  0  0  0  0  0  0  0  0  0  0
    7.6571   -5.8700   28.2823 C   0  0  0  0  0  0  0  0  0  0  0  0
    9.6681   -2.3977   26.0099 C   0  0  0  0  0  0  0  0  0  0  0  0
    9.1422   -3.5503   26.8650 C   0  0  0  0  0  0  0  0  0  0  0  0
   10.0368   -2.7927   24.5610 C   0  0  2  0  0  0  0  0  0  0  0  0
    6.5811   -6.5929   21.2365 N   0  0  0  0  0  0  0  0  0  0  0  0
    8.6106   -4.2244   23.2272 N   0  0  0  0  0  0  0  0  0  0  0  0
    7.9054   -4.1080   26.2774 N   0  0  0  0  0  0  0  0  0  0  0  0
    8.0454   -1.9596   23.4706 O   0  0  0  0  0  0  0  0  0  0  0  0
    8.6051   -6.5765   25.9472 O   0  0  0  0  0  0  0  0  0  0  0  0
    6.1629   -5.9828   26.1469 O   0  0  0  0  0  0  0  0  0  0  0  0
    7.5488   -5.7589   26.5109 S   0  0  0  0  0  0  0  0  0  0  0  0
   13.9448   -1.9416   21.2003 Cl  0  0  0  0  0  0  0  0  0  0  0  0
   11.8866    1.4643   23.9856 H   0  0  0  0  0  0  0  0  0  0  0  0
    4.7298   -3.7853   20.8030 H   0  0  0  0  0  0  0  0  0  0  0  0
   10.2945   -0.1134   25.0299 H   0  0  0  0  0  0  0  0  0  0  0  0
    6.5230   -2.8438   22.2419 H   0  0  0  0  0  0  0  0  0  0  0  0
   13.5009    0.6697   22.2952 H   0  0  0  0  0  0  0  0  0  0  0  0
   11.9298   -3.3246   22.6817 H   0  0  0  0  0  0  0  0  0  0  0  0
    4.8400   -6.2091   20.1996 H   0  0  0  0  0  0  0  0  0  0  0  0
    8.3153   -6.7493   22.3314 H   0  0  0  0  0  0  0  0  0  0  0  0
    7.4459   -6.8994   28.5763 H   0  0  0  0  0  0  0  0  0  0  0  0
    8.6662   -5.5855   28.5841 H   0  0  0  0  0  0  0  0  0  0  0  0
    6.9220   -5.1901   28.7155 H   0  0  0  0  0  0  0  0  0  0  0  0
    8.9070   -1.6062   25.9772 H   0  0  0  0  0  0  0  0  0  0  0  0
   10.5368   -1.9600   26.5179 H   0  0  0  0  0  0  0  0  0  0  0  0
    8.9062   -3.1867   27.8708 H   0  0  0  0  0  0  0  0  0  0  0  0
    9.8819   -4.3498   26.9659 H   0  0  0  0  0  0  0  0  0  0  0  0
   10.4915   -3.7924   24.5972 H   0  0  0  0  0  0  0  0  0  0  0  0
    9.3228   -4.8951   23.5079 H   0  0  0  0  0  0  0  0  0  0  0  0
    7.1153   -3.4528   26.2801 H   0  0  0  0  0  0  0  0  0  0  0  0
  1  3  2  0  0  0  0
  1  5  1  0  0  0  0
  2  4  2  0  0  0  0
  2  7  1  0  0  0  0
  3  9  1  0  0  0  0
  4 10  1  0  0  0  0
  5 11  2  0  0  0  0
  6  9  2  0  0  0  0
  6 11  1  0  0  0  0
  7 17  2  0  0  0  0
  8 10  2  0  0  0  0
  8 17  1  0  0  0  0
  9 16  1  0  0  0  0
 10 18  1  0  0  0  0
 11 24  1  0  0  0  0
 12 16  1  0  0  0  0
 12 18  1  0  0  0  0
 12 20  2  0  0  0  0
 13 23  1  0  0  0  0
 14 15  1  0  0  0  0
 14 16  1  1  0  0  0
 15 19  1  0  0  0  0
 19 23  1  0  0  0  0
 21 23  2  0  0  0  0
 22 23  2  0  0  0  0
  1 25  1  0  0  0  0
  2 26  1  0  0  0  0
  3 27  1  0  0  0  0
  4 28  1  0  0  0  0
  5 29  1  0  0  0  0
  6 30  1  0  0  0  0
  7 31  1  0  0  0  0
  8 32  1  0  0  0  0
 13 33  1  0  0  0  0
 13 34  1  0  0  0  0
 13 35  1  0  0  0  0
 14 36  1  0  0  0  0
 14 37  1  0  0  0  0
 15 38  1  0  0  0  0
 15 39  1  0  0  0  0
 16 40  1  0  0  0  0
 18 41  1  0  0  0  0
 19 42  1  0  0  0  0
M  END
> <Chemgauss4 Score>
-4.88243961334229

> <Number of Confs>
200

$$$$
CHR-SOS-363-8
  -OEChem-03242005443D

 46 48  0     0  0  0  0  0  0999 V2000
    7.5119   -4.8245   27.7527 C   0  0  0  0  0  0  0  0  0  0  0  0
    9.8393   -3.2312   24.8819 C   0  0  0  0  0  0  0  0  0  0  0  0
    9.1424   -0.9186   24.9370 C   0  0  0  0  0  0  0  0  0  0  0  0
   10.9665   -2.8739   24.1421 C   0  0  0  0  0  0  0  0  0  0  0  0
   10.2697   -0.5612   24.1972 C   0  0  0  0  0  0  0  0  0  0  0  0
    6.3436    0.9385   18.6221 C   0  0  0  0  0  0  0  0  0  0  0  0
    5.5898    0.1143   17.8022 C   0  0  0  0  0  0  0  0  0  0  0  0
    6.2275   -5.8877   25.9726 C   0  0  0  0  0  0  0  0  0  0  0  0
    5.4868   -1.5321   19.4012 C   0  0  0  0  0  0  0  0  0  0  0  0
    5.8410   -4.8738   23.9476 C   0  0  0  0  0  0  0  0  0  0  0  0
    6.9532   -4.8031   26.4382 C   0  0  0  0  0  0  0  0  0  0  0  0
    6.6686    0.4728   19.8913 C   0  0  0  0  0  0  0  0  0  0  0  0
    6.2360   -0.7851   20.2960 C   0  0  0  0  0  0  0  0  0  0  0  0
    6.5484   -3.7416   24.3183 C   0  0  0  0  0  0  0  0  0  0  0  0
    8.9272   -2.2535   25.2793 C   0  0  0  0  0  0  0  0  0  0  0  0
    7.1121   -3.7136   25.5891 C   0  0  0  0  0  0  0  0  0  0  0  0
   11.1817   -1.5390   23.7998 C   0  0  0  0  0  0  0  0  0  0  0  0
    6.1726   -2.5463   22.1163 C   0  0  0  0  0  0  0  0  0  0  0  0
    7.4808    1.3404   20.7959 C   0  0  0  0  0  0  0  0  0  0  0  0
    7.9658   -4.8418   28.8207 N   0  0  0  0  0  0  0  0  0  0  0  0
    5.1515   -1.1134   18.1603 N   0  0  0  0  0  0  0  0  0  0  0  0
    5.6653   -5.9514   24.7449 N   0  0  0  0  0  0  0  0  0  0  0  0
   11.9929   -1.2337   21.2791 N   0  0  0  0  0  0  0  0  0  0  0  0
    6.5404   -1.3032   21.5770 N   0  0  0  0  0  0  0  0  0  0  0  0
    6.6816   -2.6729   23.4323 N   0  0  0  0  0  0  0  0  0  0  0  0
    5.5087   -3.4015   21.5392 O   0  0  0  0  0  0  0  0  0  0  0  0
   12.8920    0.3082   23.1392 O   0  0  0  0  0  0  0  0  0  0  0  0
   13.6198   -2.1031   23.0775 O   0  0  0  0  0  0  0  0  0  0  0  0
    7.8274   -2.6020   26.0017 O   0  0  0  0  0  0  0  0  0  0  0  0
   12.5924   -1.0917   22.8728 S   0  0  0  0  0  0  0  0  0  0  0  0
    9.6773   -4.2727   25.1462 H   0  0  0  0  0  0  0  0  0  0  0  0
    8.4355   -0.1525   25.2437 H   0  0  0  0  0  0  0  0  0  0  0  0
   11.6704   -3.6437   23.8376 H   0  0  0  0  0  0  0  0  0  0  0  0
   10.4276    0.4816   23.9356 H   0  0  0  0  0  0  0  0  0  0  0  0
    6.6657    1.9147   18.2759 H   0  0  0  0  0  0  0  0  0  0  0  0
    5.3098    0.4310   16.8029 H   0  0  0  0  0  0  0  0  0  0  0  0
    6.0667   -6.7699   26.5859 H   0  0  0  0  0  0  0  0  0  0  0  0
    5.1199   -2.5212   19.6591 H   0  0  0  0  0  0  0  0  0  0  0  0
    5.3782   -4.9555   22.9686 H   0  0  0  0  0  0  0  0  0  0  0  0
    6.8252    1.9782   21.3998 H   0  0  0  0  0  0  0  0  0  0  0  0
    8.1012    0.7380   21.4709 H   0  0  0  0  0  0  0  0  0  0  0  0
    8.1621    1.9818   20.2232 H   0  0  0  0  0  0  0  0  0  0  0  0
   11.8310   -0.3703   20.7465 H   0  0  0  0  0  0  0  0  0  0  0  0
   12.3273   -2.0182   20.7065 H   0  0  0  0  0  0  0  0  0  0  0  0
    7.0937   -0.7011   22.1815 H   0  0  0  0  0  0  0  0  0  0  0  0
    7.2168   -1.8640   23.7661 H   0  0  0  0  0  0  0  0  0  0  0  0
  1 11  1  0  0  0  0
  1 20  3  0  0  0  0
  2  4  2  0  0  0  0
  2 15  1  0  0  0  0
  3  5  1  0  0  0  0
  3 15  2  0  0  0  0
  4 17  1  0  0  0  0
  5 17  2  0  0  0  0
  6  7  2  0  0  0  0
  6 12  1  0  0  0  0
  7 21  1  0  0  0  0
  8 11  2  0  0  0  0
  8 22  1  0  0  0  0
  9 13  1  0  0  0  0
  9 21  2  0  0  0  0
 10 14  1  0  0  0  0
 10 22  2  0  0  0  0
 11 16  1  0  0  0  0
 12 13  2  0  0  0  0
 12 19  1  0  0  0  0
 13 24  1  0  0  0  0
 14 16  2  0  0  0  0
 14 25  1  0  0  0  0
 15 29  1  0  0  0  0
 16 29  1  0  0  0  0
 17 30  1  0  0  0  0
 18 24  1  0  0  0  0
 18 25  1  0  0  0  0
 18 26  2  0  0  0  0
 23 30  1  0  0  0  0
 27 30  2  0  0  0  0
 28 30  2  0  0  0  0
  2 31  1  0  0  0  0
  3 32  1  0  0  0  0
  4 33  1  0  0  0  0
  5 34  1  0  0  0  0
  6 35  1  0  0  0  0
  7 36  1  0  0  0  0
  8 37  1  0  0  0  0
  9 38  1  0  0  0  0
 10 39  1  0  0  0  0
 19 40  1  0  0  0  0
 19 41  1  0  0  0  0
 19 42  1  0  0  0  0
 23 43  1  0  0  0  0
 23 44  1  0  0  0  0
 24 45  1  0  0  0  0
 25 46  1  0  0  0  0
M  END
> <Chemgauss4 Score>
-4.88131523132324

> <Number of Confs>
124

$$$$
SAM-UNK-83e-1
  -OEChem-03242005443D

 46 48  0     0  0  0  0  0  0999 V2000
   10.9177   -0.5652   22.1364 C   0  0  0  0  0  0  0  0  0  0  0  0
   11.8156   -2.4224   23.4177 C   0  0  0  0  0  0  0  0  0  0  0  0
    7.7587   -0.3292   23.9599 C   0  0  0  0  0  0  0  0  0  0  0  0
    9.7517   -0.5946   22.9269 C   0  0  0  0  0  0  0  0  0  0  0  0
    8.5487    0.1652   22.9478 C   0  0  0  0  0  0  0  0  0  0  0  0
   10.6684   -2.4705   24.2148 C   0  0  0  0  0  0  0  0  0  0  0  0
    9.6541   -1.5447   23.9458 C   0  0  0  0  0  0  0  0  0  0  0  0
   11.9405   -1.4852   22.3940 C   0  0  0  0  0  0  0  0  0  0  0  0
    8.1855    1.2388   22.1052 C   0  0  0  0  0  0  0  0  0  0  0  0
    7.4903    1.1169   20.9522 C   0  0  0  0  0  0  0  0  0  0  0  0
    6.3066   -0.0580   19.1931 C   0  0  0  0  0  0  0  0  0  0  0  0
    6.9518   -4.5748   25.3774 C   0  0  0  0  0  0  0  0  0  0  0  0
    7.7783   -4.2571   27.7354 C   0  0  0  0  0  0  0  0  0  0  0  0
    8.4056   -4.4742   24.9047 C   0  0  0  0  0  0  0  0  0  0  0  0
    9.2010   -4.1681   27.1741 C   0  0  0  0  0  0  0  0  0  0  0  0
    6.8437   -5.0517   26.8247 C   0  0  0  0  0  0  0  0  0  0  0  0
    5.8714   -1.4509   18.8194 C   0  0  0  0  0  0  0  0  0  0  0  0
   10.5678   -3.4934   25.3092 C   0  0  0  0  0  0  0  0  0  0  0  0
    8.4340   -1.3601   24.5562 N   0  0  0  0  0  0  0  0  0  0  0  0
    9.1991   -3.6295   25.8072 N   0  0  0  0  0  0  0  0  0  0  0  0
    7.0147   -0.0248   20.3868 N   0  0  0  0  0  0  0  0  0  0  0  0
    6.0175    0.9133   18.4978 O   0  0  0  0  0  0  0  0  0  0  0  0
    7.1431   -6.4431   26.9071 O   0  0  0  0  0  0  0  0  0  0  0  0
   13.0526   -1.4636   21.6465 F   0  0  0  0  0  0  0  0  0  0  0  0
   11.0318    0.1580   21.3340 H   0  0  0  0  0  0  0  0  0  0  0  0
   12.6282   -3.1240   23.5923 H   0  0  0  0  0  0  0  0  0  0  0  0
    6.7770   -0.0441   24.3137 H   0  0  0  0  0  0  0  0  0  0  0  0
    8.4531    2.2596   22.4093 H   0  0  0  0  0  0  0  0  0  0  0  0
    7.2489    1.9746   20.3352 H   0  0  0  0  0  0  0  0  0  0  0  0
    6.4542   -3.5989   25.2716 H   0  0  0  0  0  0  0  0  0  0  0  0
    6.3902   -5.2572   24.7189 H   0  0  0  0  0  0  0  0  0  0  0  0
    7.7985   -4.7158   28.7375 H   0  0  0  0  0  0  0  0  0  0  0  0
    7.3733   -3.2455   27.8901 H   0  0  0  0  0  0  0  0  0  0  0  0
    8.8247   -5.4874   24.8773 H   0  0  0  0  0  0  0  0  0  0  0  0
    8.4311   -4.0836   23.8788 H   0  0  0  0  0  0  0  0  0  0  0  0
    9.8189   -3.5493   27.8383 H   0  0  0  0  0  0  0  0  0  0  0  0
    9.6303   -5.1775   27.1759 H   0  0  0  0  0  0  0  0  0  0  0  0
    5.7982   -4.9214   27.1712 H   0  0  0  0  0  0  0  0  0  0  0  0
    4.8854   -1.6519   19.2476 H   0  0  0  0  0  0  0  0  0  0  0  0
    6.5929   -2.1712   19.2142 H   0  0  0  0  0  0  0  0  0  0  0  0
    5.8048   -1.5637   17.7334 H   0  0  0  0  0  0  0  0  0  0  0  0
   10.8957   -4.4754   24.9512 H   0  0  0  0  0  0  0  0  0  0  0  0
   11.2075   -3.2261   26.1569 H   0  0  0  0  0  0  0  0  0  0  0  0
    8.0866   -1.9065   25.3322 H   0  0  0  0  0  0  0  0  0  0  0  0
    7.1878   -0.9060   20.8666 H   0  0  0  0  0  0  0  0  0  0  0  0
    6.4952   -6.9020   26.3486 H   0  0  0  0  0  0  0  0  0  0  0  0
  1  4  1  0  0  0  0
  1  8  2  0  0  0  0
  2  6  2  0  0  0  0
  2  8  1  0  0  0  0
  3  5  2  0  0  0  0
  3 19  1  0  0  0  0
  4  5  1  0  0  0  0
  4  7  2  0  0  0  0
  5  9  1  0  0  0  0
  6  7  1  0  0  0  0
  6 18  1  0  0  0  0
  7 19  1  0  0  0  0
  8 24  1  0  0  0  0
  9 10  2  3  0  0  0
 10 21  1  0  0  0  0
 11 17  1  0  0  0  0
 11 21  1  0  0  0  0
 11 22  2  0  0  0  0
 12 14  1  0  0  0  0
 12 16  1  0  0  0  0
 13 15  1  0  0  0  0
 13 16  1  0  0  0  0
 14 20  1  0  0  0  0
 15 20  1  0  0  0  0
 16 23  1  0  0  0  0
 18 20  1  0  0  0  0
  1 25  1  0  0  0  0
  2 26  1  0  0  0  0
  3 27  1  0  0  0  0
  9 28  1  0  0  0  0
 10 29  1  0  0  0  0
 12 30  1  0  0  0  0
 12 31  1  0  0  0  0
 13 32  1  0  0  0  0
 13 33  1  0  0  0  0
 14 34  1  0  0  0  0
 14 35  1  0  0  0  0
 15 36  1  0  0  0  0
 15 37  1  0  0  0  0
 16 38  1  0  0  0  0
 17 39  1  0  0  0  0
 17 40  1  0  0  0  0
 17 41  1  0  0  0  0
 18 42  1  0  0  0  0
 18 43  1  0  0  0  0
 19 44  1  0  0  0  0
 21 45  1  0  0  0  0
 23 46  1  0  0  0  0
M  END
> <Chemgauss4 Score>
-4.87815237045288

> <Number of Confs>
157

$$$$
HEI-REL-0c9-6
  -OEChem-03242005443D

 53 56  0     1  0  0  0  0  0999 V2000
   12.1804   -1.7030   23.3252 C   0  0  0  0  0  0  0  0  0  0  0  0
   11.2499   -1.7872   22.2935 C   0  0  0  0  0  0  0  0  0  0  0  0
   11.9802   -2.4199   24.5043 C   0  0  0  0  0  0  0  0  0  0  0  0
   10.1193   -2.5900   22.4392 C   0  0  0  0  0  0  0  0  0  0  0  0
    5.4847   -2.7998   20.4001 C   0  0  0  0  0  0  0  0  0  0  0  0
    5.6645   -1.6435   19.6502 C   0  0  0  0  0  0  0  0  0  0  0  0
    7.0496   -0.7456   21.4123 C   0  0  0  0  0  0  0  0  0  0  0  0
   10.8456   -3.2295   24.6650 C   0  0  0  0  0  0  0  0  0  0  0  0
    9.9091   -3.3191   23.6197 C   0  0  0  0  0  0  0  0  0  0  0  0
    6.0794   -2.9326   21.6678 C   0  0  0  0  0  0  0  0  0  0  0  0
    6.8955   -1.9055   22.1985 C   0  0  0  0  0  0  0  0  0  0  0  0
    6.4446   -0.6147   20.1582 C   0  0  0  0  0  0  0  0  0  0  0  0
    8.8368   -5.1649   27.2439 C   0  0  0  0  0  0  0  0  0  0  0  0
    5.8557   -4.2178   22.4241 C   0  0  0  0  0  0  0  0  0  0  0  0
   10.6702   -3.9887   25.9573 C   0  0  0  0  0  0  0  0  0  0  0  0
    6.1328   -4.0401   23.9095 C   0  0  0  0  0  0  0  0  0  0  0  0
    8.9183   -5.3040   24.7784 C   0  0  0  0  0  0  0  0  0  0  0  0
    8.6734   -4.1801   23.7653 C   0  0  1  0  0  0  0  0  0  0  0  0
    7.4633   -3.3277   24.1575 C   0  0  1  0  0  0  0  0  0  0  0  0
    9.0275   -4.2333   28.4156 C   0  0  0  0  0  0  0  0  0  0  0  0
    8.0217   -0.8835   24.1630 C   0  0  0  0  0  0  0  0  0  0  0  0
    7.5014   -2.0422   23.4476 N   0  0  3  0  0  0  0  0  0  0  0  0
    9.4353   -4.7791   26.0419 N   0  0  0  0  0  0  0  0  0  0  0  0
    8.0773    0.4409   18.3348 N   0  0  0  0  0  0  0  0  0  0  0  0
    8.1739   -6.1945   27.3908 O   0  0  0  0  0  0  0  0  0  0  0  0
    5.5573    0.9834   18.3056 O   0  0  0  0  0  0  0  0  0  0  0  0
    7.0010    1.9298   20.1408 O   0  0  0  0  0  0  0  0  0  0  0  0
    6.6767    0.8442   19.2262 S   0  0  0  0  0  0  0  0  0  0  0  0
   13.0619   -1.0785   23.2133 H   0  0  0  0  0  0  0  0  0  0  0  0
   11.4040   -1.2283   21.3752 H   0  0  0  0  0  0  0  0  0  0  0  0
   12.7151   -2.3439   25.3022 H   0  0  0  0  0  0  0  0  0  0  0  0
    9.4005   -2.6456   21.6254 H   0  0  0  0  0  0  0  0  0  0  0  0
    4.8738   -3.6035   19.9957 H   0  0  0  0  0  0  0  0  0  0  0  0
    5.1933   -1.5572   18.6753 H   0  0  0  0  0  0  0  0  0  0  0  0
    7.6579    0.0839   21.7671 H   0  0  0  0  0  0  0  0  0  0  0  0
    4.8196   -4.5541   22.2976 H   0  0  0  0  0  0  0  0  0  0  0  0
    6.5072   -4.9927   22.0034 H   0  0  0  0  0  0  0  0  0  0  0  0
   11.5001   -4.6958   26.0746 H   0  0  0  0  0  0  0  0  0  0  0  0
   10.7046   -3.2766   26.7872 H   0  0  0  0  0  0  0  0  0  0  0  0
    5.3253   -3.4493   24.3632 H   0  0  0  0  0  0  0  0  0  0  0  0
    6.1198   -5.0167   24.4077 H   0  0  0  0  0  0  0  0  0  0  0  0
    8.0008   -5.8805   24.9381 H   0  0  0  0  0  0  0  0  0  0  0  0
    9.6724   -6.0052   24.3974 H   0  0  0  0  0  0  0  0  0  0  0  0
    8.4626   -4.6551   22.7979 H   0  0  0  0  0  0  0  0  0  0  0  0
    7.5275   -3.1425   25.2378 H   0  0  0  0  0  0  0  0  0  0  0  0
    8.2193   -3.5100   28.4277 H   0  0  0  0  0  0  0  0  0  0  0  0
    9.9802   -3.7245   28.3124 H   0  0  0  0  0  0  0  0  0  0  0  0
    9.0219   -4.8125   29.3329 H   0  0  0  0  0  0  0  0  0  0  0  0
    8.4555   -1.2075   25.1206 H   0  0  0  0  0  0  0  0  0  0  0  0
    8.7982   -0.3958   23.5553 H   0  0  0  0  0  0  0  0  0  0  0  0
    7.2042   -0.1724   24.3529 H   0  0  0  0  0  0  0  0  0  0  0  0
    7.9730    0.2615   17.3287 H   0  0  0  0  0  0  0  0  0  0  0  0
    8.9581    0.9070   18.5843 H   0  0  0  0  0  0  0  0  0  0  0  0
  1  2  1  0  0  0  0
  1  3  2  0  0  0  0
  2  4  2  0  0  0  0
  3  8  1  0  0  0  0
  4  9  1  0  0  0  0
  5  6  2  0  0  0  0
  5 10  1  0  0  0  0
  6 12  1  0  0  0  0
  7 11  1  0  0  0  0
  7 12  2  0  0  0  0
  8  9  2  0  0  0  0
  8 15  1  0  0  0  0
  9 18  1  0  0  0  0
 10 11  2  0  0  0  0
 10 14  1  0  0  0  0
 11 22  1  0  0  0  0
 12 28  1  0  0  0  0
 13 20  1  0  0  0  0
 13 23  1  0  0  0  0
 13 25  2  0  0  0  0
 14 16  1  0  0  0  0
 15 23  1  0  0  0  0
 16 19  1  1  0  0  0
 17 18  1  6  0  0  0
 17 23  1  0  0  0  0
 18 19  1  0  0  0  0
 19 22  1  0  0  0  0
 21 22  1  6  0  0  0
 24 28  1  0  0  0  0
 26 28  2  0  0  0  0
 27 28  2  0  0  0  0
  1 29  1  0  0  0  0
  2 30  1  0  0  0  0
  3 31  1  0  0  0  0
  4 32  1  0  0  0  0
  5 33  1  0  0  0  0
  6 34  1  0  0  0  0
  7 35  1  0  0  0  0
 14 36  1  0  0  0  0
 14 37  1  0  0  0  0
 15 38  1  0  0  0  0
 15 39  1  0  0  0  0
 16 40  1  0  0  0  0
 16 41  1  0  0  0  0
 17 42  1  0  0  0  0
 17 43  1  0  0  0  0
 18 44  1  0  0  0  0
 19 45  1  0  0  0  0
 20 46  1  0  0  0  0
 20 47  1  0  0  0  0
 20 48  1  0  0  0  0
 21 49  1  0  0  0  0
 21 50  1  0  0  0  0
 21 51  1  0  0  0  0
 24 52  1  0  0  0  0
 24 53  1  0  0  0  0
M  END
> <Chemgauss4 Score>
-4.87787294387817

> <Number of Confs>
9

$$$$
NIM-UNI-36e-2
  -OEChem-03242005443D

 47 50  0     1  0  0  0  0  0999 V2000
   13.9193   -0.3745   21.9718 C   0  0  0  0  0  0  0  0  0  0  0  0
   13.5581   -1.4524   21.1637 C   0  0  0  0  0  0  0  0  0  0  0  0
   13.0921    0.0156   23.0251 C   0  0  0  0  0  0  0  0  0  0  0  0
    7.3718   -6.9633   28.8882 C   0  0  0  0  0  0  0  0  0  0  0  0
   12.3696   -2.1403   21.4087 C   0  0  0  0  0  0  0  0  0  0  0  0
   11.9037   -0.6723   23.2701 C   0  0  0  0  0  0  0  0  0  0  0  0
    7.6067   -6.4447   27.6196 C   0  0  0  0  0  0  0  0  0  0  0  0
    7.3679   -6.0831   29.9582 C   0  0  0  0  0  0  0  0  0  0  0  0
    7.8029   -4.2850   28.5960 C   0  0  0  0  0  0  0  0  0  0  0  0
   11.5424   -1.7503   22.4619 C   0  0  0  0  0  0  0  0  0  0  0  0
    7.8274   -5.0810   27.4621 C   0  0  0  0  0  0  0  0  0  0  0  0
    8.1168   -5.2467   24.9529 C   0  0  0  0  0  0  0  0  0  0  0  0
    9.1336   -1.1778   27.3568 C   0  0  0  0  0  0  0  0  0  0  0  0
   10.6194   -2.9429   26.4804 C   0  0  0  0  0  0  0  0  0  0  0  0
   10.9325   -3.0880   24.9818 C   0  0  0  0  0  0  0  0  0  0  0  0
    8.5462   -2.9776   24.4096 C   0  0  2  0  0  0  0  0  0  0  0  0
    8.2175   -3.0752   25.9209 C   0  0  1  0  0  0  0  0  0  0  0  0
   10.1602   -0.8590   28.4161 C   0  0  0  0  0  0  0  0  0  0  0  0
   10.2629   -2.4901   22.7261 C   0  0  0  0  0  0  0  0  0  0  0  0
    7.5782   -4.7525   29.8444 N   0  0  0  0  0  0  0  0  0  0  0  0
    8.3615   -4.3243   23.9275 N   0  0  0  0  0  0  0  0  0  0  0  0
    8.0716   -4.5187   26.1720 N   0  0  0  0  0  0  0  0  0  0  0  0
    9.2779   -2.3947   26.6851 N   0  0  0  0  0  0  0  0  0  0  0  0
    9.9014   -2.4680   24.1388 N   0  0  2  0  0  0  0  0  0  0  0  0
    7.9518   -6.4442   24.7577 O   0  0  0  0  0  0  0  0  0  0  0  0
    8.2175   -0.3780   27.1478 O   0  0  0  0  0  0  0  0  0  0  0  0
   14.8454    0.1602   21.7817 H   0  0  0  0  0  0  0  0  0  0  0  0
   14.2025   -1.7569   20.3442 H   0  0  0  0  0  0  0  0  0  0  0  0
   13.3736    0.8541   23.6552 H   0  0  0  0  0  0  0  0  0  0  0  0
    7.1973   -8.0232   29.0345 H   0  0  0  0  0  0  0  0  0  0  0  0
   12.0961   -2.9789   20.7737 H   0  0  0  0  0  0  0  0  0  0  0  0
   11.2653   -0.3613   24.0929 H   0  0  0  0  0  0  0  0  0  0  0  0
    7.6155   -7.1116   26.7615 H   0  0  0  0  0  0  0  0  0  0  0  0
    7.1904   -6.4380   30.9680 H   0  0  0  0  0  0  0  0  0  0  0  0
    7.9681   -3.2132   28.5369 H   0  0  0  0  0  0  0  0  0  0  0  0
   10.6533   -3.9241   26.9709 H   0  0  0  0  0  0  0  0  0  0  0  0
   11.3912   -2.3320   26.9562 H   0  0  0  0  0  0  0  0  0  0  0  0
   11.8874   -2.5967   24.7797 H   0  0  0  0  0  0  0  0  0  0  0  0
   11.0504   -4.1488   24.7475 H   0  0  0  0  0  0  0  0  0  0  0  0
    7.8039   -2.3491   23.9188 H   0  0  0  0  0  0  0  0  0  0  0  0
    7.2455   -2.6009   26.1173 H   0  0  0  0  0  0  0  0  0  0  0  0
   10.9874   -0.3250   27.9600 H   0  0  0  0  0  0  0  0  0  0  0  0
   10.5153   -1.7848   28.8577 H   0  0  0  0  0  0  0  0  0  0  0  0
    9.7002   -0.2443   29.1834 H   0  0  0  0  0  0  0  0  0  0  0  0
    9.4367   -2.0470   22.1595 H   0  0  0  0  0  0  0  0  0  0  0  0
   10.3438   -3.5377   22.4175 H   0  0  0  0  0  0  0  0  0  0  0  0
    8.4045   -4.5774   22.9444 H   0  0  0  0  0  0  0  0  0  0  0  0
  1  2  1  0  0  0  0
  1  3  2  0  0  0  0
  2  5  2  0  0  0  0
  3  6  1  0  0  0  0
  4  7  2  0  0  0  0
  4  8  1  0  0  0  0
  5 10  1  0  0  0  0
  6 10  2  0  0  0  0
  7 11  1  0  0  0  0
  8 20  2  0  0  0  0
  9 11  2  0  0  0  0
  9 20  1  0  0  0  0
 10 19  1  0  0  0  0
 11 22  1  0  0  0  0
 12 21  1  0  0  0  0
 12 22  1  0  0  0  0
 12 25  2  0  0  0  0
 13 18  1  0  0  0  0
 13 23  1  0  0  0  0
 13 26  2  0  0  0  0
 14 15  1  0  0  0  0
 14 23  1  0  0  0  0
 15 24  1  0  0  0  0
 16 17  1  0  0  0  0
 16 21  1  6  0  0  0
 16 24  1  0  0  0  0
 17 22  1  0  0  0  0
 17 23  1  1  0  0  0
 19 24  1  1  0  0  0
  1 27  1  0  0  0  0
  2 28  1  0  0  0  0
  3 29  1  0  0  0  0
  4 30  1  0  0  0  0
  5 31  1  0  0  0  0
  6 32  1  0  0  0  0
  7 33  1  0  0  0  0
  8 34  1  0  0  0  0
  9 35  1  0  0  0  0
 14 36  1  0  0  0  0
 14 37  1  0  0  0  0
 15 38  1  0  0  0  0
 15 39  1  0  0  0  0
 16 40  1  0  0  0  0
 17 41  1  0  0  0  0
 18 42  1  0  0  0  0
 18 43  1  0  0  0  0
 18 44  1  0  0  0  0
 19 45  1  0  0  0  0
 19 46  1  0  0  0  0
 21 47  1  0  0  0  0
M  END
> <Chemgauss4 Score>
-4.86946201324463

> <Number of Confs>
32

$$$$
DAR-DIA-fc9-2
  -OEChem-03242005443D

 34 36  0     1  0  0  0  0  0999 V2000
    6.9336   -5.1651   29.0473 C   0  0  0  0  0  0  0  0  0  0  0  0
    6.2943   -5.0927   27.8097 C   0  0  0  0  0  0  0  0  0  0  0  0
    8.2628   -4.7602   29.1705 C   0  0  0  0  0  0  0  0  0  0  0  0
   13.1432    0.0150   23.1626 C   0  0  0  0  0  0  0  0  0  0  0  0
   12.4812   -1.1845   22.9257 C   0  0  0  0  0  0  0  0  0  0  0  0
    6.9841   -4.6154   26.6953 C   0  0  0  0  0  0  0  0  0  0  0  0
    8.9526   -4.2830   28.0560 C   0  0  0  0  0  0  0  0  0  0  0  0
   12.6174    0.8679   24.1197 C   0  0  0  0  0  0  0  0  0  0  0  0
   10.8853   -0.5700   24.5786 C   0  0  0  0  0  0  0  0  0  0  0  0
   11.3298   -1.4902   23.6429 C   0  0  0  0  0  0  0  0  0  0  0  0
    8.3133   -4.2106   26.8184 C   0  0  0  0  0  0  0  0  0  0  0  0
    8.3590   -3.0472   24.6138 C   0  0  0  0  0  0  0  0  0  0  0  0
   11.0873   -3.9282   24.2852 C   0  0  0  0  0  0  0  0  0  0  0  0
   10.4962   -3.8249   25.6813 C   0  0  0  0  0  0  0  0  0  0  0  0
   10.5841   -2.7926   23.4079 C   0  0  1  0  0  0  0  0  0  0  0  0
   11.5015    0.6054   24.8363 N   0  0  0  0  0  0  0  0  0  0  0  0
    9.1411   -2.6529   23.5372 N   0  0  0  0  0  0  0  0  0  0  0  0
    9.0283   -3.7157   25.6627 N   0  0  0  0  0  0  0  0  0  0  0  0
    7.1548   -2.7740   24.5978 O   0  0  0  0  0  0  0  0  0  0  0  0
    6.3966   -5.5359   29.9155 H   0  0  0  0  0  0  0  0  0  0  0  0
    5.2592   -5.4070   27.7136 H   0  0  0  0  0  0  0  0  0  0  0  0
    8.7600   -4.8158   30.1345 H   0  0  0  0  0  0  0  0  0  0  0  0
   14.0425    0.2741   22.6157 H   0  0  0  0  0  0  0  0  0  0  0  0
   12.8692   -1.8744   22.1813 H   0  0  0  0  0  0  0  0  0  0  0  0
    6.4755   -4.5633   25.7358 H   0  0  0  0  0  0  0  0  0  0  0  0
    9.9882   -3.9702   28.1639 H   0  0  0  0  0  0  0  0  0  0  0  0
   13.0966    1.8159   24.3412 H   0  0  0  0  0  0  0  0  0  0  0  0
    9.9927   -0.7538   25.1685 H   0  0  0  0  0  0  0  0  0  0  0  0
   12.1916   -3.9200   24.3464 H   0  0  0  0  0  0  0  0  0  0  0  0
   10.8211   -4.9037   23.8409 H   0  0  0  0  0  0  0  0  0  0  0  0
   10.7477   -4.7156   26.2708 H   0  0  0  0  0  0  0  0  0  0  0  0
   10.9113   -2.9488   26.1941 H   0  0  0  0  0  0  0  0  0  0  0  0
   10.7560   -3.0651   22.3319 H   0  0  0  0  0  0  0  0  0  0  0  0
    8.6513   -2.2180   22.7514 H   0  0  0  0  0  0  0  0  0  0  0  0
  1  2  1  0  0  0  0
  1  3  2  0  0  0  0
  2  6  2  0  0  0  0
  3  7  1  0  0  0  0
  4  5  2  0  0  0  0
  4  8  1  0  0  0  0
  5 10  1  0  0  0  0
  6 11  1  0  0  0  0
  7 11  2  0  0  0  0
  8 16  2  0  0  0  0
  9 10  2  0  0  0  0
  9 16  1  0  0  0  0
 10 15  1  1  0  0  0
 11 18  1  0  0  0  0
 12 17  1  0  0  0  0
 12 18  1  0  0  0  0
 12 19  2  0  0  0  0
 13 14  1  0  0  0  0
 13 15  1  0  0  0  0
 14 18  1  0  0  0  0
 15 17  1  0  0  0  0
  1 20  1  0  0  0  0
  2 21  1  0  0  0  0
  3 22  1  0  0  0  0
  4 23  1  0  0  0  0
  5 24  1  0  0  0  0
  6 25  1  0  0  0  0
  7 26  1  0  0  0  0
  8 27  1  0  0  0  0
  9 28  1  0  0  0  0
 13 29  1  0  0  0  0
 13 30  1  0  0  0  0
 14 31  1  0  0  0  0
 14 32  1  0  0  0  0
 15 33  1  0  0  0  0
 17 34  1  0  0  0  0
M  END
> <Chemgauss4 Score>
-4.86876201629639

> <Number of Confs>
27

$$$$
ANT-DIA-045-2
  -OEChem-03242005443D

 36 37  0     1  0  0  0  0  0999 V2000
    7.7503   -2.4557   24.4940 C   0  0  0  0  0  0  0  0  0  0  0  0
    6.9737   -1.9803   23.4603 C   0  0  0  0  0  0  0  0  0  0  0  0
    7.9570   -4.1748   22.9434 C   0  0  0  0  0  0  0  0  0  0  0  0
    8.3200   -3.7269   24.1946 C   0  0  0  0  0  0  0  0  0  0  0  0
   10.9244   -2.5863   24.7932 C   0  0  0  0  0  0  0  0  0  0  0  0
    9.5136   -4.6482   27.5665 C   0  0  0  0  0  0  0  0  0  0  0  0
    8.5008   -4.8887   26.4550 C   0  0  0  0  0  0  0  0  0  0  0  0
   10.3260   -3.4683   27.0636 C   0  0  0  0  0  0  0  0  0  0  0  0
    9.2189   -4.4948   25.1431 C   0  0  2  0  0  0  0  0  0  0  0  0
   10.5261   -3.7921   25.5868 C   0  0  1  0  0  0  0  0  0  0  0  0
    9.9767    0.6328   23.3504 C   0  0  0  0  0  0  0  0  0  0  0  0
   11.5307   -1.8205   22.5066 C   0  0  0  0  0  0  0  0  0  0  0  0
   10.2913   -1.1889   21.8995 C   0  0  0  0  0  0  0  0  0  0  0  0
   11.1408   -2.8414   23.4525 N   0  0  0  0  0  0  0  0  0  0  0  0
   11.0273   -1.5012   25.3534 O   0  0  0  0  0  0  0  0  0  0  0  0
    9.4885   -0.6350   22.9341 O   0  0  0  0  0  0  0  0  0  0  0  0
    6.9336   -3.0647   22.1355 S   0  0  0  0  0  0  0  0  0  0  0  0
    7.8995   -1.9141   25.4195 H   0  0  0  0  0  0  0  0  0  0  0  0
    6.4274   -1.0486   23.4198 H   0  0  0  0  0  0  0  0  0  0  0  0
    8.2405   -5.1004   22.4618 H   0  0  0  0  0  0  0  0  0  0  0  0
    9.0296   -4.4459   28.5181 H   0  0  0  0  0  0  0  0  0  0  0  0
   10.1545   -5.5216   27.6815 H   0  0  0  0  0  0  0  0  0  0  0  0
    8.1571   -5.9362   26.4331 H   0  0  0  0  0  0  0  0  0  0  0  0
    7.6016   -4.2677   26.6144 H   0  0  0  0  0  0  0  0  0  0  0  0
    9.8043   -2.5323   27.2244 H   0  0  0  0  0  0  0  0  0  0  0  0
   11.2793   -3.4311   27.5803 H   0  0  0  0  0  0  0  0  0  0  0  0
    9.4883   -5.4386   24.6081 H   0  0  0  0  0  0  0  0  0  0  0  0
   11.3874   -4.5218   25.4773 H   0  0  0  0  0  0  0  0  0  0  0  0
    9.3376    1.0276   24.1440 H   0  0  0  0  0  0  0  0  0  0  0  0
    9.9848    1.3185   22.4994 H   0  0  0  0  0  0  0  0  0  0  0  0
   10.9943    0.5146   23.7302 H   0  0  0  0  0  0  0  0  0  0  0  0
   12.1560   -2.2858   21.7381 H   0  0  0  0  0  0  0  0  0  0  0  0
   12.1192   -1.0680   23.0401 H   0  0  0  0  0  0  0  0  0  0  0  0
    9.6982   -1.9495   21.3822 H   0  0  0  0  0  0  0  0  0  0  0  0
   10.5499   -0.3950   21.1912 H   0  0  0  0  0  0  0  0  0  0  0  0
   11.0200   -3.7919   23.1156 H   0  0  0  0  0  0  0  0  0  0  0  0
  1  2  2  0  0  0  0
  1  4  1  0  0  0  0
  2 17  1  0  0  0  0
  3  4  2  0  0  0  0
  3 17  1  0  0  0  0
  4  9  1  0  0  0  0
  5 10  1  0  0  0  0
  5 14  1  0  0  0  0
  5 15  2  0  0  0  0
  6  7  1  0  0  0  0
  6  8  1  0  0  0  0
  7  9  1  0  0  0  0
  8 10  1  0  0  0  0
  9 10  1  0  0  0  0
 11 16  1  0  0  0  0
 12 13  1  0  0  0  0
 12 14  1  0  0  0  0
 13 16  1  0  0  0  0
  1 18  1  0  0  0  0
  2 19  1  0  0  0  0
  3 20  1  0  0  0  0
  6 21  1  0  0  0  0
  6 22  1  0  0  0  0
  7 23  1  0  0  0  0
  7 24  1  0  0  0  0
  8 25  1  0  0  0  0
  8 26  1  0  0  0  0
  9 27  1  6  0  0  0
 10 28  1  1  0  0  0
 11 29  1  0  0  0  0
 11 30  1  0  0  0  0
 11 31  1  0  0  0  0
 12 32  1  0  0  0  0
 12 33  1  0  0  0  0
 13 34  1  0  0  0  0
 13 35  1  0  0  0  0
 14 36  1  0  0  0  0
M  END
> <Chemgauss4 Score>
-4.86748886108398

> <Number of Confs>
200

$$$$
TRY-UNI-714-20
  -OEChem-03242005443D

 32 33  0     0  0  0  0  0  0999 V2000
   11.3929    1.3165   23.0398 C   0  0  0  0  0  0  0  0  0  0  0  0
   11.6206   -2.3939   22.8469 C   0  0  0  0  0  0  0  0  0  0  0  0
   11.7034   -1.0468   22.4948 C   0  0  0  0  0  0  0  0  0  0  0  0
   11.1424   -2.7576   24.1058 C   0  0  0  0  0  0  0  0  0  0  0  0
    5.6091   -5.5396   24.2027 C   0  0  0  0  0  0  0  0  0  0  0  0
   10.8300   -0.4270   24.6605 C   0  0  0  0  0  0  0  0  0  0  0  0
    5.8631   -6.7114   24.8971 C   0  0  0  0  0  0  0  0  0  0  0  0
    7.6999   -5.8030   25.9360 C   0  0  0  0  0  0  0  0  0  0  0  0
   11.3082   -0.0633   23.4015 C   0  0  0  0  0  0  0  0  0  0  0  0
   10.7472   -1.7741   25.0126 C   0  0  0  0  0  0  0  0  0  0  0  0
    6.4643   -4.4627   24.4086 C   0  0  0  0  0  0  0  0  0  0  0  0
    7.5321   -4.5887   25.2901 C   0  0  0  0  0  0  0  0  0  0  0  0
    9.5309   -3.5169   26.3861 C   0  0  0  0  0  0  0  0  0  0  0  0
    6.2143   -3.1874   23.6725 C   0  0  0  0  0  0  0  0  0  0  0  0
   10.2361   -2.1632   26.3586 C   0  0  0  0  0  0  0  0  0  0  0  0
   11.4616    2.4371   22.7459 N   0  0  0  0  0  0  0  0  0  0  0  0
    6.8901   -6.8714   25.7616 N   0  0  0  0  0  0  0  0  0  0  0  0
    8.4297   -3.5220   25.5337 N   0  0  0  0  0  0  0  0  0  0  0  0
    9.9299   -4.4393   27.0897 O   0  0  0  0  0  0  0  0  0  0  0  0
   11.9292   -3.1599   22.1415 H   0  0  0  0  0  0  0  0  0  0  0  0
   12.0778   -0.7789   21.5096 H   0  0  0  0  0  0  0  0  0  0  0  0
   11.0810   -3.8099   24.3707 H   0  0  0  0  0  0  0  0  0  0  0  0
    4.7674   -5.4739   23.5218 H   0  0  0  0  0  0  0  0  0  0  0  0
   10.5213    0.3357   25.3725 H   0  0  0  0  0  0  0  0  0  0  0  0
    5.2257   -7.5805   24.7717 H   0  0  0  0  0  0  0  0  0  0  0  0
    8.5145   -5.9629   26.6362 H   0  0  0  0  0  0  0  0  0  0  0  0
    5.5531   -2.5358   24.2554 H   0  0  0  0  0  0  0  0  0  0  0  0
    7.1515   -2.6514   23.4788 H   0  0  0  0  0  0  0  0  0  0  0  0
    5.7477   -3.3773   22.6979 H   0  0  0  0  0  0  0  0  0  0  0  0
   11.0625   -2.1949   27.0877 H   0  0  0  0  0  0  0  0  0  0  0  0
    9.5315   -1.4029   26.7339 H   0  0  0  0  0  0  0  0  0  0  0  0
    8.2493   -2.6579   25.0267 H   0  0  0  0  0  0  0  0  0  0  0  0
  1  9  1  0  0  0  0
  1 16  3  0  0  0  0
  2  3  1  0  0  0  0
  2  4  2  0  0  0  0
  3  9  2  0  0  0  0
  4 10  1  0  0  0  0
  5  7  2  0  0  0  0
  5 11  1  0  0  0  0
  6  9  1  0  0  0  0
  6 10  2  0  0  0  0
  7 17  1  0  0  0  0
  8 12  1  0  0  0  0
  8 17  2  0  0  0  0
 10 15  1  0  0  0  0
 11 12  2  0  0  0  0
 11 14  1  0  0  0  0
 12 18  1  0  0  0  0
 13 15  1  0  0  0  0
 13 18  1  0  0  0  0
 13 19  2  0  0  0  0
  2 20  1  0  0  0  0
  3 21  1  0  0  0  0
  4 22  1  0  0  0  0
  5 23  1  0  0  0  0
  6 24  1  0  0  0  0
  7 25  1  0  0  0  0
  8 26  1  0  0  0  0
 14 27  1  0  0  0  0
 14 28  1  0  0  0  0
 14 29  1  0  0  0  0
 15 30  1  0  0  0  0
 15 31  1  0  0  0  0
 18 32  1  0  0  0  0
M  END
> <Chemgauss4 Score>
-4.8555154800415

> <Number of Confs>
20

$$$$
DAR-DIA-43a-13
  -OEChem-03242005443D

 47 49  0     1  0  0  0  0  0999 V2000
    9.9894   -5.2883   27.9558 C   0  0  0  0  0  0  0  0  0  0  0  0
   14.1908   -1.0736   21.9254 C   0  0  0  0  0  0  0  0  0  0  0  0
   10.1014   -5.2835   26.5655 C   0  0  0  0  0  0  0  0  0  0  0  0
   12.8236   -1.2436   21.7376 C   0  0  0  0  0  0  0  0  0  0  0  0
    9.4170   -4.1993   28.6133 C   0  0  0  0  0  0  0  0  0  0  0  0
    9.0688   -3.1005   26.4900 C   0  0  0  0  0  0  0  0  0  0  0  0
   14.6105   -0.3971   23.0593 C   0  0  0  0  0  0  0  0  0  0  0  0
   12.4515   -0.0776   23.7768 C   0  0  0  0  0  0  0  0  0  0  0  0
    9.6411   -4.1895   25.8326 C   0  0  0  0  0  0  0  0  0  0  0  0
   11.9305   -0.7390   22.6763 C   0  0  0  0  0  0  0  0  0  0  0  0
    8.9568   -3.1054   27.8804 C   0  0  0  0  0  0  0  0  0  0  0  0
   10.6270   -3.0626   23.8097 C   0  0  0  0  0  0  0  0  0  0  0  0
    9.9244   -2.1550   23.1202 C   0  0  0  0  0  0  0  0  0  0  0  0
    7.2010   -4.3419   24.2297 C   0  0  0  0  0  0  0  0  0  0  0  0
    8.4727   -2.5130   23.0475 C   0  0  0  0  0  0  0  0  0  0  0  0
    9.7643   -4.1844   24.3218 C   0  0  2  0  0  0  0  0  0  0  0  0
    8.4631   -3.9748   23.5109 C   0  0  1  0  0  0  0  0  0  0  0  0
   10.4418   -0.9076   22.5017 C   0  0  0  0  0  0  0  0  0  0  0  0
    6.1781   -6.0916   26.8544 C   0  0  0  0  0  0  0  0  0  0  0  0
    6.0242   -6.2249   25.3487 C   0  0  0  0  0  0  0  0  0  0  0  0
   13.7731    0.1071   23.9932 N   0  0  0  0  0  0  0  0  0  0  0  0
    5.0702   -6.6696   27.5665 N   0  0  0  0  0  0  0  0  0  0  0  0
    7.1490   -5.6612   24.6374 N   0  0  0  0  0  0  0  0  0  0  0  0
    6.3360   -3.4916   24.4045 O   0  0  0  0  0  0  0  0  0  0  0  0
    8.2519   -1.7616   28.6922 Cl  0  0  0  0  0  0  0  0  0  0  0  0
   10.3480   -6.1403   28.5262 H   0  0  0  0  0  0  0  0  0  0  0  0
   14.9053   -1.4587   21.2069 H   0  0  0  0  0  0  0  0  0  0  0  0
   10.5488   -6.1362   26.0616 H   0  0  0  0  0  0  0  0  0  0  0  0
   12.4635   -1.7701   20.8580 H   0  0  0  0  0  0  0  0  0  0  0  0
    9.3365   -4.2168   29.6974 H   0  0  0  0  0  0  0  0  0  0  0  0
    8.7110   -2.2502   25.9140 H   0  0  0  0  0  0  0  0  0  0  0  0
   15.6665   -0.2381   23.2514 H   0  0  0  0  0  0  0  0  0  0  0  0
   11.8035    0.3375   24.5425 H   0  0  0  0  0  0  0  0  0  0  0  0
   11.7024   -3.0219   23.9463 H   0  0  0  0  0  0  0  0  0  0  0  0
    7.8647   -1.8658   23.6873 H   0  0  0  0  0  0  0  0  0  0  0  0
    8.1199   -2.4244   22.0146 H   0  0  0  0  0  0  0  0  0  0  0  0
   10.2407   -5.1335   24.0309 H   0  0  0  0  0  0  0  0  0  0  0  0
    8.4916   -4.6552   22.6021 H   0  0  0  0  0  0  0  0  0  0  0  0
    9.9274   -0.0387   22.9349 H   0  0  0  0  0  0  0  0  0  0  0  0
   10.1899   -0.8963   21.4327 H   0  0  0  0  0  0  0  0  0  0  0  0
    6.2498   -5.0421   27.1572 H   0  0  0  0  0  0  0  0  0  0  0  0
    7.0810   -6.6128   27.1876 H   0  0  0  0  0  0  0  0  0  0  0  0
    5.9616   -7.2803   25.0662 H   0  0  0  0  0  0  0  0  0  0  0  0
    5.1220   -5.7165   24.9935 H   0  0  0  0  0  0  0  0  0  0  0  0
    4.3943   -7.0079   26.9123 H   0  0  0  0  0  0  0  0  0  0  0  0
    5.3970   -7.4270   28.1311 H   0  0  0  0  0  0  0  0  0  0  0  0
    7.9392   -6.2636   24.4272 H   0  0  0  0  0  0  0  0  0  0  0  0
  1  3  2  0  0  0  0
  1  5  1  0  0  0  0
  2  4  2  0  0  0  0
  2  7  1  0  0  0  0
  3  9  1  0  0  0  0
  4 10  1  0  0  0  0
  5 11  2  0  0  0  0
  6  9  2  0  0  0  0
  6 11  1  0  0  0  0
  7 21  2  0  0  0  0
  8 10  2  0  0  0  0
  8 21  1  0  0  0  0
  9 16  1  0  0  0  0
 10 18  1  0  0  0  0
 11 25  1  0  0  0  0
 12 13  2  0  0  0  0
 12 16  1  0  0  0  0
 13 15  1  0  0  0  0
 13 18  1  0  0  0  0
 14 17  1  0  0  0  0
 14 23  1  0  0  0  0
 14 24  2  0  0  0  0
 15 17  1  0  0  0  0
 16 17  1  0  0  0  0
 19 20  1  0  0  0  0
 19 22  1  0  0  0  0
 20 23  1  0  0  0  0
  1 26  1  0  0  0  0
  2 27  1  0  0  0  0
  3 28  1  0  0  0  0
  4 29  1  0  0  0  0
  5 30  1  0  0  0  0
  6 31  1  0  0  0  0
  7 32  1  0  0  0  0
  8 33  1  0  0  0  0
 12 34  1  0  0  0  0
 15 35  1  0  0  0  0
 15 36  1  0  0  0  0
 16 37  1  6  0  0  0
 17 38  1  1  0  0  0
 18 39  1  0  0  0  0
 18 40  1  0  0  0  0
 19 41  1  0  0  0  0
 19 42  1  0  0  0  0
 20 43  1  0  0  0  0
 20 44  1  0  0  0  0
 22 45  1  0  0  0  0
 22 46  1  0  0  0  0
 23 47  1  0  0  0  0
M  END
> <Chemgauss4 Score>
-4.85409355163574

> <Number of Confs>
200

$$$$
KIM-UNI-7d1-2
  -OEChem-03242005443D

 43 44  0     0  0  0  0  0  0999 V2000
   13.0285   -1.2737   22.1471 C   0  0  0  0  0  0  0  0  0  0  0  0
   11.6998   -0.0395   23.7878 C   0  0  0  0  0  0  0  0  0  0  0  0
   10.8390   -0.0219   24.8852 C   0  0  0  0  0  0  0  0  0  0  0  0
   11.7355   -2.4543   23.8544 C   0  0  0  0  0  0  0  0  0  0  0  0
   12.1481   -1.2557   23.2724 C   0  0  0  0  0  0  0  0  0  0  0  0
   10.8747   -2.4368   24.9518 C   0  0  0  0  0  0  0  0  0  0  0  0
   10.4265   -1.2206   25.4672 C   0  0  0  0  0  0  0  0  0  0  0  0
    5.5911   -6.1353   24.3797 C   0  0  0  0  0  0  0  0  0  0  0  0
    6.9833   -4.0295   24.0905 C   0  0  0  0  0  0  0  0  0  0  0  0
    7.0866   -5.3327   26.1774 C   0  0  0  0  0  0  0  0  0  0  0  0
    8.5054   -3.8839   24.1374 C   0  0  0  0  0  0  0  0  0  0  0  0
    8.6059   -5.1676   26.1811 C   0  0  0  0  0  0  0  0  0  0  0  0
    4.9766   -5.8663   23.0292 C   0  0  0  0  0  0  0  0  0  0  0  0
    7.5166   -0.0138   26.0392 C   0  0  0  0  0  0  0  0  0  0  0  0
   10.4468   -3.7416   25.5589 C   0  0  0  0  0  0  0  0  0  0  0  0
    8.7426   -0.0480   26.8868 C   0  0  0  0  0  0  0  0  0  0  0  0
   13.7435   -1.2884   21.2332 N   0  0  0  0  0  0  0  0  0  0  0  0
    6.5437   -5.2197   24.8246 N   0  0  0  0  0  0  0  0  0  0  0  0
    8.9949   -3.9116   25.5235 N   0  0  0  0  0  0  0  0  0  0  0  0
    9.5528   -1.1836   26.5760 N   0  0  0  0  0  0  0  0  0  0  0  0
    5.2374   -7.1308   25.0167 O   0  0  0  0  0  0  0  0  0  0  0  0
   12.0103    0.9032   23.3431 H   0  0  0  0  0  0  0  0  0  0  0  0
   10.4948    0.9316   25.2772 H   0  0  0  0  0  0  0  0  0  0  0  0
   12.0833   -3.4056   23.4566 H   0  0  0  0  0  0  0  0  0  0  0  0
    6.5009   -3.1655   24.5643 H   0  0  0  0  0  0  0  0  0  0  0  0
    6.6565   -4.0513   23.0491 H   0  0  0  0  0  0  0  0  0  0  0  0
    6.8184   -6.2960   26.6234 H   0  0  0  0  0  0  0  0  0  0  0  0
    6.6125   -4.5500   26.7825 H   0  0  0  0  0  0  0  0  0  0  0  0
    8.9694   -4.6802   23.5402 H   0  0  0  0  0  0  0  0  0  0  0  0
    8.7723   -2.9281   23.6705 H   0  0  0  0  0  0  0  0  0  0  0  0
    8.9470   -5.1603   27.2234 H   0  0  0  0  0  0  0  0  0  0  0  0
    9.0730   -6.0317   25.6899 H   0  0  0  0  0  0  0  0  0  0  0  0
    5.5714   -6.3554   22.2649 H   0  0  0  0  0  0  0  0  0  0  0  0
    4.9566   -4.7953   22.8548 H   0  0  0  0  0  0  0  0  0  0  0  0
    3.9635   -6.2552   23.0163 H   0  0  0  0  0  0  0  0  0  0  0  0
    6.9273   -0.9270   26.2088 H   0  0  0  0  0  0  0  0  0  0  0  0
    6.9125    0.8666   26.3038 H   0  0  0  0  0  0  0  0  0  0  0  0
    7.8052    0.0447   24.9794 H   0  0  0  0  0  0  0  0  0  0  0  0
   10.8982   -4.5834   25.0226 H   0  0  0  0  0  0  0  0  0  0  0  0
   10.7668   -3.8125   26.6038 H   0  0  0  0  0  0  0  0  0  0  0  0
    9.3259    0.8680   26.7115 H   0  0  0  0  0  0  0  0  0  0  0  0
    8.4462   -0.0971   27.9450 H   0  0  0  0  0  0  0  0  0  0  0  0
    9.5198   -2.0013   27.1538 H   0  0  0  0  0  0  0  0  0  0  0  0
  1  5  1  0  0  0  0
  1 17  3  0  0  0  0
  2  3  2  0  0  0  0
  2  5  1  0  0  0  0
  3  7  1  0  0  0  0
  4  5  2  0  0  0  0
  4  6  1  0  0  0  0
  6  7  2  0  0  0  0
  6 15  1  0  0  0  0
  7 20  1  0  0  0  0
  8 13  1  0  0  0  0
  8 18  1  0  0  0  0
  8 21  2  0  0  0  0
  9 11  1  0  0  0  0
  9 18  1  0  0  0  0
 10 12  1  0  0  0  0
 10 18  1  0  0  0  0
 11 19  1  0  0  0  0
 12 19  1  0  0  0  0
 14 16  1  0  0  0  0
 15 19  1  0  0  0  0
 16 20  1  0  0  0  0
  2 22  1  0  0  0  0
  3 23  1  0  0  0  0
  4 24  1  0  0  0  0
  9 25  1  0  0  0  0
  9 26  1  0  0  0  0
 10 27  1  0  0  0  0
 10 28  1  0  0  0  0
 11 29  1  0  0  0  0
 11 30  1  0  0  0  0
 12 31  1  0  0  0  0
 12 32  1  0  0  0  0
 13 33  1  0  0  0  0
 13 34  1  0  0  0  0
 13 35  1  0  0  0  0
 14 36  1  0  0  0  0
 14 37  1  0  0  0  0
 14 38  1  0  0  0  0
 15 39  1  0  0  0  0
 15 40  1  0  0  0  0
 16 41  1  0  0  0  0
 16 42  1  0  0  0  0
 20 43  1  0  0  0  0
M  END
> <Chemgauss4 Score>
-4.83825445175171

> <Number of Confs>
41

$$$$
TRY-UNI-714-8
  -OEChem-03242005443D

 32 33  0     0  0  0  0  0  0999 V2000
   12.7858    0.1683   22.8705 C   0  0  0  0  0  0  0  0  0  0  0  0
   12.1782   -0.7411   22.0050 C   0  0  0  0  0  0  0  0  0  0  0  0
   12.5042    0.1267   24.2361 C   0  0  0  0  0  0  0  0  0  0  0  0
   11.2887   -1.6922   22.5049 C   0  0  0  0  0  0  0  0  0  0  0  0
   11.6147   -0.8244   24.7360 C   0  0  0  0  0  0  0  0  0  0  0  0
    6.9514   -5.4160   29.1831 C   0  0  0  0  0  0  0  0  0  0  0  0
    8.3809   -3.9353   28.1622 C   0  0  0  0  0  0  0  0  0  0  0  0
    7.2614   -5.5558   26.8292 C   0  0  0  0  0  0  0  0  0  0  0  0
   11.0069   -1.7339   23.8704 C   0  0  0  0  0  0  0  0  0  0  0  0
    6.6488   -6.0358   27.9814 C   0  0  0  0  0  0  0  0  0  0  0  0
    8.1454   -4.4858   26.9127 C   0  0  0  0  0  0  0  0  0  0  0  0
    9.7029   -2.8908   25.7089 C   0  0  0  0  0  0  0  0  0  0  0  0
    6.9711   -6.1883   25.5043 C   0  0  0  0  0  0  0  0  0  0  0  0
    7.8047   -4.3744   29.3036 N   0  0  0  0  0  0  0  0  0  0  0  0
    5.7476   -7.1150   27.9481 N   0  0  0  0  0  0  0  0  0  0  0  0
   10.1173   -2.6854   24.3702 N   0  0  0  0  0  0  0  0  0  0  0  0
    8.7940   -3.9593   25.7708 N   0  0  0  0  0  0  0  0  0  0  0  0
   10.0858   -2.2286   26.6680 O   0  0  0  0  0  0  0  0  0  0  0  0
   13.4791    0.9086   22.4818 H   0  0  0  0  0  0  0  0  0  0  0  0
   12.3979   -0.7095   20.9419 H   0  0  0  0  0  0  0  0  0  0  0  0
   12.9783    0.8344   24.9100 H   0  0  0  0  0  0  0  0  0  0  0  0
   10.8212   -2.3960   21.8208 H   0  0  0  0  0  0  0  0  0  0  0  0
   11.4028   -0.8475   25.8021 H   0  0  0  0  0  0  0  0  0  0  0  0
    6.5049   -5.7455   30.1167 H   0  0  0  0  0  0  0  0  0  0  0  0
    9.0601   -3.0980   28.2918 H   0  0  0  0  0  0  0  0  0  0  0  0
    6.1182   -5.6926   25.0289 H   0  0  0  0  0  0  0  0  0  0  0  0
    7.8369   -6.1170   24.8363 H   0  0  0  0  0  0  0  0  0  0  0  0
    6.7402   -7.2535   25.6192 H   0  0  0  0  0  0  0  0  0  0  0  0
    5.3633   -7.4615   28.8061 H   0  0  0  0  0  0  0  0  0  0  0  0
    5.5740   -7.5840   27.0799 H   0  0  0  0  0  0  0  0  0  0  0  0
    9.7093   -3.3204   23.6761 H   0  0  0  0  0  0  0  0  0  0  0  0
    8.5707   -4.4158   24.8900 H   0  0  0  0  0  0  0  0  0  0  0  0
  1  2  1  0  0  0  0
  1  3  2  0  0  0  0
  2  4  2  0  0  0  0
  3  5  1  0  0  0  0
  4  9  1  0  0  0  0
  5  9  2  0  0  0  0
  6 10  2  0  0  0  0
  6 14  1  0  0  0  0
  7 11  1  0  0  0  0
  7 14  2  0  0  0  0
  8 10  1  0  0  0  0
  8 11  2  0  0  0  0
  8 13  1  0  0  0  0
  9 16  1  0  0  0  0
 10 15  1  0  0  0  0
 11 17  1  0  0  0  0
 12 16  1  0  0  0  0
 12 17  1  0  0  0  0
 12 18  2  0  0  0  0
  1 19  1  0  0  0  0
  2 20  1  0  0  0  0
  3 21  1  0  0  0  0
  4 22  1  0  0  0  0
  5 23  1  0  0  0  0
  6 24  1  0  0  0  0
  7 25  1  0  0  0  0
 13 26  1  0  0  0  0
 13 27  1  0  0  0  0
 13 28  1  0  0  0  0
 15 29  1  0  0  0  0
 15 30  1  0  0  0  0
 16 31  1  0  0  0  0
 17 32  1  0  0  0  0
M  END
> <Chemgauss4 Score>
-4.83422565460205

> <Number of Confs>
3

$$$$
DUN-NEW-f8c-25
  -OEChem-03242005443D

 49 50  0     1  0  0  0  0  0999 V2000
   11.5736   -0.6999   23.2143 C   0  0  0  0  0  0  0  0  0  0  0  0
   11.8864   -1.9096   22.5943 C   0  0  0  0  0  0  0  0  0  0  0  0
   10.9689   -0.6963   24.4713 C   0  0  0  0  0  0  0  0  0  0  0  0
   11.5944   -3.1157   23.2312 C   0  0  0  0  0  0  0  0  0  0  0  0
   10.6769   -1.9024   25.1082 C   0  0  0  0  0  0  0  0  0  0  0  0
   10.9896   -3.1121   24.4882 C   0  0  0  0  0  0  0  0  0  0  0  0
    6.1109    1.2009   21.8204 C   0  0  0  0  0  0  0  0  0  0  0  0
    7.1394   -1.1592   24.3794 C   0  0  0  0  0  0  0  0  0  0  0  0
    7.1478   -2.2152   22.0915 C   0  0  0  0  0  0  0  0  0  0  0  0
    7.4497    0.1891   23.7314 C   0  0  0  0  0  0  0  0  0  0  0  0
    7.4599   -0.8466   21.4908 C   0  0  0  0  0  0  0  0  0  0  0  0
    7.6738   -2.3230   23.5308 C   0  0  0  0  0  0  0  0  0  0  0  0
    6.4239   -5.4975   26.6085 C   0  0  0  0  0  0  0  0  0  0  0  0
   10.6733   -4.4166   25.1777 C   0  0  0  0  0  0  0  0  0  0  0  0
    5.7302    1.0493   20.3692 C   0  0  0  0  0  0  0  0  0  0  0  0
    7.2935   -3.6660   24.1493 C   0  0  0  0  0  0  0  0  0  0  0  0
    9.2818   -4.9464   24.8401 C   0  0  0  0  0  0  0  0  0  0  0  0
    6.9578    0.2275   22.3492 N   0  0  0  0  0  0  0  0  0  0  0  0
    8.1877   -3.9780   25.2131 N   0  0  2  0  0  0  0  0  0  0  0  0
    5.6697    2.1576   22.4623 O   0  0  0  0  0  0  0  0  0  0  0  0
    8.6479   -4.6434   27.6789 O   0  0  0  0  0  0  0  0  0  0  0  0
    6.8036   -2.9907   27.2366 O   0  0  0  0  0  0  0  0  0  0  0  0
    7.5710   -4.1555   26.8380 S   0  0  0  0  0  0  0  0  0  0  0  0
    4.6418    2.3802   19.9922 Cl  0  0  0  0  0  0  0  0  0  0  0  0
   11.8023    0.2392   22.7188 H   0  0  0  0  0  0  0  0  0  0  0  0
   12.3582   -1.9126   21.6160 H   0  0  0  0  0  0  0  0  0  0  0  0
   10.7262    0.2453   24.9548 H   0  0  0  0  0  0  0  0  0  0  0  0
   11.8415   -4.0534   22.7405 H   0  0  0  0  0  0  0  0  0  0  0  0
   10.2056   -1.8899   26.0874 H   0  0  0  0  0  0  0  0  0  0  0  0
    7.5887   -1.1920   25.3791 H   0  0  0  0  0  0  0  0  0  0  0  0
    6.0543   -1.2559   24.5137 H   0  0  0  0  0  0  0  0  0  0  0  0
    6.0630   -2.3816   22.0721 H   0  0  0  0  0  0  0  0  0  0  0  0
    7.6015   -2.9962   21.4697 H   0  0  0  0  0  0  0  0  0  0  0  0
    7.0249    0.9889   24.3403 H   0  0  0  0  0  0  0  0  0  0  0  0
    8.5333    0.3532   23.6932 H   0  0  0  0  0  0  0  0  0  0  0  0
    8.5431   -0.7082   21.3925 H   0  0  0  0  0  0  0  0  0  0  0  0
    7.0296   -0.7779   20.4868 H   0  0  0  0  0  0  0  0  0  0  0  0
    8.7699   -2.2592   23.5054 H   0  0  0  0  0  0  0  0  0  0  0  0
    5.9551   -5.7178   27.5689 H   0  0  0  0  0  0  0  0  0  0  0  0
    5.6739   -5.1884   25.8789 H   0  0  0  0  0  0  0  0  0  0  0  0
    6.9769   -6.3648   26.2449 H   0  0  0  0  0  0  0  0  0  0  0  0
   10.7503   -4.2648   26.2618 H   0  0  0  0  0  0  0  0  0  0  0  0
   11.4344   -5.1651   24.9229 H   0  0  0  0  0  0  0  0  0  0  0  0
    5.2197    0.1022   20.2368 H   0  0  0  0  0  0  0  0  0  0  0  0
    6.6256    1.1171   19.7621 H   0  0  0  0  0  0  0  0  0  0  0  0
    6.2739   -3.5740   24.5202 H   0  0  0  0  0  0  0  0  0  0  0  0
    7.3589   -4.4148   23.3615 H   0  0  0  0  0  0  0  0  0  0  0  0
    9.1988   -5.1163   23.7620 H   0  0  0  0  0  0  0  0  0  0  0  0
    9.0744   -5.8920   25.3517 H   0  0  0  0  0  0  0  0  0  0  0  0
  1  2  1  0  0  0  0
  1  3  2  0  0  0  0
  2  4  2  0  0  0  0
  3  5  1  0  0  0  0
  4  6  1  0  0  0  0
  5  6  2  0  0  0  0
  6 14  1  0  0  0  0
  7 15  1  0  0  0  0
  7 18  1  0  0  0  0
  7 20  2  0  0  0  0
  8 10  1  0  0  0  0
  8 12  1  0  0  0  0
  9 11  1  0  0  0  0
  9 12  1  0  0  0  0
 10 18  1  0  0  0  0
 11 18  1  0  0  0  0
 12 16  1  0  0  0  0
 13 23  1  0  0  0  0
 14 17  1  0  0  0  0
 15 24  1  0  0  0  0
 16 19  1  0  0  0  0
 17 19  1  6  0  0  0
 19 23  1  0  0  0  0
 21 23  2  0  0  0  0
 22 23  2  0  0  0  0
  1 25  1  0  0  0  0
  2 26  1  0  0  0  0
  3 27  1  0  0  0  0
  4 28  1  0  0  0  0
  5 29  1  0  0  0  0
  8 30  1  0  0  0  0
  8 31  1  0  0  0  0
  9 32  1  0  0  0  0
  9 33  1  0  0  0  0
 10 34  1  0  0  0  0
 10 35  1  0  0  0  0
 11 36  1  0  0  0  0
 11 37  1  0  0  0  0
 12 38  1  0  0  0  0
 13 39  1  0  0  0  0
 13 40  1  0  0  0  0
 13 41  1  0  0  0  0
 14 42  1  0  0  0  0
 14 43  1  0  0  0  0
 15 44  1  0  0  0  0
 15 45  1  0  0  0  0
 16 46  1  0  0  0  0
 16 47  1  0  0  0  0
 17 48  1  0  0  0  0
 17 49  1  0  0  0  0
M  END
> <Chemgauss4 Score>
-4.83283424377441

> <Number of Confs>
200

$$$$
DUN-NEW-f8c-25
  -OEChem-03242005443D

 49 50  0     1  0  0  0  0  0999 V2000
   11.5736   -0.6999   23.2143 C   0  0  0  0  0  0  0  0  0  0  0  0
   11.8864   -1.9096   22.5943 C   0  0  0  0  0  0  0  0  0  0  0  0
   10.9689   -0.6963   24.4713 C   0  0  0  0  0  0  0  0  0  0  0  0
   11.5944   -3.1157   23.2312 C   0  0  0  0  0  0  0  0  0  0  0  0
   10.6769   -1.9024   25.1082 C   0  0  0  0  0  0  0  0  0  0  0  0
   10.9896   -3.1121   24.4882 C   0  0  0  0  0  0  0  0  0  0  0  0
    6.1109    1.2009   21.8204 C   0  0  0  0  0  0  0  0  0  0  0  0
    7.1394   -1.1592   24.3794 C   0  0  0  0  0  0  0  0  0  0  0  0
    7.1478   -2.2152   22.0915 C   0  0  0  0  0  0  0  0  0  0  0  0
    7.4497    0.1891   23.7314 C   0  0  0  0  0  0  0  0  0  0  0  0
    7.4599   -0.8466   21.4908 C   0  0  0  0  0  0  0  0  0  0  0  0
    7.6738   -2.3230   23.5308 C   0  0  0  0  0  0  0  0  0  0  0  0
    6.4239   -5.4975   26.6085 C   0  0  0  0  0  0  0  0  0  0  0  0
   10.6733   -4.4166   25.1777 C   0  0  0  0  0  0  0  0  0  0  0  0
    5.7302    1.0493   20.3692 C   0  0  0  0  0  0  0  0  0  0  0  0
    7.2935   -3.6660   24.1493 C   0  0  0  0  0  0  0  0  0  0  0  0
    9.2818   -4.9464   24.8401 C   0  0  0  0  0  0  0  0  0  0  0  0
    6.9578    0.2275   22.3492 N   0  0  0  0  0  0  0  0  0  0  0  0
    8.1877   -3.9780   25.2131 N   0  0  2  0  0  0  0  0  0  0  0  0
    5.6697    2.1576   22.4623 O   0  0  0  0  0  0  0  0  0  0  0  0
    8.6479   -4.6434   27.6789 O   0  0  0  0  0  0  0  0  0  0  0  0
    6.8036   -2.9907   27.2366 O   0  0  0  0  0  0  0  0  0  0  0  0
    7.5710   -4.1555   26.8380 S   0  0  0  0  0  0  0  0  0  0  0  0
    4.6418    2.3802   19.9922 Cl  0  0  0  0  0  0  0  0  0  0  0  0
   11.8023    0.2392   22.7188 H   0  0  0  0  0  0  0  0  0  0  0  0
   12.3582   -1.9126   21.6160 H   0  0  0  0  0  0  0  0  0  0  0  0
   10.7262    0.2453   24.9548 H   0  0  0  0  0  0  0  0  0  0  0  0
   11.8415   -4.0534   22.7405 H   0  0  0  0  0  0  0  0  0  0  0  0
   10.2056   -1.8899   26.0874 H   0  0  0  0  0  0  0  0  0  0  0  0
    7.5887   -1.1920   25.3791 H   0  0  0  0  0  0  0  0  0  0  0  0
    6.0543   -1.2559   24.5137 H   0  0  0  0  0  0  0  0  0  0  0  0
    6.0630   -2.3816   22.0721 H   0  0  0  0  0  0  0  0  0  0  0  0
    7.6015   -2.9962   21.4697 H   0  0  0  0  0  0  0  0  0  0  0  0
    7.0249    0.9889   24.3403 H   0  0  0  0  0  0  0  0  0  0  0  0
    8.5333    0.3532   23.6932 H   0  0  0  0  0  0  0  0  0  0  0  0
    8.5431   -0.7082   21.3925 H   0  0  0  0  0  0  0  0  0  0  0  0
    7.0296   -0.7779   20.4868 H   0  0  0  0  0  0  0  0  0  0  0  0
    8.7699   -2.2592   23.5054 H   0  0  0  0  0  0  0  0  0  0  0  0
    5.9551   -5.7178   27.5689 H   0  0  0  0  0  0  0  0  0  0  0  0
    5.6739   -5.1884   25.8789 H   0  0  0  0  0  0  0  0  0  0  0  0
    6.9769   -6.3648   26.2449 H   0  0  0  0  0  0  0  0  0  0  0  0
   10.7503   -4.2648   26.2618 H   0  0  0  0  0  0  0  0  0  0  0  0
   11.4344   -5.1651   24.9229 H   0  0  0  0  0  0  0  0  0  0  0  0
    5.2197    0.1022   20.2368 H   0  0  0  0  0  0  0  0  0  0  0  0
    6.6256    1.1171   19.7621 H   0  0  0  0  0  0  0  0  0  0  0  0
    6.2739   -3.5740   24.5202 H   0  0  0  0  0  0  0  0  0  0  0  0
    7.3589   -4.4148   23.3615 H   0  0  0  0  0  0  0  0  0  0  0  0
    9.1988   -5.1163   23.7620 H   0  0  0  0  0  0  0  0  0  0  0  0
    9.0744   -5.8920   25.3517 H   0  0  0  0  0  0  0  0  0  0  0  0
  1  2  1  0  0  0  0
  1  3  2  0  0  0  0
  2  4  2  0  0  0  0
  3  5  1  0  0  0  0
  4  6  1  0  0  0  0
  5  6  2  0  0  0  0
  6 14  1  0  0  0  0
  7 15  1  0  0  0  0
  7 18  1  0  0  0  0
  7 20  2  0  0  0  0
  8 10  1  0  0  0  0
  8 12  1  0  0  0  0
  9 11  1  0  0  0  0
  9 12  1  0  0  0  0
 10 18  1  0  0  0  0
 11 18  1  0  0  0  0
 12 16  1  0  0  0  0
 13 23  1  0  0  0  0
 14 17  1  0  0  0  0
 15 24  1  0  0  0  0
 16 19  1  0  0  0  0
 17 19  1  1  0  0  0
 19 23  1  0  0  0  0
 21 23  2  0  0  0  0
 22 23  2  0  0  0  0
  1 25  1  0  0  0  0
  2 26  1  0  0  0  0
  3 27  1  0  0  0  0
  4 28  1  0  0  0  0
  5 29  1  0  0  0  0
  8 30  1  0  0  0  0
  8 31  1  0  0  0  0
  9 32  1  0  0  0  0
  9 33  1  0  0  0  0
 10 34  1  0  0  0  0
 10 35  1  0  0  0  0
 11 36  1  0  0  0  0
 11 37  1  0  0  0  0
 12 38  1  0  0  0  0
 13 39  1  0  0  0  0
 13 40  1  0  0  0  0
 13 41  1  0  0  0  0
 14 42  1  0  0  0  0
 14 43  1  0  0  0  0
 15 44  1  0  0  0  0
 15 45  1  0  0  0  0
 16 46  1  0  0  0  0
 16 47  1  0  0  0  0
 17 48  1  0  0  0  0
 17 49  1  0  0  0  0
M  END
> <Chemgauss4 Score>
-4.83283424377441

> <Number of Confs>
200

$$$$
JOR-UNI-2fc-10
  -OEChem-03242005443D

 48 50  0     0  0  0  0  0  0999 V2000
   10.4422    0.2894   23.7432 C   0  0  0  0  0  0  0  0  0  0  0  0
    3.9315   -4.7437   22.1695 C   0  0  0  0  0  0  0  0  0  0  0  0
    9.6384   -0.8496   23.7894 C   0  0  0  0  0  0  0  0  0  0  0  0
    5.1706   -4.1960   22.4823 C   0  0  0  0  0  0  0  0  0  0  0  0
   11.7325    0.2117   23.2190 C   0  0  0  0  0  0  0  0  0  0  0  0
   11.4152   -2.1442   22.7873 C   0  0  0  0  0  0  0  0  0  0  0  0
    3.4739   -5.7974   22.9442 C   0  0  0  0  0  0  0  0  0  0  0  0
    5.3580   -5.7664   24.2586 C   0  0  0  0  0  0  0  0  0  0  0  0
   10.1248   -2.0664   23.3115 C   0  0  0  0  0  0  0  0  0  0  0  0
    5.9039   -4.7114   23.5453 C   0  0  0  0  0  0  0  0  0  0  0  0
   12.2190   -1.0051   22.7410 C   0  0  0  0  0  0  0  0  0  0  0  0
    7.8455   -3.1179   23.2659 C   0  0  0  0  0  0  0  0  0  0  0  0
    9.1146   -5.8826   26.0926 C   0  0  0  0  0  0  0  0  0  0  0  0
   10.6953   -4.3316   27.0757 C   0  0  0  0  0  0  0  0  0  0  0  0
    8.2089   -5.7825   27.3143 C   0  0  0  0  0  0  0  0  0  0  0  0
    9.8302   -4.1921   28.3226 C   0  0  0  0  0  0  0  0  0  0  0  0
   10.7130   -4.7358   24.6991 C   0  0  0  0  0  0  0  0  0  0  0  0
    9.9112   -4.5534   23.4214 C   0  0  0  0  0  0  0  0  0  0  0  0
    4.1577   -6.3247   23.9844 N   0  0  0  0  0  0  0  0  0  0  0  0
    9.8757   -4.6400   25.8943 N   0  0  0  0  0  0  0  0  0  0  0  0
    7.1688   -4.1747   23.8877 N   0  0  0  0  0  0  0  0  0  0  0  0
    9.2792   -3.2633   23.3616 N   0  0  0  0  0  0  0  0  0  0  0  0
    9.0385   -5.4434   28.5073 N   0  3  0  0  0  0  0  0  0  0  0  0
    7.2803   -2.1778   22.7051 O   0  0  0  0  0  0  0  0  0  0  0  0
   13.8109   -1.1012   22.0941 Cl  0  0  0  0  0  0  0  0  0  0  0  0
   10.0633    1.2369   24.1155 H   0  0  0  0  0  0  0  0  0  0  0  0
    3.3425   -4.3580   21.3452 H   0  0  0  0  0  0  0  0  0  0  0  0
    8.6344   -0.7769   24.2004 H   0  0  0  0  0  0  0  0  0  0  0  0
    5.5549   -3.3685   21.8918 H   0  0  0  0  0  0  0  0  0  0  0  0
   12.3470    1.1076   23.1893 H   0  0  0  0  0  0  0  0  0  0  0  0
   11.7912   -3.0947   22.4151 H   0  0  0  0  0  0  0  0  0  0  0  0
    2.5139   -6.2601   22.7404 H   0  0  0  0  0  0  0  0  0  0  0  0
    5.8827   -6.2111   25.0989 H   0  0  0  0  0  0  0  0  0  0  0  0
    9.8074   -6.7181   26.2504 H   0  0  0  0  0  0  0  0  0  0  0  0
    8.5153   -6.1218   25.2040 H   0  0  0  0  0  0  0  0  0  0  0  0
   11.2764   -3.4123   26.9214 H   0  0  0  0  0  0  0  0  0  0  0  0
   11.4127   -5.1429   27.2486 H   0  0  0  0  0  0  0  0  0  0  0  0
    7.4692   -4.9843   27.2021 H   0  0  0  0  0  0  0  0  0  0  0  0
    7.6953   -6.7256   27.5297 H   0  0  0  0  0  0  0  0  0  0  0  0
   10.4274   -4.0456   29.2291 H   0  0  0  0  0  0  0  0  0  0  0  0
    9.1131   -3.3718   28.2248 H   0  0  0  0  0  0  0  0  0  0  0  0
   11.4989   -3.9792   24.7889 H   0  0  0  0  0  0  0  0  0  0  0  0
   11.1792   -5.7259   24.7122 H   0  0  0  0  0  0  0  0  0  0  0  0
   10.5667   -4.6307   22.5485 H   0  0  0  0  0  0  0  0  0  0  0  0
    9.1246   -5.3096   23.3328 H   0  0  0  0  0  0  0  0  0  0  0  0
    7.6407   -4.6070   24.6770 H   0  0  0  0  0  0  0  0  0  0  0  0
    8.4310   -5.3478   29.3332 H   0  0  0  0  0  0  0  0  0  0  0  0
    9.6747   -6.2248   28.7168 H   0  0  0  0  0  0  0  0  0  0  0  0
  1  3  2  0  0  0  0
  1  5  1  0  0  0  0
  2  4  2  0  0  0  0
  2  7  1  0  0  0  0
  3  9  1  0  0  0  0
  4 10  1  0  0  0  0
  5 11  2  0  0  0  0
  6  9  2  0  0  0  0
  6 11  1  0  0  0  0
  7 19  2  0  0  0  0
  8 10  2  0  0  0  0
  8 19  1  0  0  0  0
  9 22  1  0  0  0  0
 10 21  1  0  0  0  0
 11 25  1  0  0  0  0
 12 21  1  0  0  0  0
 12 22  1  0  0  0  0
 12 24  2  0  0  0  0
 13 15  1  0  0  0  0
 13 20  1  0  0  0  0
 14 16  1  0  0  0  0
 14 20  1  0  0  0  0
 15 23  1  0  0  0  0
 16 23  1  0  0  0  0
 17 18  1  0  0  0  0
 17 20  1  0  0  0  0
 18 22  1  0  0  0  0
  1 26  1  0  0  0  0
  2 27  1  0  0  0  0
  3 28  1  0  0  0  0
  4 29  1  0  0  0  0
  5 30  1  0  0  0  0
  6 31  1  0  0  0  0
  7 32  1  0  0  0  0
  8 33  1  0  0  0  0
 13 34  1  0  0  0  0
 13 35  1  0  0  0  0
 14 36  1  0  0  0  0
 14 37  1  0  0  0  0
 15 38  1  0  0  0  0
 15 39  1  0  0  0  0
 16 40  1  0  0  0  0
 16 41  1  0  0  0  0
 17 42  1  0  0  0  0
 17 43  1  0  0  0  0
 18 44  1  0  0  0  0
 18 45  1  0  0  0  0
 21 46  1  0  0  0  0
 23 47  1  0  0  0  0
 23 48  1  0  0  0  0
M  CHG  1  23   1
M  END
> <Chemgauss4 Score>
-4.82406616210938

> <Number of Confs>
200

$$$$
DAR-DIA-842-11
  -OEChem-03242005443D

 28 29  0     0  0  0  0  0  0999 V2000
    8.4392   -5.8687   27.6267 C   0  0  0  0  0  0  0  0  0  0  0  0
    8.6436   -5.1571   26.4497 C   0  0  0  0  0  0  0  0  0  0  0  0
    8.2003   -5.1491   28.7864 C   0  0  0  0  0  0  0  0  0  0  0  0
   10.2934   -0.2627   24.1853 C   0  0  0  0  0  0  0  0  0  0  0  0
    8.3569   -3.1419   27.6797 C   0  0  0  0  0  0  0  0  0  0  0  0
   11.6576   -1.4900   22.9739 C   0  0  0  0  0  0  0  0  0  0  0  0
   10.3461   -1.4121   23.3742 C   0  0  0  0  0  0  0  0  0  0  0  0
    8.6034   -3.7674   26.4682 C   0  0  0  0  0  0  0  0  0  0  0  0
    9.0637   -3.5000   24.0061 C   0  0  0  0  0  0  0  0  0  0  0  0
   13.6823   -0.0818   23.4169 C   0  0  0  0  0  0  0  0  0  0  0  0
    9.2197   -2.3491   23.0247 C   0  0  0  0  0  0  0  0  0  0  0  0
    8.1537   -3.7992   28.8434 N   0  0  0  0  0  0  0  0  0  0  0  0
   11.4774    0.3457   24.2950 N   0  0  0  0  0  0  0  0  0  0  0  0
   12.2864   -0.4243   23.5476 N   0  0  0  0  0  0  0  0  0  0  0  0
    8.8046   -3.0278   25.3053 N   0  0  0  0  0  0  0  0  0  0  0  0
    9.1619   -4.6734   23.6615 O   0  0  0  0  0  0  0  0  0  0  0  0
    8.4660   -6.9523   27.6358 H   0  0  0  0  0  0  0  0  0  0  0  0
    8.8332   -5.6951   25.5246 H   0  0  0  0  0  0  0  0  0  0  0  0
    8.0355   -5.6573   29.7308 H   0  0  0  0  0  0  0  0  0  0  0  0
    9.4430    0.1584   24.7028 H   0  0  0  0  0  0  0  0  0  0  0  0
    8.3134   -2.0596   27.7576 H   0  0  0  0  0  0  0  0  0  0  0  0
   12.1843   -2.1963   22.3464 H   0  0  0  0  0  0  0  0  0  0  0  0
   13.7882    0.5776   22.5514 H   0  0  0  0  0  0  0  0  0  0  0  0
   14.0199    0.4235   24.3261 H   0  0  0  0  0  0  0  0  0  0  0  0
   14.2670   -0.9953   23.2767 H   0  0  0  0  0  0  0  0  0  0  0  0
    8.2755   -1.7911   22.9844 H   0  0  0  0  0  0  0  0  0  0  0  0
    9.3832   -2.7610   22.0207 H   0  0  0  0  0  0  0  0  0  0  0  0
    8.7578   -2.0065   25.4100 H   0  0  0  0  0  0  0  0  0  0  0  0
  1  2  2  0  0  0  0
  1  3  1  0  0  0  0
  2  8  1  0  0  0  0
  3 12  2  0  0  0  0
  4  7  1  0  0  0  0
  4 13  2  0  0  0  0
  5  8  2  0  0  0  0
  5 12  1  0  0  0  0
  6  7  2  0  0  0  0
  6 14  1  0  0  0  0
  7 11  1  0  0  0  0
  8 15  1  0  0  0  0
  9 11  1  0  0  0  0
  9 15  1  0  0  0  0
  9 16  2  0  0  0  0
 10 14  1  0  0  0  0
 13 14  1  0  0  0  0
  1 17  1  0  0  0  0
  2 18  1  0  0  0  0
  3 19  1  0  0  0  0
  4 20  1  0  0  0  0
  5 21  1  0  0  0  0
  6 22  1  0  0  0  0
 10 23  1  0  0  0  0
 10 24  1  0  0  0  0
 10 25  1  0  0  0  0
 11 26  1  0  0  0  0
 11 27  1  0  0  0  0
 15 28  1  0  0  0  0
M  END
> <Chemgauss4 Score>
-4.82220315933228

> <Number of Confs>
44

$$$$
GIA-UNK-595-5
  -OEChem-03242005443D

 38 39  0     0  0  0  0  0  0999 V2000
   14.2474   -0.6800   22.2527 C   0  0  0  0  0  0  0  0  0  0  0  0
   13.6945   -1.6725   21.4435 C   0  0  0  0  0  0  0  0  0  0  0  0
   13.5081   -0.1501   23.3102 C   0  0  0  0  0  0  0  0  0  0  0  0
   12.4022   -2.1350   21.6916 C   0  0  0  0  0  0  0  0  0  0  0  0
   12.2158   -0.6126   23.5584 C   0  0  0  0  0  0  0  0  0  0  0  0
   11.6628   -1.6051   22.7491 C   0  0  0  0  0  0  0  0  0  0  0  0
    7.8625   -5.2955   27.3403 C   0  0  0  0  0  0  0  0  0  0  0  0
    9.7734   -4.4744   24.9832 C   0  0  0  0  0  0  0  0  0  0  0  0
    7.6927   -3.1886   24.3955 C   0  0  0  0  0  0  0  0  0  0  0  0
   10.4834   -3.1337   25.2095 C   0  0  0  0  0  0  0  0  0  0  0  0
    8.4766   -1.8944   24.6453 C   0  0  0  0  0  0  0  0  0  0  0  0
    8.2652   -4.3585   25.1949 C   0  0  0  0  0  0  0  0  0  0  0  0
    7.4226   -5.9289   29.7080 C   0  0  0  0  0  0  0  0  0  0  0  0
   10.2716   -2.1023   23.0167 C   0  0  0  0  0  0  0  0  0  0  0  0
    9.9244   -2.0194   24.4334 N   0  0  0  0  0  0  0  0  0  0  0  0
    7.6261   -4.9592   28.6566 N   0  0  0  0  0  0  0  0  0  0  0  0
    7.9306   -6.4357   26.8933 O   0  0  0  0  0  0  0  0  0  0  0  0
    8.0138   -4.1613   26.5850 O   0  0  0  0  0  0  0  0  0  0  0  0
   15.2542   -0.3209   22.0601 H   0  0  0  0  0  0  0  0  0  0  0  0
   14.2704   -2.0860   20.6207 H   0  0  0  0  0  0  0  0  0  0  0  0
   13.9387    0.6218   23.9411 H   0  0  0  0  0  0  0  0  0  0  0  0
   11.9794   -2.9084   21.0558 H   0  0  0  0  0  0  0  0  0  0  0  0
   11.6471   -0.1938   24.3844 H   0  0  0  0  0  0  0  0  0  0  0  0
    9.9784   -4.8407   23.9689 H   0  0  0  0  0  0  0  0  0  0  0  0
   10.1867   -5.2355   25.6602 H   0  0  0  0  0  0  0  0  0  0  0  0
    6.6350   -3.0424   24.6563 H   0  0  0  0  0  0  0  0  0  0  0  0
    7.7018   -3.4305   23.3251 H   0  0  0  0  0  0  0  0  0  0  0  0
   10.4237   -2.8991   26.2921 H   0  0  0  0  0  0  0  0  0  0  0  0
   11.5664   -3.2551   24.9921 H   0  0  0  0  0  0  0  0  0  0  0  0
    8.0578   -1.0870   24.0068 H   0  0  0  0  0  0  0  0  0  0  0  0
    8.2808   -1.5783   25.6904 H   0  0  0  0  0  0  0  0  0  0  0  0
    7.7782   -5.2936   24.8967 H   0  0  0  0  0  0  0  0  0  0  0  0
    6.3510   -6.1634   29.7890 H   0  0  0  0  0  0  0  0  0  0  0  0
    7.9819   -6.8467   29.4734 H   0  0  0  0  0  0  0  0  0  0  0  0
    7.7805   -5.5153   30.6624 H   0  0  0  0  0  0  0  0  0  0  0  0
    9.5370   -1.5155   22.4545 H   0  0  0  0  0  0  0  0  0  0  0  0
   10.1608   -3.1464   22.7054 H   0  0  0  0  0  0  0  0  0  0  0  0
    7.5931   -3.9742   28.9007 H   0  0  0  0  0  0  0  0  0  0  0  0
  1  2  1  0  0  0  0
  1  3  2  0  0  0  0
  2  4  2  0  0  0  0
  3  5  1  0  0  0  0
  4  6  1  0  0  0  0
  5  6  2  0  0  0  0
  6 14  1  0  0  0  0
  7 16  1  0  0  0  0
  7 17  2  0  0  0  0
  7 18  1  0  0  0  0
  8 10  1  0  0  0  0
  8 12  1  0  0  0  0
  9 11  1  0  0  0  0
  9 12  1  0  0  0  0
 10 15  1  0  0  0  0
 11 15  1  0  0  0  0
 12 18  1  0  0  0  0
 13 16  1  0  0  0  0
 14 15  1  0  0  0  0
  1 19  1  0  0  0  0
  2 20  1  0  0  0  0
  3 21  1  0  0  0  0
  4 22  1  0  0  0  0
  5 23  1  0  0  0  0
  8 24  1  0  0  0  0
  8 25  1  0  0  0  0
  9 26  1  0  0  0  0
  9 27  1  0  0  0  0
 10 28  1  0  0  0  0
 10 29  1  0  0  0  0
 11 30  1  0  0  0  0
 11 31  1  0  0  0  0
 12 32  1  0  0  0  0
 13 33  1  0  0  0  0
 13 34  1  0  0  0  0
 13 35  1  0  0  0  0
 14 36  1  0  0  0  0
 14 37  1  0  0  0  0
 16 38  1  0  0  0  0
M  END
> <Chemgauss4 Score>
-4.82066011428833

> <Number of Confs>
90

$$$$
KIM-UNI-60f-6
  -OEChem-03242005443D

 36 37  0     0  0  0  0  0  0999 V2000
   12.7294   -1.2100   22.0947 C   0  0  0  0  0  0  0  0  0  0  0  0
   13.4316   -0.2833   22.8483 C   0  0  0  0  0  0  0  0  0  0  0  0
   11.7746   -0.1860   24.4367 C   0  0  0  0  0  0  0  0  0  0  0  0
   11.4885   -1.6251   22.5649 C   0  0  0  0  0  0  0  0  0  0  0  0
   10.9947   -1.1081   23.7575 C   0  0  0  0  0  0  0  0  0  0  0  0
    8.7244   -0.5063   24.4775 C   0  0  0  0  0  0  0  0  0  0  0  0
    9.5201   -2.8919   24.6126 C   0  0  0  0  0  0  0  0  0  0  0  0
    8.0806   -4.3754   27.6362 C   0  0  0  0  0  0  0  0  0  0  0  0
    7.5173   -0.9778   25.2441 C   0  0  0  0  0  0  0  0  0  0  0  0
    7.0964   -2.3188   24.7006 C   0  0  0  0  0  0  0  0  0  0  0  0
   10.7096   -2.6230   21.7723 C   0  0  0  0  0  0  0  0  0  0  0  0
    8.4695   -5.1702   26.4028 C   0  0  0  0  0  0  0  0  0  0  0  0
    7.8302   -4.6501   25.1227 C   0  0  0  0  0  0  0  0  0  0  0  0
   12.9846    0.2413   24.0113 N   0  0  0  0  0  0  0  0  0  0  0  0
    9.7082   -1.5084   24.2899 N   0  0  0  0  0  0  0  0  0  0  0  0
    8.1865   -3.2646   24.8527 N   0  0  0  0  0  0  0  0  0  0  0  0
    8.6716   -4.8652   28.7815 N   0  0  0  0  0  0  0  0  0  0  0  0
    8.7749    0.6557   24.0737 O   0  0  0  0  0  0  0  0  0  0  0  0
   10.4502   -3.6975   24.7252 O   0  0  0  0  0  0  0  0  0  0  0  0
    7.3345   -3.4008   27.6188 O   0  0  0  0  0  0  0  0  0  0  0  0
   13.1428   -1.5938   21.1682 H   0  0  0  0  0  0  0  0  0  0  0  0
   14.4042    0.0730   22.5249 H   0  0  0  0  0  0  0  0  0  0  0  0
   11.4438    0.2531   25.3732 H   0  0  0  0  0  0  0  0  0  0  0  0
    7.7646   -1.0286   26.3101 H   0  0  0  0  0  0  0  0  0  0  0  0
    6.7083   -0.2514   25.1132 H   0  0  0  0  0  0  0  0  0  0  0  0
    6.2183   -2.6829   25.2448 H   0  0  0  0  0  0  0  0  0  0  0  0
    6.8496   -2.2643   23.6341 H   0  0  0  0  0  0  0  0  0  0  0  0
   10.9636   -3.6412   22.0889 H   0  0  0  0  0  0  0  0  0  0  0  0
    9.6302   -2.4758   21.9009 H   0  0  0  0  0  0  0  0  0  0  0  0
   10.9193   -2.5276   20.6996 H   0  0  0  0  0  0  0  0  0  0  0  0
    8.2010   -6.2213   26.5642 H   0  0  0  0  0  0  0  0  0  0  0  0
    9.5604   -5.1123   26.3070 H   0  0  0  0  0  0  0  0  0  0  0  0
    8.1308   -5.2444   24.2538 H   0  0  0  0  0  0  0  0  0  0  0  0
    6.7395   -4.6869   25.2045 H   0  0  0  0  0  0  0  0  0  0  0  0
    9.2834   -5.6713   28.7100 H   0  0  0  0  0  0  0  0  0  0  0  0
    8.5163   -4.4479   29.6937 H   0  0  0  0  0  0  0  0  0  0  0  0
  1  2  2  0  0  0  0
  1  4  1  0  0  0  0
  2 14  1  0  0  0  0
  3  5  1  0  0  0  0
  3 14  2  0  0  0  0
  4  5  2  0  0  0  0
  4 11  1  0  0  0  0
  5 15  1  0  0  0  0
  6  9  1  0  0  0  0
  6 15  1  0  0  0  0
  6 18  2  0  0  0  0
  7 15  1  0  0  0  0
  7 16  1  0  0  0  0
  7 19  2  0  0  0  0
  8 12  1  0  0  0  0
  8 17  1  0  0  0  0
  8 20  2  0  0  0  0
  9 10  1  0  0  0  0
 10 16  1  0  0  0  0
 12 13  1  0  0  0  0
 13 16  1  0  0  0  0
  1 21  1  0  0  0  0
  2 22  1  0  0  0  0
  3 23  1  0  0  0  0
  9 24  1  0  0  0  0
  9 25  1  0  0  0  0
 10 26  1  0  0  0  0
 10 27  1  0  0  0  0
 11 28  1  0  0  0  0
 11 29  1  0  0  0  0
 11 30  1  0  0  0  0
 12 31  1  0  0  0  0
 12 32  1  0  0  0  0
 13 33  1  0  0  0  0
 13 34  1  0  0  0  0
 17 35  1  0  0  0  0
 17 36  1  0  0  0  0
M  END
> <Chemgauss4 Score>
-4.81918621063232

> <Number of Confs>
123

$$$$
CHR-SOS-709-15
  -OEChem-03242005443D

 40 42  0     0  0  0  0  0  0999 V2000
    8.7586   -6.4477   28.2967 C   0  0  0  0  0  0  0  0  0  0  0  0
    8.1561   -4.2807   22.7227 C   0  0  0  0  0  0  0  0  0  0  0  0
    7.3225   -2.4804   24.1014 C   0  0  0  0  0  0  0  0  0  0  0  0
   10.0647   -2.0060   21.9537 C   0  0  0  0  0  0  0  0  0  0  0  0
    9.1955   -5.8348   27.1276 C   0  0  0  0  0  0  0  0  0  0  0  0
    6.9330   -4.9400   22.8440 C   0  0  0  0  0  0  0  0  0  0  0  0
    6.0993   -3.1396   24.2227 C   0  0  0  0  0  0  0  0  0  0  0  0
   11.2835   -1.3448   21.8029 C   0  0  0  0  0  0  0  0  0  0  0  0
   11.6120   -1.4046   24.1957 C   0  0  0  0  0  0  0  0  0  0  0  0
    8.4728   -5.6393   29.3850 C   0  0  0  0  0  0  0  0  0  0  0  0
    9.0197   -3.7326   28.2259 C   0  0  0  0  0  0  0  0  0  0  0  0
    8.3510   -3.0509   23.3514 C   0  0  0  0  0  0  0  0  0  0  0  0
    9.6194   -2.3664   23.2255 C   0  0  0  0  0  0  0  0  0  0  0  0
   10.3931   -2.0658   24.3465 C   0  0  0  0  0  0  0  0  0  0  0  0
    9.3313   -4.4517   27.0832 C   0  0  0  0  0  0  0  0  0  0  0  0
    5.9045   -4.3695   23.5940 C   0  0  0  0  0  0  0  0  0  0  0  0
   12.0572   -1.0441   22.9239 C   0  0  0  0  0  0  0  0  0  0  0  0
    9.9647   -2.4258   25.6936 C   0  0  0  0  0  0  0  0  0  0  0  0
    8.5925   -4.2927   29.3797 N   0  0  0  0  0  0  0  0  0  0  0  0
    4.6474   -6.1386   25.1415 N   0  0  0  0  0  0  0  0  0  0  0  0
    9.7748   -3.7983   25.9058 N   0  0  0  0  0  0  0  0  0  0  0  0
    9.7567   -1.5661   26.5577 O   0  0  0  0  0  0  0  0  0  0  0  0
    3.3457   -4.2054   24.0397 O   0  0  0  0  0  0  0  0  0  0  0  0
    4.2131   -6.0844   22.6028 O   0  0  0  0  0  0  0  0  0  0  0  0
    4.3729   -5.1944   23.7442 S   0  0  0  0  0  0  0  0  0  0  0  0
   13.5618   -0.2288   22.7379 Cl  0  0  0  0  0  0  0  0  0  0  0  0
    8.6454   -7.5243   28.3540 H   0  0  0  0  0  0  0  0  0  0  0  0
    8.9482   -4.7385   22.1350 H   0  0  0  0  0  0  0  0  0  0  0  0
    7.4586   -1.5224   24.5978 H   0  0  0  0  0  0  0  0  0  0  0  0
    9.4740   -2.2329   21.0692 H   0  0  0  0  0  0  0  0  0  0  0  0
    9.4272   -6.4438   26.2578 H   0  0  0  0  0  0  0  0  0  0  0  0
    6.7915   -5.8978   22.3505 H   0  0  0  0  0  0  0  0  0  0  0  0
    5.3047   -2.6870   24.8094 H   0  0  0  0  0  0  0  0  0  0  0  0
   11.6177   -1.0696   20.8059 H   0  0  0  0  0  0  0  0  0  0  0  0
   12.2150   -1.1710   25.0709 H   0  0  0  0  0  0  0  0  0  0  0  0
    8.1295   -6.0689   30.3204 H   0  0  0  0  0  0  0  0  0  0  0  0
    9.1055   -2.6504   28.2527 H   0  0  0  0  0  0  0  0  0  0  0  0
    4.1627   -5.8709   26.0069 H   0  0  0  0  0  0  0  0  0  0  0  0
    4.7568   -7.1532   25.0238 H   0  0  0  0  0  0  0  0  0  0  0  0
    9.9815   -4.4024   25.1142 H   0  0  0  0  0  0  0  0  0  0  0  0
  1  5  2  0  0  0  0
  1 10  1  0  0  0  0
  2  6  2  0  0  0  0
  2 12  1  0  0  0  0
  3  7  1  0  0  0  0
  3 12  2  0  0  0  0
  4  8  2  0  0  0  0
  4 13  1  0  0  0  0
  5 15  1  0  0  0  0
  6 16  1  0  0  0  0
  7 16  2  0  0  0  0
  8 17  1  0  0  0  0
  9 14  1  0  0  0  0
  9 17  2  0  0  0  0
 10 19  2  0  0  0  0
 11 15  2  0  0  0  0
 11 19  1  0  0  0  0
 12 13  1  0  0  0  0
 13 14  2  0  0  0  0
 14 18  1  0  0  0  0
 15 21  1  0  0  0  0
 16 25  1  0  0  0  0
 17 26  1  0  0  0  0
 18 21  1  0  0  0  0
 18 22  2  0  0  0  0
 20 25  1  0  0  0  0
 23 25  2  0  0  0  0
 24 25  2  0  0  0  0
  1 27  1  0  0  0  0
  2 28  1  0  0  0  0
  3 29  1  0  0  0  0
  4 30  1  0  0  0  0
  5 31  1  0  0  0  0
  6 32  1  0  0  0  0
  7 33  1  0  0  0  0
  8 34  1  0  0  0  0
  9 35  1  0  0  0  0
 10 36  1  0  0  0  0
 11 37  1  0  0  0  0
 20 38  1  0  0  0  0
 20 39  1  0  0  0  0
 21 40  1  0  0  0  0
M  END
> <Chemgauss4 Score>
-4.81668329238892

> <Number of Confs>
76

$$$$
PAT-GYR-359-1
  -OEChem-03242005443D

 34 35  0     0  0  0  0  0  0999 V2000
   14.2362   -0.5864   22.1357 C   0  0  0  0  0  0  0  0  0  0  0  0
   13.1719   -1.0942   22.3621 C   0  0  0  0  0  0  0  0  0  0  0  0
   10.7431   -1.1565   22.0840 C   0  0  0  0  0  0  0  0  0  0  0  0
   11.8324   -2.8313   23.4425 C   0  0  0  0  0  0  0  0  0  0  0  0
    9.5072   -1.7473   22.3466 C   0  0  0  0  0  0  0  0  0  0  0  0
   10.5964   -3.4221   23.7051 C   0  0  0  0  0  0  0  0  0  0  0  0
   11.9057   -1.6985   22.6319 C   0  0  0  0  0  0  0  0  0  0  0  0
    9.4338   -2.8801   23.1572 C   0  0  0  0  0  0  0  0  0  0  0  0
    7.5932   -4.7292   25.5449 C   0  0  0  0  0  0  0  0  0  0  0  0
    7.0630   -5.7929   27.7158 C   0  0  0  0  0  0  0  0  0  0  0  0
    7.0781   -3.3289   27.6291 C   0  0  0  0  0  0  0  0  0  0  0  0
    7.7572   -5.6993   29.0654 C   0  0  0  0  0  0  0  0  0  0  0  0
    7.7512   -3.3493   28.9973 C   0  0  0  0  0  0  0  0  0  0  0  0
    8.1033   -3.5151   23.4411 C   0  0  0  0  0  0  0  0  0  0  0  0
    7.3091   -4.5921   26.9141 N   0  0  0  0  0  0  0  0  0  0  0  0
    7.8071   -3.5411   24.8560 N   0  0  0  0  0  0  0  0  0  0  0  0
    7.6458   -5.8264   24.9793 O   0  0  0  0  0  0  0  0  0  0  0  0
    7.3567   -4.5044   29.7386 O   0  0  0  0  0  0  0  0  0  0  0  0
   15.1802   -0.1360   21.9353 H   0  0  0  0  0  0  0  0  0  0  0  0
   10.7843   -0.2749   21.4487 H   0  0  0  0  0  0  0  0  0  0  0  0
   12.7294   -3.2649   23.8784 H   0  0  0  0  0  0  0  0  0  0  0  0
    8.6067   -1.3186   21.9148 H   0  0  0  0  0  0  0  0  0  0  0  0
   10.5486   -4.3034   24.3393 H   0  0  0  0  0  0  0  0  0  0  0  0
    7.3800   -6.6965   27.1868 H   0  0  0  0  0  0  0  0  0  0  0  0
    5.9768   -5.8495   27.8557 H   0  0  0  0  0  0  0  0  0  0  0  0
    5.9921   -3.2323   27.7412 H   0  0  0  0  0  0  0  0  0  0  0  0
    7.4466   -2.4659   27.0728 H   0  0  0  0  0  0  0  0  0  0  0  0
    7.4662   -6.5472   29.6935 H   0  0  0  0  0  0  0  0  0  0  0  0
    8.8485   -5.7207   28.9620 H   0  0  0  0  0  0  0  0  0  0  0  0
    8.8438   -3.3260   28.9056 H   0  0  0  0  0  0  0  0  0  0  0  0
    7.4495   -2.4676   29.5716 H   0  0  0  0  0  0  0  0  0  0  0  0
    7.2988   -2.9673   22.9382 H   0  0  0  0  0  0  0  0  0  0  0  0
    8.0736   -4.5463   23.0739 H   0  0  0  0  0  0  0  0  0  0  0  0
    7.7539   -2.6661   25.3611 H   0  0  0  0  0  0  0  0  0  0  0  0
  1  2  3  0  0  0  0
  2  7  1  0  0  0  0
  3  5  2  0  0  0  0
  3  7  1  0  0  0  0
  4  6  1  0  0  0  0
  4  7  2  0  0  0  0
  5  8  1  0  0  0  0
  6  8  2  0  0  0  0
  8 14  1  0  0  0  0
  9 15  1  0  0  0  0
  9 16  1  0  0  0  0
  9 17  2  0  0  0  0
 10 12  1  0  0  0  0
 10 15  1  0  0  0  0
 11 13  1  0  0  0  0
 11 15  1  0  0  0  0
 12 18  1  0  0  0  0
 13 18  1  0  0  0  0
 14 16  1  0  0  0  0
  1 19  1  0  0  0  0
  3 20  1  0  0  0  0
  4 21  1  0  0  0  0
  5 22  1  0  0  0  0
  6 23  1  0  0  0  0
 10 24  1  0  0  0  0
 10 25  1  0  0  0  0
 11 26  1  0  0  0  0
 11 27  1  0  0  0  0
 12 28  1  0  0  0  0
 12 29  1  0  0  0  0
 13 30  1  0  0  0  0
 13 31  1  0  0  0  0
 14 32  1  0  0  0  0
 14 33  1  0  0  0  0
 16 34  1  0  0  0  0
M  END
> <Chemgauss4 Score>
-4.81664085388184

> <Number of Confs>
33

$$$$
TRY-UNI-1fd-6
  -OEChem-03242005443D

 36 38  0     0  0  0  0  0  0999 V2000
   13.1085   -1.2752   22.2415 C   0  0  0  0  0  0  0  0  0  0  0  0
   10.8532    0.7486   24.4034 C   0  0  0  0  0  0  0  0  0  0  0  0
   10.0846   -4.9331   25.9180 C   0  0  0  0  0  0  0  0  0  0  0  0
   12.0123    0.2101   23.8448 C   0  0  0  0  0  0  0  0  0  0  0  0
    8.9368   -4.2975   25.4478 C   0  0  0  0  0  0  0  0  0  0  0  0
    9.6021    0.3530   23.9300 C   0  0  0  0  0  0  0  0  0  0  0  0
   10.6694   -1.1193   22.3394 C   0  0  0  0  0  0  0  0  0  0  0  0
   10.3335   -4.9374   27.2839 C   0  0  0  0  0  0  0  0  0  0  0  0
    6.5351   -2.6321   27.6384 C   0  0  0  0  0  0  0  0  0  0  0  0
   11.9205   -0.7238   22.8128 C   0  0  0  0  0  0  0  0  0  0  0  0
    8.0898   -3.6922   26.3902 C   0  0  0  0  0  0  0  0  0  0  0  0
    9.5102   -0.5809   22.8980 C   0  0  0  0  0  0  0  0  0  0  0  0
    6.8691   -2.9682   26.3441 C   0  0  0  0  0  0  0  0  0  0  0  0
    8.4607   -3.7721   27.7293 C   0  0  0  0  0  0  0  0  0  0  0  0
    6.6688   -1.4769   24.3160 C   0  0  0  0  0  0  0  0  0  0  0  0
    6.0911   -2.6306   25.1353 C   0  0  0  0  0  0  0  0  0  0  0  0
    8.1635   -1.0064   22.3887 C   0  0  0  0  0  0  0  0  0  0  0  0
   14.0733   -1.7231   21.7775 N   0  0  0  0  0  0  0  0  0  0  0  0
    9.5549   -4.3718   28.2354 N   0  0  0  0  0  0  0  0  0  0  0  0
    7.5074   -3.1243   28.4700 N   0  0  0  0  0  0  0  0  0  0  0  0
    7.5040   -1.9142   23.2977 N   0  0  0  0  0  0  0  0  0  0  0  0
    6.4032   -0.3012   24.5530 O   0  0  0  0  0  0  0  0  0  0  0  0
   10.9243    1.4766   25.2062 H   0  0  0  0  0  0  0  0  0  0  0  0
   10.7698   -5.4148   25.2287 H   0  0  0  0  0  0  0  0  0  0  0  0
   12.9804    0.5280   24.2247 H   0  0  0  0  0  0  0  0  0  0  0  0
    8.7124   -4.2766   24.3863 H   0  0  0  0  0  0  0  0  0  0  0  0
    8.7046    0.7777   24.3721 H   0  0  0  0  0  0  0  0  0  0  0  0
   10.5913   -1.8466   21.5339 H   0  0  0  0  0  0  0  0  0  0  0  0
   11.2232   -5.4290   27.6686 H   0  0  0  0  0  0  0  0  0  0  0  0
    5.6933   -2.0877   28.0434 H   0  0  0  0  0  0  0  0  0  0  0  0
    6.0052   -3.5055   24.4616 H   0  0  0  0  0  0  0  0  0  0  0  0
    5.0485   -2.3607   25.3933 H   0  0  0  0  0  0  0  0  0  0  0  0
    7.5117   -0.1373   22.2479 H   0  0  0  0  0  0  0  0  0  0  0  0
    8.2506   -1.5080   21.4191 H   0  0  0  0  0  0  0  0  0  0  0  0
    7.5205   -3.0239   29.4754 H   0  0  0  0  0  0  0  0  0  0  0  0
    7.6575   -2.9123   23.1875 H   0  0  0  0  0  0  0  0  0  0  0  0
  1 10  1  0  0  0  0
  1 18  3  0  0  0  0
  2  4  2  0  0  0  0
  2  6  1  0  0  0  0
  3  5  2  0  0  0  0
  3  8  1  0  0  0  0
  4 10  1  0  0  0  0
  5 11  1  0  0  0  0
  6 12  2  0  0  0  0
  7 10  2  0  0  0  0
  7 12  1  0  0  0  0
  8 19  2  0  0  0  0
  9 13  2  0  0  0  0
  9 20  1  0  0  0  0
 11 13  1  0  0  0  0
 11 14  2  0  0  0  0
 12 17  1  0  0  0  0
 13 16  1  0  0  0  0
 14 19  1  0  0  0  0
 14 20  1  0  0  0  0
 15 16  1  0  0  0  0
 15 21  1  0  0  0  0
 15 22  2  0  0  0  0
 17 21  1  0  0  0  0
  2 23  1  0  0  0  0
  3 24  1  0  0  0  0
  4 25  1  0  0  0  0
  5 26  1  0  0  0  0
  6 27  1  0  0  0  0
  7 28  1  0  0  0  0
  8 29  1  0  0  0  0
  9 30  1  0  0  0  0
 16 31  1  0  0  0  0
 16 32  1  0  0  0  0
 17 33  1  0  0  0  0
 17 34  1  0  0  0  0
 20 35  1  0  0  0  0
 21 36  1  0  0  0  0
M  END
> <Chemgauss4 Score>
-4.81508636474609

> <Number of Confs>
200

$$$$
CHR-SOS-70e-4
  -OEChem-03242005443D

 47 49  0     0  0  0  0  0  0999 V2000
    7.1640   -3.6916   24.5205 C   0  0  0  0  0  0  0  0  0  0  0  0
    5.6904    1.3349   19.4458 C   0  0  0  0  0  0  0  0  0  0  0  0
    6.7099    0.7274   20.1702 C   0  0  0  0  0  0  0  0  0  0  0  0
    7.8543   -2.5479   24.1192 C   0  0  0  0  0  0  0  0  0  0  0  0
    7.6673   -4.4841   25.5522 C   0  0  0  0  0  0  0  0  0  0  0  0
    9.5516   -2.9894   25.7810 C   0  0  0  0  0  0  0  0  0  0  0  0
    5.2604    0.7131   18.2846 C   0  0  0  0  0  0  0  0  0  0  0  0
    6.7603   -1.0077   18.5444 C   0  0  0  0  0  0  0  0  0  0  0  0
    7.2606   -0.4665   19.7176 C   0  0  0  0  0  0  0  0  0  0  0  0
    9.0481   -2.1968   24.7495 C   0  0  0  0  0  0  0  0  0  0  0  0
    8.8612   -4.1330   26.1824 C   0  0  0  0  0  0  0  0  0  0  0  0
    8.8994   -0.6885   21.6169 C   0  0  0  0  0  0  0  0  0  0  0  0
   12.9935   -1.8639   22.9238 C   0  0  0  0  0  0  0  0  0  0  0  0
   12.8141   -0.3949   22.5355 C   0  0  0  0  0  0  0  0  0  0  0  0
   11.7722   -2.2321   23.7598 C   0  0  0  0  0  0  0  0  0  0  0  0
   11.4874    0.0460   23.1462 C   0  0  0  0  0  0  0  0  0  0  0  0
   10.6902   -1.2443   23.3263 C   0  0  0  0  0  0  0  0  0  0  0  0
    9.9755   -1.6735   22.0456 C   0  0  0  0  0  0  0  0  0  0  0  0
    5.7709   -0.4467   17.8136 N   0  0  0  0  0  0  0  0  0  0  0  0
   10.4643   -6.2211   26.6003 N   0  0  0  0  0  0  0  0  0  0  0  0
    8.2995   -1.1082   20.4330 N   0  0  0  0  0  0  0  0  0  0  0  0
    8.6414    0.3191   22.2671 O   0  0  0  0  0  0  0  0  0  0  0  0
   10.3479   -4.2971   28.3121 O   0  0  0  0  0  0  0  0  0  0  0  0
    8.3838   -5.8572   28.0754 O   0  0  0  0  0  0  0  0  0  0  0  0
    9.7259   -1.0757   24.3552 O   0  0  0  0  0  0  0  0  0  0  0  0
    9.4898   -5.1241   27.4756 S   0  0  0  0  0  0  0  0  0  0  0  0
    6.2347   -3.9650   24.0296 H   0  0  0  0  0  0  0  0  0  0  0  0
    5.2463    2.2657   19.7798 H   0  0  0  0  0  0  0  0  0  0  0  0
    7.0675    1.1924   21.0851 H   0  0  0  0  0  0  0  0  0  0  0  0
    7.4572   -1.9348   23.3150 H   0  0  0  0  0  0  0  0  0  0  0  0
    7.1210   -5.3723   25.8578 H   0  0  0  0  0  0  0  0  0  0  0  0
   10.4828   -2.7116   26.2689 H   0  0  0  0  0  0  0  0  0  0  0  0
    4.4684    1.1472   17.6834 H   0  0  0  0  0  0  0  0  0  0  0  0
    7.1494   -1.9377   18.1408 H   0  0  0  0  0  0  0  0  0  0  0  0
   13.0844   -2.5088   22.0440 H   0  0  0  0  0  0  0  0  0  0  0  0
   13.9109   -1.9818   23.5121 H   0  0  0  0  0  0  0  0  0  0  0  0
   13.6409    0.1995   22.9408 H   0  0  0  0  0  0  0  0  0  0  0  0
   12.8157   -0.2597   21.4493 H   0  0  0  0  0  0  0  0  0  0  0  0
   11.4726   -3.2656   23.5336 H   0  0  0  0  0  0  0  0  0  0  0  0
   11.9996   -2.1696   24.8321 H   0  0  0  0  0  0  0  0  0  0  0  0
   11.6509    0.5814   24.0903 H   0  0  0  0  0  0  0  0  0  0  0  0
   10.9753    0.7276   22.4523 H   0  0  0  0  0  0  0  0  0  0  0  0
    9.5105   -2.6531   22.2001 H   0  0  0  0  0  0  0  0  0  0  0  0
   10.7066   -1.7666   21.2353 H   0  0  0  0  0  0  0  0  0  0  0  0
   11.4844   -6.1284   26.6794 H   0  0  0  0  0  0  0  0  0  0  0  0
   10.1409   -7.1925   26.5170 H   0  0  0  0  0  0  0  0  0  0  0  0
    8.6376   -1.9765   20.0234 H   0  0  0  0  0  0  0  0  0  0  0  0
  1  4  1  0  0  0  0
  1  5  2  0  0  0  0
  2  3  2  0  0  0  0
  2  7  1  0  0  0  0
  3  9  1  0  0  0  0
  4 10  2  0  0  0  0
  5 11  1  0  0  0  0
  6 10  1  0  0  0  0
  6 11  2  0  0  0  0
  7 19  2  0  0  0  0
  8  9  2  0  0  0  0
  8 19  1  0  0  0  0
  9 21  1  0  0  0  0
 10 25  1  0  0  0  0
 11 26  1  0  0  0  0
 12 18  1  0  0  0  0
 12 21  1  0  0  0  0
 12 22  2  0  0  0  0
 13 14  1  0  0  0  0
 13 15  1  0  0  0  0
 14 16  1  0  0  0  0
 15 17  1  0  0  0  0
 16 17  1  0  0  0  0
 17 18  1  0  0  0  0
 17 25  1  0  0  0  0
 20 26  1  0  0  0  0
 23 26  2  0  0  0  0
 24 26  2  0  0  0  0
  1 27  1  0  0  0  0
  2 28  1  0  0  0  0
  3 29  1  0  0  0  0
  4 30  1  0  0  0  0
  5 31  1  0  0  0  0
  6 32  1  0  0  0  0
  7 33  1  0  0  0  0
  8 34  1  0  0  0  0
 13 35  1  0  0  0  0
 13 36  1  0  0  0  0
 14 37  1  0  0  0  0
 14 38  1  0  0  0  0
 15 39  1  0  0  0  0
 15 40  1  0  0  0  0
 16 41  1  0  0  0  0
 16 42  1  0  0  0  0
 18 43  1  0  0  0  0
 18 44  1  0  0  0  0
 20 45  1  0  0  0  0
 20 46  1  0  0  0  0
 21 47  1  0  0  0  0
M  END
> <Chemgauss4 Score>
-4.814781665802

> <Number of Confs>
200

$$$$
KIM-UNI-60f-9
  -OEChem-03242005443D

 44 46  0     1  0  0  0  0  0999 V2000
   12.8311   -0.7127   22.6738 C   0  0  0  0  0  0  0  0  0  0  0  0
   12.9337    0.1833   23.7257 C   0  0  0  0  0  0  0  0  0  0  0  0
   10.8930   -0.4425   24.5752 C   0  0  0  0  0  0  0  0  0  0  0  0
   11.6871   -1.4992   22.5981 C   0  0  0  0  0  0  0  0  0  0  0  0
   10.6946   -1.3677   23.5630 C   0  0  0  0  0  0  0  0  0  0  0  0
    7.1618   -3.6606   23.2722 C   0  0  0  0  0  0  0  0  0  0  0  0
    7.2021   -2.4650   22.6847 C   0  0  0  0  0  0  0  0  0  0  0  0
    8.2646   -4.1812   24.0595 C   0  0  0  0  0  0  0  0  0  0  0  0
    9.3819   -3.4156   24.1703 C   0  0  0  0  0  0  0  0  0  0  0  0
    8.4175   -1.6257   22.7819 C   0  0  0  0  0  0  0  0  0  0  0  0
    5.6506   -4.3562   25.9493 C   0  0  0  0  0  0  0  0  0  0  0  0
   10.5001   -3.8748   25.0919 C   0  0  0  0  0  0  0  0  0  0  0  0
   10.0333   -4.8894   26.1336 C   0  0  0  0  0  0  0  0  0  0  0  0
    9.2299   -6.0014   25.4796 C   0  0  0  0  0  0  0  0  0  0  0  0
   11.5500   -2.4732   21.4742 C   0  0  0  0  0  0  0  0  0  0  0  0
    6.0380   -5.8236   25.9630 C   0  0  0  0  0  0  0  0  0  0  0  0
    6.8788   -6.1869   24.7464 C   0  0  0  0  0  0  0  0  0  0  0  0
   11.9908    0.3392   24.6818 N   0  0  0  0  0  0  0  0  0  0  0  0
    6.4210   -3.5171   26.5709 N   0  0  0  0  0  0  0  0  0  0  0  0
    9.4904   -2.1600   23.5292 N   0  0  0  0  0  0  0  0  0  0  0  0
    8.1311   -5.4333   24.6912 N   0  0  3  0  0  0  0  0  0  0  0  0
    4.5149   -4.0064   25.2672 N   0  0  0  0  0  0  0  0  0  0  0  0
    8.4167   -0.5553   22.1720 O   0  0  0  0  0  0  0  0  0  0  0  0
   13.6235   -0.7907   21.9372 H   0  0  0  0  0  0  0  0  0  0  0  0
   13.8062    0.8200   23.8298 H   0  0  0  0  0  0  0  0  0  0  0  0
   10.1547   -0.2941   25.3578 H   0  0  0  0  0  0  0  0  0  0  0  0
    6.2549   -4.2457   23.1669 H   0  0  0  0  0  0  0  0  0  0  0  0
    6.3635   -2.0869   22.1114 H   0  0  0  0  0  0  0  0  0  0  0  0
   11.3021   -4.3079   24.4814 H   0  0  0  0  0  0  0  0  0  0  0  0
   10.9275   -3.0257   25.6380 H   0  0  0  0  0  0  0  0  0  0  0  0
   10.9008   -5.3104   26.6547 H   0  0  0  0  0  0  0  0  0  0  0  0
    9.4198   -4.3877   26.8933 H   0  0  0  0  0  0  0  0  0  0  0  0
    9.8705   -6.6010   24.8218 H   0  0  0  0  0  0  0  0  0  0  0  0
    8.8477   -6.6639   26.2650 H   0  0  0  0  0  0  0  0  0  0  0  0
   11.9741   -3.4432   21.7583 H   0  0  0  0  0  0  0  0  0  0  0  0
   10.4974   -2.6181   21.2015 H   0  0  0  0  0  0  0  0  0  0  0  0
   12.0665   -2.1156   20.5748 H   0  0  0  0  0  0  0  0  0  0  0  0
    6.5796   -6.0448   26.8903 H   0  0  0  0  0  0  0  0  0  0  0  0
    5.1188   -6.4209   25.9649 H   0  0  0  0  0  0  0  0  0  0  0  0
    7.1467   -7.2476   24.7761 H   0  0  0  0  0  0  0  0  0  0  0  0
    6.3391   -5.9925   23.8143 H   0  0  0  0  0  0  0  0  0  0  0  0
    6.0323   -2.5734   26.4665 H   0  0  0  0  0  0  0  0  0  0  0  0
    3.9529   -4.7039   24.7914 H   0  0  0  0  0  0  0  0  0  0  0  0
    4.1949   -3.0449   25.2185 H   0  0  0  0  0  0  0  0  0  0  0  0
  1  2  2  0  0  0  0
  1  4  1  0  0  0  0
  2 18  1  0  0  0  0
  3  5  1  0  0  0  0
  3 18  2  0  0  0  0
  4  5  2  0  0  0  0
  4 15  1  0  0  0  0
  5 20  1  0  0  0  0
  6  7  2  0  0  0  0
  6  8  1  0  0  0  0
  7 10  1  0  0  0  0
  8  9  2  0  0  0  0
  8 21  1  0  0  0  0
  9 12  1  0  0  0  0
  9 20  1  0  0  0  0
 10 20  1  0  0  0  0
 10 23  2  0  0  0  0
 11 16  1  0  0  0  0
 11 19  2  0  0  0  0
 11 22  1  0  0  0  0
 12 13  1  0  0  0  0
 13 14  1  0  0  0  0
 14 21  1  0  0  0  0
 16 17  1  0  0  0  0
 17 21  1  1  0  0  0
  1 24  1  0  0  0  0
  2 25  1  0  0  0  0
  3 26  1  0  0  0  0
  6 27  1  0  0  0  0
  7 28  1  0  0  0  0
 12 29  1  0  0  0  0
 12 30  1  0  0  0  0
 13 31  1  0  0  0  0
 13 32  1  0  0  0  0
 14 33  1  0  0  0  0
 14 34  1  0  0  0  0
 15 35  1  0  0  0  0
 15 36  1  0  0  0  0
 15 37  1  0  0  0  0
 16 38  1  0  0  0  0
 16 39  1  0  0  0  0
 17 40  1  0  0  0  0
 17 41  1  0  0  0  0
 19 42  1  0  0  0  0
 22 43  1  0  0  0  0
 22 44  1  0  0  0  0
M  END
> <Chemgauss4 Score>
-4.80645036697388

> <Number of Confs>
20

$$$$
KIM-UNI-60f-9
  -OEChem-03242005443D

 44 46  0     1  0  0  0  0  0999 V2000
   12.8311   -0.7127   22.6738 C   0  0  0  0  0  0  0  0  0  0  0  0
   12.9337    0.1833   23.7257 C   0  0  0  0  0  0  0  0  0  0  0  0
   10.8930   -0.4425   24.5752 C   0  0  0  0  0  0  0  0  0  0  0  0
   11.6871   -1.4992   22.5981 C   0  0  0  0  0  0  0  0  0  0  0  0
   10.6946   -1.3677   23.5630 C   0  0  0  0  0  0  0  0  0  0  0  0
    7.1618   -3.6606   23.2722 C   0  0  0  0  0  0  0  0  0  0  0  0
    7.2021   -2.4650   22.6847 C   0  0  0  0  0  0  0  0  0  0  0  0
    8.2646   -4.1812   24.0595 C   0  0  0  0  0  0  0  0  0  0  0  0
    9.3819   -3.4156   24.1703 C   0  0  0  0  0  0  0  0  0  0  0  0
    8.4175   -1.6257   22.7819 C   0  0  0  0  0  0  0  0  0  0  0  0
    5.6506   -4.3562   25.9493 C   0  0  0  0  0  0  0  0  0  0  0  0
   10.5001   -3.8748   25.0919 C   0  0  0  0  0  0  0  0  0  0  0  0
   10.0333   -4.8894   26.1336 C   0  0  0  0  0  0  0  0  0  0  0  0
    9.2299   -6.0014   25.4796 C   0  0  0  0  0  0  0  0  0  0  0  0
   11.5500   -2.4732   21.4742 C   0  0  0  0  0  0  0  0  0  0  0  0
    6.0380   -5.8236   25.9630 C   0  0  0  0  0  0  0  0  0  0  0  0
    6.8788   -6.1869   24.7464 C   0  0  0  0  0  0  0  0  0  0  0  0
   11.9908    0.3392   24.6818 N   0  0  0  0  0  0  0  0  0  0  0  0
    6.4210   -3.5171   26.5709 N   0  0  0  0  0  0  0  0  0  0  0  0
    9.4904   -2.1600   23.5292 N   0  0  0  0  0  0  0  0  0  0  0  0
    8.1311   -5.4333   24.6912 N   0  0  3  0  0  0  0  0  0  0  0  0
    4.5149   -4.0064   25.2672 N   0  0  0  0  0  0  0  0  0  0  0  0
    8.4167   -0.5553   22.1720 O   0  0  0  0  0  0  0  0  0  0  0  0
   13.6235   -0.7907   21.9372 H   0  0  0  0  0  0  0  0  0  0  0  0
   13.8062    0.8200   23.8298 H   0  0  0  0  0  0  0  0  0  0  0  0
   10.1547   -0.2941   25.3578 H   0  0  0  0  0  0  0  0  0  0  0  0
    6.2549   -4.2457   23.1669 H   0  0  0  0  0  0  0  0  0  0  0  0
    6.3635   -2.0869   22.1114 H   0  0  0  0  0  0  0  0  0  0  0  0
   11.3021   -4.3079   24.4814 H   0  0  0  0  0  0  0  0  0  0  0  0
   10.9275   -3.0257   25.6380 H   0  0  0  0  0  0  0  0  0  0  0  0
   10.9008   -5.3104   26.6547 H   0  0  0  0  0  0  0  0  0  0  0  0
    9.4198   -4.3877   26.8933 H   0  0  0  0  0  0  0  0  0  0  0  0
    9.8705   -6.6010   24.8218 H   0  0  0  0  0  0  0  0  0  0  0  0
    8.8477   -6.6639   26.2650 H   0  0  0  0  0  0  0  0  0  0  0  0
   11.9741   -3.4432   21.7583 H   0  0  0  0  0  0  0  0  0  0  0  0
   10.4974   -2.6181   21.2015 H   0  0  0  0  0  0  0  0  0  0  0  0
   12.0665   -2.1156   20.5748 H   0  0  0  0  0  0  0  0  0  0  0  0
    6.5796   -6.0448   26.8903 H   0  0  0  0  0  0  0  0  0  0  0  0
    5.1188   -6.4209   25.9649 H   0  0  0  0  0  0  0  0  0  0  0  0
    7.1467   -7.2476   24.7761 H   0  0  0  0  0  0  0  0  0  0  0  0
    6.3391   -5.9925   23.8143 H   0  0  0  0  0  0  0  0  0  0  0  0
    7.2040   -4.0341   26.9860 H   0  0  0  0  0  0  0  0  0  0  0  0
    3.9529   -4.7039   24.7914 H   0  0  0  0  0  0  0  0  0  0  0  0
    4.1949   -3.0449   25.2185 H   0  0  0  0  0  0  0  0  0  0  0  0
  1  2  2  0  0  0  0
  1  4  1  0  0  0  0
  2 18  1  0  0  0  0
  3  5  1  0  0  0  0
  3 18  2  0  0  0  0
  4  5  2  0  0  0  0
  4 15  1  0  0  0  0
  5 20  1  0  0  0  0
  6  7  2  0  0  0  0
  6  8  1  0  0  0  0
  7 10  1  0  0  0  0
  8  9  2  0  0  0  0
  8 21  1  0  0  0  0
  9 12  1  0  0  0  0
  9 20  1  0  0  0  0
 10 20  1  0  0  0  0
 10 23  2  0  0  0  0
 11 16  1  0  0  0  0
 11 19  2  0  0  0  0
 11 22  1  0  0  0  0
 12 13  1  0  0  0  0
 13 14  1  0  0  0  0
 14 21  1  0  0  0  0
 16 17  1  0  0  0  0
 17 21  1  1  0  0  0
  1 24  1  0  0  0  0
  2 25  1  0  0  0  0
  3 26  1  0  0  0  0
  6 27  1  0  0  0  0
  7 28  1  0  0  0  0
 12 29  1  0  0  0  0
 12 30  1  0  0  0  0
 13 31  1  0  0  0  0
 13 32  1  0  0  0  0
 14 33  1  0  0  0  0
 14 34  1  0  0  0  0
 15 35  1  0  0  0  0
 15 36  1  0  0  0  0
 15 37  1  0  0  0  0
 16 38  1  0  0  0  0
 16 39  1  0  0  0  0
 17 40  1  0  0  0  0
 17 41  1  0  0  0  0
 19 42  1  0  0  0  0
 22 43  1  0  0  0  0
 22 44  1  0  0  0  0
M  END
> <Chemgauss4 Score>
-4.80645036697388

> <Number of Confs>
18

$$$$
BAR-COM-569-1
  -OEChem-03242005443D

 43 45  0     0  0  0  0  0  0999 V2000
   12.7049   -0.0709   22.7090 C   0  0  0  0  0  0  0  0  0  0  0  0
   12.4080    0.0084   24.0695 C   0  0  0  0  0  0  0  0  0  0  0  0
    6.8712   -6.0202   28.4227 C   0  0  0  0  0  0  0  0  0  0  0  0
   12.1593   -1.0946   21.9345 C   0  0  0  0  0  0  0  0  0  0  0  0
   11.5655   -0.9362   24.6557 C   0  0  0  0  0  0  0  0  0  0  0  0
    7.4718   -5.6227   27.2334 C   0  0  0  0  0  0  0  0  0  0  0  0
    7.1228   -5.2686   29.5592 C   0  0  0  0  0  0  0  0  0  0  0  0
    8.4817   -3.8177   28.4075 C   0  0  0  0  0  0  0  0  0  0  0  0
   11.3168   -2.0392   22.5206 C   0  0  0  0  0  0  0  0  0  0  0  0
    8.2940   -4.5015   27.2171 C   0  0  0  0  0  0  0  0  0  0  0  0
   11.0199   -1.9600   23.8812 C   0  0  0  0  0  0  0  0  0  0  0  0
    9.7704   -2.9711   25.8397 C   0  0  0  0  0  0  0  0  0  0  0  0
    7.1420   -2.1333   22.1391 C   0  0  0  0  0  0  0  0  0  0  0  0
    7.6802   -4.0638   22.7005 C   0  0  0  0  0  0  0  0  0  0  0  0
    6.4221   -3.2127   22.9764 C   0  0  0  0  0  0  0  0  0  0  0  0
   10.7411   -3.1356   21.6583 C   0  0  0  0  0  0  0  0  0  0  0  0
    9.2751   -2.9040   21.3004 C   0  0  0  0  0  0  0  0  0  0  0  0
    7.9154   -4.1737   29.5823 N   0  0  0  0  0  0  0  0  0  0  0  0
    8.4211   -2.7998   22.4782 N   0  0  0  0  0  0  0  0  0  0  0  0
    8.9191   -4.0726   26.0224 N   0  0  0  0  0  0  0  0  0  0  0  0
   10.1783   -2.8967   24.4868 N   0  0  0  0  0  0  0  0  0  0  0  0
   10.1134   -2.1862   26.7181 O   0  0  0  0  0  0  0  0  0  0  0  0
    5.1867   -3.7167   22.4439 O   0  0  0  0  0  0  0  0  0  0  0  0
   13.3613    0.6640   22.2525 H   0  0  0  0  0  0  0  0  0  0  0  0
   12.8336    0.8052   24.6728 H   0  0  0  0  0  0  0  0  0  0  0  0
    6.2266   -6.8910   28.4588 H   0  0  0  0  0  0  0  0  0  0  0  0
   12.3971   -1.1478   20.8754 H   0  0  0  0  0  0  0  0  0  0  0  0
   11.3416   -0.8633   25.7168 H   0  0  0  0  0  0  0  0  0  0  0  0
    7.2926   -6.1932   26.3259 H   0  0  0  0  0  0  0  0  0  0  0  0
    6.6788   -5.5377   30.5120 H   0  0  0  0  0  0  0  0  0  0  0  0
    9.1122   -2.9350   28.4581 H   0  0  0  0  0  0  0  0  0  0  0  0
    6.8607   -2.1332   21.0780 H   0  0  0  0  0  0  0  0  0  0  0  0
    7.0508   -1.1134   22.5242 H   0  0  0  0  0  0  0  0  0  0  0  0
    8.0363   -4.6505   23.5530 H   0  0  0  0  0  0  0  0  0  0  0  0
    7.5841   -4.7296   21.8332 H   0  0  0  0  0  0  0  0  0  0  0  0
    6.3094   -2.9363   24.0328 H   0  0  0  0  0  0  0  0  0  0  0  0
   10.8371   -4.0876   22.1956 H   0  0  0  0  0  0  0  0  0  0  0  0
   11.3404   -3.2427   20.7451 H   0  0  0  0  0  0  0  0  0  0  0  0
    9.1696   -1.9638   20.7500 H   0  0  0  0  0  0  0  0  0  0  0  0
    8.8792   -3.7115   20.6758 H   0  0  0  0  0  0  0  0  0  0  0  0
    8.7284   -4.6308   25.1942 H   0  0  0  0  0  0  0  0  0  0  0  0
    9.8007   -3.6306   23.8796 H   0  0  0  0  0  0  0  0  0  0  0  0
    4.8724   -4.3731   23.0800 H   0  0  0  0  0  0  0  0  0  0  0  0
  1  2  1  0  0  0  0
  1  4  2  0  0  0  0
  2  5  2  0  0  0  0
  3  6  2  0  0  0  0
  3  7  1  0  0  0  0
  4  9  1  0  0  0  0
  5 11  1  0  0  0  0
  6 10  1  0  0  0  0
  7 18  2  0  0  0  0
  8 10  2  0  0  0  0
  8 18  1  0  0  0  0
  9 11  2  0  0  0  0
  9 16  1  0  0  0  0
 10 20  1  0  0  0  0
 11 21  1  0  0  0  0
 12 20  1  0  0  0  0
 12 21  1  0  0  0  0
 12 22  2  0  0  0  0
 13 15  1  0  0  0  0
 13 19  1  0  0  0  0
 14 15  1  0  0  0  0
 14 19  1  0  0  0  0
 15 23  1  0  0  0  0
 16 17  1  0  0  0  0
 17 19  1  0  0  0  0
  1 24  1  0  0  0  0
  2 25  1  0  0  0  0
  3 26  1  0  0  0  0
  4 27  1  0  0  0  0
  5 28  1  0  0  0  0
  6 29  1  0  0  0  0
  7 30  1  0  0  0  0
  8 31  1  0  0  0  0
 13 32  1  0  0  0  0
 13 33  1  0  0  0  0
 14 34  1  0  0  0  0
 14 35  1  0  0  0  0
 15 36  1  0  0  0  0
 16 37  1  0  0  0  0
 16 38  1  0  0  0  0
 17 39  1  0  0  0  0
 17 40  1  0  0  0  0
 20 41  1  0  0  0  0
 21 42  1  0  0  0  0
 23 43  1  0  0  0  0
M  END
> <Chemgauss4 Score>
-4.80053234100342

> <Number of Confs>
140

$$$$
JOH-MEM-5e3-3
  -OEChem-03242005443D

 53 55  0     1  0  0  0  0  0999 V2000
    7.8205   -2.0362   23.7761 C   0  0  0  0  0  0  0  0  0  0  0  0
    7.1285   -1.1728   22.9220 C   0  0  0  0  0  0  0  0  0  0  0  0
    9.1815   -0.5702   21.7735 C   0  0  0  0  0  0  0  0  0  0  0  0
   11.3811   -2.6983   23.7717 C   0  0  0  0  0  0  0  0  0  0  0  0
    9.9004   -1.4345   22.6228 C   0  0  0  0  0  0  0  0  0  0  0  0
   11.2724   -1.7931   22.7414 C   0  0  0  0  0  0  0  0  0  0  0  0
    9.2047   -2.1462   23.6026 C   0  0  0  0  0  0  0  0  0  0  0  0
    7.7965   -0.4501   21.9354 C   0  0  0  0  0  0  0  0  0  0  0  0
    6.8459   -5.8377   25.9143 C   0  0  0  0  0  0  0  0  0  0  0  0
   12.4769    0.5397   24.6994 C   0  0  0  0  0  0  0  0  0  0  0  0
    8.2356   -5.4118   26.2605 C   0  0  2  0  0  0  0  0  0  0  0  0
    8.2944   -4.8521   27.6806 C   0  0  2  0  0  0  0  0  0  0  0  0
    9.6245   -4.1325   27.9174 C   0  0  1  0  0  0  0  0  0  0  0  0
    9.9124   -3.1268   26.8001 C   0  0  1  0  0  0  0  0  0  0  0  0
    9.8227   -3.8366   25.4407 C   0  0  2  0  0  0  0  0  0  0  0  0
   13.1733    0.5865   26.0190 C   0  0  0  0  0  0  0  0  0  0  0  0
    7.8341    1.0948   20.1278 C   0  0  0  0  0  0  0  0  0  0  0  0
   12.3875   -1.2888   21.9146 C   0  0  0  0  0  0  0  0  0  0  0  0
   12.8380    0.1392   22.2722 C   0  0  0  0  0  0  0  0  0  0  0  0
   10.1287   -2.9052   24.2848 N   0  0  0  0  0  0  0  0  0  0  0  0
   13.3037    0.2369   23.6296 N   0  0  0  0  0  0  0  0  0  0  0  0
    6.1612   -5.3464   25.0294 O   0  0  0  0  0  0  0  0  0  0  0  0
   11.2727    0.7599   24.6437 O   0  0  0  0  0  0  0  0  0  0  0  0
    8.5221   -4.4190   25.2784 O   0  0  0  0  0  0  0  0  0  0  0  0
    6.4402   -6.8488   26.7207 O   0  0  0  0  0  0  0  0  0  0  0  0
    8.1790   -5.9363   28.6009 O   0  0  0  0  0  0  0  0  0  0  0  0
    9.5771   -3.4660   29.1762 O   0  0  0  0  0  0  0  0  0  0  0  0
    8.9366   -2.0821   26.8482 O   0  0  0  0  0  0  0  0  0  0  0  0
    7.0938    0.3832   21.1172 O   0  0  0  0  0  0  0  0  0  0  0  0
    7.2953   -2.5964   24.5426 H   0  0  0  0  0  0  0  0  0  0  0  0
    6.0516   -1.0702   23.0343 H   0  0  0  0  0  0  0  0  0  0  0  0
    9.6930   -0.0021   21.0011 H   0  0  0  0  0  0  0  0  0  0  0  0
   12.2425   -3.2080   24.1831 H   0  0  0  0  0  0  0  0  0  0  0  0
    8.8958   -6.2759   26.1262 H   0  0  0  0  0  0  0  0  0  0  0  0
    7.4566   -4.1706   27.8745 H   0  0  0  0  0  0  0  0  0  0  0  0
   10.4336   -4.8700   27.9773 H   0  0  0  0  0  0  0  0  0  0  0  0
   10.8950   -2.6592   26.9445 H   0  0  0  0  0  0  0  0  0  0  0  0
   10.5973   -4.6241   25.3584 H   0  0  0  0  0  0  0  0  0  0  0  0
   13.5582    1.5914   26.2559 H   0  0  0  0  0  0  0  0  0  0  0  0
   12.5060    0.3256   26.8561 H   0  0  0  0  0  0  0  0  0  0  0  0
   14.0397   -0.0866   26.1187 H   0  0  0  0  0  0  0  0  0  0  0  0
    7.1552    1.7219   19.5447 H   0  0  0  0  0  0  0  0  0  0  0  0
    8.3446    0.3846   19.4725 H   0  0  0  0  0  0  0  0  0  0  0  0
    8.5744    1.7268   20.6240 H   0  0  0  0  0  0  0  0  0  0  0  0
   12.1008   -1.2961   20.8444 H   0  0  0  0  0  0  0  0  0  0  0  0
   13.2671   -1.9616   21.9705 H   0  0  0  0  0  0  0  0  0  0  0  0
   13.6643    0.4622   21.6310 H   0  0  0  0  0  0  0  0  0  0  0  0
   12.0150    0.8516   22.1532 H   0  0  0  0  0  0  0  0  0  0  0  0
   14.2926    0.0751   23.8139 H   0  0  0  0  0  0  0  0  0  0  0  0
    5.5280   -7.1419   26.5102 H   0  0  0  0  0  0  0  0  0  0  0  0
    8.9258   -6.5279   28.4230 H   0  0  0  0  0  0  0  0  0  0  0  0
   10.4336   -3.0251   29.2876 H   0  0  0  0  0  0  0  0  0  0  0  0
    8.0770   -2.5094   26.7228 H   0  0  0  0  0  0  0  0  0  0  0  0
  1  2  2  0  0  0  0
  1  7  1  0  0  0  0
  2  8  1  0  0  0  0
  3  5  1  0  0  0  0
  3  8  2  0  0  0  0
  4  6  2  0  0  0  0
  4 20  1  0  0  0  0
  5  6  1  0  0  0  0
  5  7  2  0  0  0  0
  6 18  1  0  0  0  0
  7 20  1  0  0  0  0
  8 29  1  0  0  0  0
  9 11  1  6  0  0  0
  9 22  2  0  0  0  0
  9 25  1  0  0  0  0
 10 16  1  0  0  0  0
 10 21  1  0  0  0  0
 10 23  2  0  0  0  0
 11 12  1  0  0  0  0
 11 24  1  0  0  0  0
 12 13  1  0  0  0  0
 12 26  1  1  0  0  0
 13 14  1  0  0  0  0
 13 27  1  6  0  0  0
 14 15  1  0  0  0  0
 14 28  1  6  0  0  0
 15 20  1  1  0  0  0
 15 24  1  0  0  0  0
 17 29  1  0  0  0  0
 18 19  1  0  0  0  0
 19 21  1  0  0  0  0
  1 30  1  0  0  0  0
  2 31  1  0  0  0  0
  3 32  1  0  0  0  0
  4 33  1  0  0  0  0
 11 34  1  0  0  0  0
 12 35  1  0  0  0  0
 13 36  1  0  0  0  0
 14 37  1  0  0  0  0
 15 38  1  0  0  0  0
 16 39  1  0  0  0  0
 16 40  1  0  0  0  0
 16 41  1  0  0  0  0
 17 42  1  0  0  0  0
 17 43  1  0  0  0  0
 17 44  1  0  0  0  0
 18 45  1  0  0  0  0
 18 46  1  0  0  0  0
 19 47  1  0  0  0  0
 19 48  1  0  0  0  0
 21 49  1  0  0  0  0
 25 50  1  0  0  0  0
 26 51  1  0  0  0  0
 27 52  1  0  0  0  0
 28 53  1  0  0  0  0
M  END
> <Chemgauss4 Score>
-4.79766845703125

> <Number of Confs>
200

$$$$
DAN-LON-a5f-3
  -OEChem-03242005443D

 35 37  0     1  0  0  0  0  0999 V2000
   11.2728    0.0649   24.6279 C   0  0  0  0  0  0  0  0  0  0  0  0
   10.4180   -1.0194   24.4298 C   0  0  0  0  0  0  0  0  0  0  0  0
   12.4240    0.1965   23.8513 C   0  0  0  0  0  0  0  0  0  0  0  0
   11.8657   -1.8406   22.6785 C   0  0  0  0  0  0  0  0  0  0  0  0
   10.7145   -1.9722   23.4551 C   0  0  0  0  0  0  0  0  0  0  0  0
   12.7204   -0.7563   22.8766 C   0  0  0  0  0  0  0  0  0  0  0  0
    7.9819   -5.1449   27.9335 C   0  0  0  0  0  0  0  0  0  0  0  0
    9.1783   -5.8893   24.6181 C   0  0  0  0  0  0  0  0  0  0  0  0
    7.2968   -4.7561   25.5041 C   0  0  0  0  0  0  0  0  0  0  0  0
   10.0795   -3.9258   25.5381 C   0  0  0  0  0  0  0  0  0  0  0  0
    8.2464   -4.7228   24.2887 C   0  0  1  0  0  0  0  0  0  0  0  0
    9.5505   -5.3002   25.9724 C   0  0  1  0  0  0  0  0  0  0  0  0
    9.7946   -3.1397   23.2433 C   0  0  0  0  0  0  0  0  0  0  0  0
    6.5726   -5.5238   28.3102 C   0  0  0  0  0  0  0  0  0  0  0  0
    8.2322   -5.0885   26.5801 N   0  0  0  0  0  0  0  0  0  0  0  0
    9.1159   -3.5301   24.4737 N   0  0  2  0  0  0  0  0  0  0  0  0
    8.8214   -4.9072   28.8025 O   0  0  0  0  0  0  0  0  0  0  0  0
   14.1415   -0.5940   21.9195 Cl  0  0  0  0  0  0  0  0  0  0  0  0
    6.6745   -6.3894   29.8395 Cl  0  0  0  0  0  0  0  0  0  0  0  0
   11.0416    0.8065   25.3871 H   0  0  0  0  0  0  0  0  0  0  0  0
    9.5233   -1.1141   25.0396 H   0  0  0  0  0  0  0  0  0  0  0  0
   13.0812    1.0466   24.0169 H   0  0  0  0  0  0  0  0  0  0  0  0
   12.0921   -2.5859   21.9194 H   0  0  0  0  0  0  0  0  0  0  0  0
    8.6590   -6.8509   24.6959 H   0  0  0  0  0  0  0  0  0  0  0  0
   10.0277   -5.9899   23.9347 H   0  0  0  0  0  0  0  0  0  0  0  0
    6.7938   -3.8050   25.7039 H   0  0  0  0  0  0  0  0  0  0  0  0
    6.5555   -5.5583   25.4270 H   0  0  0  0  0  0  0  0  0  0  0  0
   10.0774   -3.1985   26.3566 H   0  0  0  0  0  0  0  0  0  0  0  0
   11.1042   -4.0212   25.1579 H   0  0  0  0  0  0  0  0  0  0  0  0
    7.7243   -4.7729   23.3300 H   0  0  0  0  0  0  0  0  0  0  0  0
   10.2308   -5.8818   26.5972 H   0  0  0  0  0  0  0  0  0  0  0  0
    9.0291   -2.8978   22.4980 H   0  0  0  0  0  0  0  0  0  0  0  0
   10.3447   -4.0114   22.8734 H   0  0  0  0  0  0  0  0  0  0  0  0
    6.1650   -6.1721   27.5425 H   0  0  0  0  0  0  0  0  0  0  0  0
    5.9858   -4.6203   28.4325 H   0  0  0  0  0  0  0  0  0  0  0  0
  1  2  2  0  0  0  0
  1  3  1  0  0  0  0
  2  5  1  0  0  0  0
  3  6  2  0  0  0  0
  4  5  2  0  0  0  0
  4  6  1  0  0  0  0
  5 13  1  0  0  0  0
  6 18  1  0  0  0  0
  7 14  1  0  0  0  0
  7 15  1  0  0  0  0
  7 17  2  0  0  0  0
  8 11  1  0  0  0  0
  8 12  1  0  0  0  0
  9 11  1  0  0  0  0
  9 15  1  0  0  0  0
 10 12  1  0  0  0  0
 10 16  1  0  0  0  0
 11 16  1  0  0  0  0
 12 15  1  0  0  0  0
 13 16  1  1  0  0  0
 14 19  1  0  0  0  0
  1 20  1  0  0  0  0
  2 21  1  0  0  0  0
  3 22  1  0  0  0  0
  4 23  1  0  0  0  0
  8 24  1  0  0  0  0
  8 25  1  0  0  0  0
  9 26  1  0  0  0  0
  9 27  1  0  0  0  0
 10 28  1  0  0  0  0
 10 29  1  0  0  0  0
 11 30  1  0  0  0  0
 12 31  1  0  0  0  0
 13 32  1  0  0  0  0
 13 33  1  0  0  0  0
 14 34  1  0  0  0  0
 14 35  1  0  0  0  0
M  END
> <Chemgauss4 Score>
-4.79421854019165

> <Number of Confs>
74

$$$$
CHR-SOS-b30-7
  -OEChem-03242005443D

 44 46  0     0  0  0  0  0  0999 V2000
    9.7371   -3.0594   25.9972 C   0  0  0  0  0  0  0  0  0  0  0  0
   10.2731   -2.4314   25.1249 C   0  0  0  0  0  0  0  0  0  0  0  0
    6.8317   -6.1163   21.6900 C   0  0  0  0  0  0  0  0  0  0  0  0
    7.6645   -5.0180   21.8720 C   0  0  0  0  0  0  0  0  0  0  0  0
    8.8160   -3.2362   28.2613 C   0  0  0  0  0  0  0  0  0  0  0  0
    5.7701   -6.2775   22.5656 C   0  0  0  0  0  0  0  0  0  0  0  0
    8.1965   -4.0629   29.1762 C   0  0  0  0  0  0  0  0  0  0  0  0
    6.3261   -4.3769   23.7305 C   0  0  0  0  0  0  0  0  0  0  0  0
    8.1972   -5.7868   27.6946 C   0  0  0  0  0  0  0  0  0  0  0  0
    9.0969   -3.8059   27.0362 C   0  0  0  0  0  0  0  0  0  0  0  0
    7.4139   -4.1268   22.9095 C   0  0  0  0  0  0  0  0  0  0  0  0
    9.3629   -2.6211   22.3839 C   0  0  0  0  0  0  0  0  0  0  0  0
   13.5066   -0.3766   23.0629 C   0  0  0  0  0  0  0  0  0  0  0  0
   12.3684    0.4805   23.6051 C   0  0  0  0  0  0  0  0  0  0  0  0
   12.9899   -1.6679   22.4387 C   0  0  0  0  0  0  0  0  0  0  0  0
   11.4924   -0.2991   24.5883 C   0  0  0  0  0  0  0  0  0  0  0  0
   12.1172   -2.4585   23.4162 C   0  0  0  0  0  0  0  0  0  0  0  0
   10.9586   -1.6265   24.0075 C   0  0  0  0  0  0  0  0  0  0  0  0
    9.9491   -1.3492   22.9586 C   0  0  0  0  0  0  0  0  0  0  0  0
    5.4948   -5.4330   23.5848 N   0  0  0  0  0  0  0  0  0  0  0  0
    7.8715   -5.3481   28.9254 N   0  0  0  0  0  0  0  0  0  0  0  0
    8.8004   -5.0830   26.7177 N   0  0  0  0  0  0  0  0  0  0  0  0
    8.2439   -3.0001   23.1200 N   0  0  0  0  0  0  0  0  0  0  0  0
    9.8435   -3.1921   21.4106 O   0  0  0  0  0  0  0  0  0  0  0  0
    7.0081   -6.8239   20.8879 H   0  0  0  0  0  0  0  0  0  0  0  0
    8.5053   -4.8661   21.2003 H   0  0  0  0  0  0  0  0  0  0  0  0
    9.0603   -2.2093   28.5030 H   0  0  0  0  0  0  0  0  0  0  0  0
    5.0918   -7.1185   22.4666 H   0  0  0  0  0  0  0  0  0  0  0  0
    7.9364   -3.7038   30.1662 H   0  0  0  0  0  0  0  0  0  0  0  0
    6.0792   -3.7172   24.5570 H   0  0  0  0  0  0  0  0  0  0  0  0
    7.9476   -6.8159   27.4667 H   0  0  0  0  0  0  0  0  0  0  0  0
   14.0665    0.1936   22.3110 H   0  0  0  0  0  0  0  0  0  0  0  0
   14.2080   -0.6123   23.8710 H   0  0  0  0  0  0  0  0  0  0  0  0
   12.7801    1.3706   24.0964 H   0  0  0  0  0  0  0  0  0  0  0  0
   11.7524    0.8387   22.7722 H   0  0  0  0  0  0  0  0  0  0  0  0
   12.4090   -1.4318   21.5397 H   0  0  0  0  0  0  0  0  0  0  0  0
   13.8370   -2.2834   22.1125 H   0  0  0  0  0  0  0  0  0  0  0  0
   12.0656   -0.4825   25.5067 H   0  0  0  0  0  0  0  0  0  0  0  0
   10.6459    0.3405   24.8729 H   0  0  0  0  0  0  0  0  0  0  0  0
   11.7070   -3.3265   22.8825 H   0  0  0  0  0  0  0  0  0  0  0  0
   12.7532   -2.8582   24.2169 H   0  0  0  0  0  0  0  0  0  0  0  0
   10.4263   -0.7789   22.1623 H   0  0  0  0  0  0  0  0  0  0  0  0
    9.1520   -0.7490   23.3963 H   0  0  0  0  0  0  0  0  0  0  0  0
    7.9806   -2.4063   23.9038 H   0  0  0  0  0  0  0  0  0  0  0  0
  1  2  3  0  0  0  0
  1 10  1  0  0  0  0
  2 18  1  0  0  0  0
  3  4  2  0  0  0  0
  3  6  1  0  0  0  0
  4 11  1  0  0  0  0
  5  7  2  0  0  0  0
  5 10  1  0  0  0  0
  6 20  2  0  0  0  0
  7 21  1  0  0  0  0
  8 11  2  0  0  0  0
  8 20  1  0  0  0  0
  9 21  2  0  0  0  0
  9 22  1  0  0  0  0
 10 22  2  0  0  0  0
 11 23  1  0  0  0  0
 12 19  1  0  0  0  0
 12 23  1  0  0  0  0
 12 24  2  0  0  0  0
 13 14  1  0  0  0  0
 13 15  1  0  0  0  0
 14 16  1  0  0  0  0
 15 17  1  0  0  0  0
 16 18  1  0  0  0  0
 17 18  1  0  0  0  0
 18 19  1  0  0  0  0
  3 25  1  0  0  0  0
  4 26  1  0  0  0  0
  5 27  1  0  0  0  0
  6 28  1  0  0  0  0
  7 29  1  0  0  0  0
  8 30  1  0  0  0  0
  9 31  1  0  0  0  0
 13 32  1  0  0  0  0
 13 33  1  0  0  0  0
 14 34  1  0  0  0  0
 14 35  1  0  0  0  0
 15 36  1  0  0  0  0
 15 37  1  0  0  0  0
 16 38  1  0  0  0  0
 16 39  1  0  0  0  0
 17 40  1  0  0  0  0
 17 41  1  0  0  0  0
 19 42  1  0  0  0  0
 19 43  1  0  0  0  0
 23 44  1  0  0  0  0
M  END
> <Chemgauss4 Score>
-4.79012489318848

> <Number of Confs>
77

$$$$
DAR-DIA-23a-20
  -OEChem-03242005443D

 34 36  0     0  0  0  0  0  0999 V2000
   13.4355    0.7036   22.5871 C   0  0  0  0  0  0  0  0  0  0  0  0
    8.5855   -1.6443   28.5605 C   0  0  0  0  0  0  0  0  0  0  0  0
    8.9163   -1.1598   27.2971 C   0  0  0  0  0  0  0  0  0  0  0  0
   12.2125    1.2066   23.0310 C   0  0  0  0  0  0  0  0  0  0  0  0
   13.5928   -0.6672   22.3822 C   0  0  0  0  0  0  0  0  0  0  0  0
    8.2444   -2.9864   28.7264 C   0  0  0  0  0  0  0  0  0  0  0  0
    8.9076   -2.0152   26.1940 C   0  0  0  0  0  0  0  0  0  0  0  0
   11.1469    0.3389   23.2700 C   0  0  0  0  0  0  0  0  0  0  0  0
   12.5272   -1.5349   22.6213 C   0  0  0  0  0  0  0  0  0  0  0  0
    7.8988   -5.2077   27.7324 C   0  0  0  0  0  0  0  0  0  0  0  0
    8.2013   -5.5749   25.4855 C   0  0  0  0  0  0  0  0  0  0  0  0
    8.2323   -3.8562   27.6235 C   0  0  0  0  0  0  0  0  0  0  0  0
    8.5667   -3.3695   26.3428 C   0  0  0  0  0  0  0  0  0  0  0  0
    8.5487   -4.2522   25.2567 C   0  0  0  0  0  0  0  0  0  0  0  0
   11.3042   -1.0319   23.0652 C   0  0  0  0  0  0  0  0  0  0  0  0
   10.2859   -3.2409   23.7197 C   0  0  0  0  0  0  0  0  0  0  0  0
    8.8868   -3.8327   23.8645 C   0  0  0  0  0  0  0  0  0  0  0  0
    7.8756   -6.0759   26.6961 N   0  0  0  0  0  0  0  0  0  0  0  0
   10.2229   -1.9121   23.3076 N   0  0  0  0  0  0  0  0  0  0  0  0
   11.2946   -3.9005   23.9491 O   0  0  0  0  0  0  0  0  0  0  0  0
   14.2652    1.3791   22.4001 H   0  0  0  0  0  0  0  0  0  0  0  0
    8.5932   -0.9765   29.4170 H   0  0  0  0  0  0  0  0  0  0  0  0
    9.1820   -0.1143   27.1698 H   0  0  0  0  0  0  0  0  0  0  0  0
   12.0894    2.2739   23.1898 H   0  0  0  0  0  0  0  0  0  0  0  0
   14.5449   -1.0584   22.0356 H   0  0  0  0  0  0  0  0  0  0  0  0
    7.9891   -3.3475   29.7200 H   0  0  0  0  0  0  0  0  0  0  0  0
    9.1712   -1.6009   25.2237 H   0  0  0  0  0  0  0  0  0  0  0  0
   10.1984    0.7424   23.6156 H   0  0  0  0  0  0  0  0  0  0  0  0
   12.6614   -2.6014   22.4581 H   0  0  0  0  0  0  0  0  0  0  0  0
    7.6313   -5.6466   28.6898 H   0  0  0  0  0  0  0  0  0  0  0  0
    8.1735   -6.2973   24.6751 H   0  0  0  0  0  0  0  0  0  0  0  0
    8.8059   -4.6904   23.1771 H   0  0  0  0  0  0  0  0  0  0  0  0
    8.1598   -3.0868   23.5048 H   0  0  0  0  0  0  0  0  0  0  0  0
    9.2906   -1.5295   23.1642 H   0  0  0  0  0  0  0  0  0  0  0  0
  1  4  1  0  0  0  0
  1  5  2  0  0  0  0
  2  3  1  0  0  0  0
  2  6  2  0  0  0  0
  3  7  2  0  0  0  0
  4  8  2  0  0  0  0
  5  9  1  0  0  0  0
  6 12  1  0  0  0  0
  7 13  1  0  0  0  0
  8 15  1  0  0  0  0
  9 15  2  0  0  0  0
 10 12  2  0  0  0  0
 10 18  1  0  0  0  0
 11 14  1  0  0  0  0
 11 18  2  0  0  0  0
 12 13  1  0  0  0  0
 13 14  2  0  0  0  0
 14 17  1  0  0  0  0
 15 19  1  0  0  0  0
 16 17  1  0  0  0  0
 16 19  1  0  0  0  0
 16 20  2  0  0  0  0
  1 21  1  0  0  0  0
  2 22  1  0  0  0  0
  3 23  1  0  0  0  0
  4 24  1  0  0  0  0
  5 25  1  0  0  0  0
  6 26  1  0  0  0  0
  7 27  1  0  0  0  0
  8 28  1  0  0  0  0
  9 29  1  0  0  0  0
 10 30  1  0  0  0  0
 11 31  1  0  0  0  0
 17 32  1  0  0  0  0
 17 33  1  0  0  0  0
 19 34  1  0  0  0  0
M  END
> <Chemgauss4 Score>
-4.78901290893555

> <Number of Confs>
30

$$$$
JOH-MSK-a63-1
  -OEChem-03242005443D

 34 35  0     0  0  0  0  0  0999 V2000
   11.0073   -2.5966   24.1691 C   0  0  0  0  0  0  0  0  0  0  0  0
    8.7948   -2.0814   22.4805 C   0  0  0  0  0  0  0  0  0  0  0  0
    8.3926   -5.1426   24.3735 C   0  0  0  0  0  0  0  0  0  0  0  0
    9.9206   -3.4931   24.1411 C   0  0  0  0  0  0  0  0  0  0  0  0
    9.6234   -4.7121   24.8125 C   0  0  0  0  0  0  0  0  0  0  0  0
    8.8416   -3.2154   23.2992 C   0  0  0  0  0  0  0  0  0  0  0  0
   10.9742   -1.4582   23.3556 C   0  0  0  0  0  0  0  0  0  0  0  0
    9.8840   -1.2065   22.5250 C   0  0  0  0  0  0  0  0  0  0  0  0
    8.2442   -3.7023   27.6061 C   0  0  0  0  0  0  0  0  0  0  0  0
    6.9363   -3.9030   28.2972 C   0  0  0  0  0  0  0  0  0  0  0  0
   13.0905   -0.8357   22.4670 C   0  0  0  0  0  0  0  0  0  0  0  0
   10.4751   -5.3998   25.8039 C   0  0  0  0  0  0  0  0  0  0  0  0
   10.4616   -4.7514   27.2002 C   0  0  0  0  0  0  0  0  0  0  0  0
    7.9291   -4.2335   23.4608 N   0  0  0  0  0  0  0  0  0  0  0  0
    9.1454   -4.7404   27.7801 N   0  0  0  0  0  0  0  0  0  0  0  0
    8.4335   -2.6809   26.9560 O   0  0  0  0  0  0  0  0  0  0  0  0
    9.8657   -0.0923   21.7369 O   0  0  0  0  0  0  0  0  0  0  0  0
   12.0292   -0.5936   23.3870 O   0  0  0  0  0  0  0  0  0  0  0  0
   11.8616   -2.7852   24.8136 H   0  0  0  0  0  0  0  0  0  0  0  0
    7.9433   -1.8894   21.8356 H   0  0  0  0  0  0  0  0  0  0  0  0
    7.8036   -6.0131   24.6268 H   0  0  0  0  0  0  0  0  0  0  0  0
    6.9365   -3.5003   29.3228 H   0  0  0  0  0  0  0  0  0  0  0  0
    6.1066   -3.3912   27.7836 H   0  0  0  0  0  0  0  0  0  0  0  0
    6.6122   -4.9512   28.3975 H   0  0  0  0  0  0  0  0  0  0  0  0
   13.8659   -0.0765   22.5960 H   0  0  0  0  0  0  0  0  0  0  0  0
   12.7026   -0.8057   21.4457 H   0  0  0  0  0  0  0  0  0  0  0  0
   13.5142   -1.8232   22.6649 H   0  0  0  0  0  0  0  0  0  0  0  0
   11.5252   -5.4241   25.4513 H   0  0  0  0  0  0  0  0  0  0  0  0
   10.1926   -6.4671   25.9068 H   0  0  0  0  0  0  0  0  0  0  0  0
   11.1074   -5.2993   27.8936 H   0  0  0  0  0  0  0  0  0  0  0  0
   10.8113   -3.7148   27.1547 H   0  0  0  0  0  0  0  0  0  0  0  0
    7.0454   -4.2988   22.9749 H   0  0  0  0  0  0  0  0  0  0  0  0
    8.8610   -5.5369   28.3480 H   0  0  0  0  0  0  0  0  0  0  0  0
    9.0448   -0.0623   21.2225 H   0  0  0  0  0  0  0  0  0  0  0  0
  1  4  2  0  0  0  0
  1  7  1  0  0  0  0
  2  6  2  0  0  0  0
  2  8  1  0  0  0  0
  3  5  2  0  0  0  0
  3 14  1  0  0  0  0
  4  5  1  0  0  0  0
  4  6  1  0  0  0  0
  5 12  1  0  0  0  0
  6 14  1  0  0  0  0
  7  8  2  0  0  0  0
  7 18  1  0  0  0  0
  8 17  1  0  0  0  0
  9 10  1  0  0  0  0
  9 15  1  0  0  0  0
  9 16  2  0  0  0  0
 11 18  1  0  0  0  0
 12 13  1  0  0  0  0
 13 15  1  0  0  0  0
  1 19  1  0  0  0  0
  2 20  1  0  0  0  0
  3 21  1  0  0  0  0
 10 22  1  0  0  0  0
 10 23  1  0  0  0  0
 10 24  1  0  0  0  0
 11 25  1  0  0  0  0
 11 26  1  0  0  0  0
 11 27  1  0  0  0  0
 12 28  1  0  0  0  0
 12 29  1  0  0  0  0
 13 30  1  0  0  0  0
 13 31  1  0  0  0  0
 14 32  1  0  0  0  0
 15 33  1  0  0  0  0
 17 34  1  0  0  0  0
M  END
> <Chemgauss4 Score>
-4.78873443603516

> <Number of Confs>
79

$$$$
HAR-NEW-972-2
  -OEChem-03242005443D

 43 45  0     1  0  0  0  0  0999 V2000
   11.0980   -1.9386   23.9169 C   0  0  0  0  0  0  0  0  0  0  0  0
    9.8175   -1.4228   23.9169 C   0  0  0  0  0  0  0  0  0  0  0  0
   10.1041   -3.4798   25.1122 C   0  0  0  0  0  0  0  0  0  0  0  0
    6.1181   -4.5974   26.2232 C   0  0  0  0  0  0  0  0  0  0  0  0
   12.2318   -1.2881   23.2054 C   0  0  0  0  0  0  0  0  0  0  0  0
    9.3989   -0.1474   23.2671 C   0  0  0  0  0  0  0  0  0  0  0  0
   11.9019    0.1724   22.8468 C   0  0  0  0  0  0  0  0  0  0  0  0
    9.1046   -3.8274   28.1912 C   0  0  0  0  0  0  0  0  0  0  0  0
   10.2300   -4.5094   27.4211 C   0  0  0  0  0  0  0  0  0  0  0  0
    7.7924   -4.5824   28.0319 C   0  0  0  0  0  0  0  0  0  0  0  0
    8.4888   -5.3886   25.7821 C   0  0  0  0  0  0  0  0  0  0  0  0
    9.8773   -4.7366   25.9422 C   0  0  1  0  0  0  0  0  0  0  0  0
   10.4777    0.3173   22.2578 C   0  0  2  0  0  0  0  0  0  0  0  0
    5.8144   -4.8213   24.7626 C   0  0  0  0  0  0  0  0  0  0  0  0
   10.2155    1.7580   21.8238 C   0  0  0  0  0  0  0  0  0  0  0  0
   11.2635   -3.1252   24.6000 N   0  0  0  0  0  0  0  0  0  0  0  0
    7.4432   -4.7919   26.6263 N   0  0  0  0  0  0  0  0  0  0  0  0
    8.9388    1.8485   21.1992 N   0  0  0  0  0  0  0  0  0  0  0  0
    5.2064   -4.2558   26.9813 O   0  0  0  0  0  0  0  0  0  0  0  0
    8.7747   -2.4325   24.8052 S   0  0  0  0  0  0  0  0  0  0  0  0
    4.0885   -4.5430   24.5586 Cl  0  0  0  0  0  0  0  0  0  0  0  0
   13.1373   -1.3210   23.8210 H   0  0  0  0  0  0  0  0  0  0  0  0
   12.4377   -1.8505   22.2868 H   0  0  0  0  0  0  0  0  0  0  0  0
    8.4405   -0.2698   22.7489 H   0  0  0  0  0  0  0  0  0  0  0  0
    9.2593    0.6142   24.0448 H   0  0  0  0  0  0  0  0  0  0  0  0
   11.9844    0.7941   23.7485 H   0  0  0  0  0  0  0  0  0  0  0  0
   12.6492    0.5436   22.1356 H   0  0  0  0  0  0  0  0  0  0  0  0
    9.3680   -3.7711   29.2540 H   0  0  0  0  0  0  0  0  0  0  0  0
    8.9854   -2.7985   27.8350 H   0  0  0  0  0  0  0  0  0  0  0  0
   11.1455   -3.8951   27.5000 H   0  0  0  0  0  0  0  0  0  0  0  0
   10.4756   -5.4710   27.9043 H   0  0  0  0  0  0  0  0  0  0  0  0
    7.8506   -5.5416   28.5668 H   0  0  0  0  0  0  0  0  0  0  0  0
    6.9663   -4.0162   28.4901 H   0  0  0  0  0  0  0  0  0  0  0  0
    8.1357   -5.2989   24.7315 H   0  0  0  0  0  0  0  0  0  0  0  0
    8.5730   -6.4800   25.9551 H   0  0  0  0  0  0  0  0  0  0  0  0
   10.6414   -5.4895   25.5472 H   0  0  0  0  0  0  0  0  0  0  0  0
   10.4160   -0.3216   21.3658 H   0  0  0  0  0  0  0  0  0  0  0  0
    6.0591   -5.8457   24.5058 H   0  0  0  0  0  0  0  0  0  0  0  0
    6.3789   -4.1082   24.1730 H   0  0  0  0  0  0  0  0  0  0  0  0
   10.2492    2.3760   22.7194 H   0  0  0  0  0  0  0  0  0  0  0  0
   11.0044    2.0335   21.1260 H   0  0  0  0  0  0  0  0  0  0  0  0
    9.0342    2.2045   20.2648 H   0  0  0  0  0  0  0  0  0  0  0  0
    8.5089    0.9418   21.1570 H   0  0  0  0  0  0  0  0  0  0  0  0
  1  2  2  0  0  0  0
  1  5  1  0  0  0  0
  1 16  1  0  0  0  0
  2  6  1  0  0  0  0
  2 20  1  0  0  0  0
  3 12  1  6  0  0  0
  3 16  2  0  0  0  0
  3 20  1  0  0  0  0
  4 14  1  0  0  0  0
  4 17  1  0  0  0  0
  4 19  2  0  0  0  0
  5  7  1  0  0  0  0
  6 13  1  0  0  0  0
  7 13  1  0  0  0  0
  8  9  1  0  0  0  0
  8 10  1  0  0  0  0
  9 12  1  0  0  0  0
 10 17  1  0  0  0  0
 11 12  1  0  0  0  0
 11 17  1  0  0  0  0
 13 15  1  6  0  0  0
 14 21  1  0  0  0  0
 15 18  1  0  0  0  0
  5 22  1  0  0  0  0
  5 23  1  0  0  0  0
  6 24  1  0  0  0  0
  6 25  1  0  0  0  0
  7 26  1  0  0  0  0
  7 27  1  0  0  0  0
  8 28  1  0  0  0  0
  8 29  1  0  0  0  0
  9 30  1  0  0  0  0
  9 31  1  0  0  0  0
 10 32  1  0  0  0  0
 10 33  1  0  0  0  0
 11 34  1  0  0  0  0
 11 35  1  0  0  0  0
 12 36  1  0  0  0  0
 13 37  1  0  0  0  0
 14 38  1  0  0  0  0
 14 39  1  0  0  0  0
 15 40  1  0  0  0  0
 15 41  1  0  0  0  0
 18 42  1  0  0  0  0
 18 43  1  0  0  0  0
M  END
> <Chemgauss4 Score>
-4.78781270980835

> <Number of Confs>
200

$$$$
DAN-LON-a5f-7
  -OEChem-03242005443D

 43 44  0     1  0  0  0  0  0999 V2000
   13.4158   -0.7347   22.0643 C   0  0  0  0  0  0  0  0  0  0  0  0
   12.2041   -1.3680   21.7878 C   0  0  0  0  0  0  0  0  0  0  0  0
   13.5948   -0.0709   23.2779 C   0  0  0  0  0  0  0  0  0  0  0  0
   11.3504   -0.6735   23.9386 C   0  0  0  0  0  0  0  0  0  0  0  0
   11.1714   -1.3373   22.7250 C   0  0  0  0  0  0  0  0  0  0  0  0
   12.5621   -0.0402   24.2151 C   0  0  0  0  0  0  0  0  0  0  0  0
    6.9676   -5.3845   25.8283 C   0  0  0  0  0  0  0  0  0  0  0  0
    7.0851   -3.2086   24.6746 C   0  0  0  0  0  0  0  0  0  0  0  0
    7.7847   -2.7302   23.4043 C   0  0  0  0  0  0  0  0  0  0  0  0
    9.8497   -3.7539   24.0977 C   0  0  0  0  0  0  0  0  0  0  0  0
    9.2201   -4.2745   25.4021 C   0  0  1  0  0  0  0  0  0  0  0  0
    8.9315   -3.9340   27.8728 C   0  0  0  0  0  0  0  0  0  0  0  0
   11.1166   -3.3669   26.7740 C   0  0  0  0  0  0  0  0  0  0  0  0
    9.8671   -2.0182   22.4262 C   0  0  0  0  0  0  0  0  0  0  0  0
    5.4720   -5.1957   25.7727 C   0  0  0  0  0  0  0  0  0  0  0  0
    9.6013   -3.4080   26.6077 C   0  0  0  0  0  0  0  0  0  0  0  0
    7.7506   -4.3670   25.2752 N   0  0  0  0  0  0  0  0  0  0  0  0
    9.2164   -2.5109   23.6396 N   0  0  1  0  0  0  0  0  0  0  0  0
    7.4266   -6.4004   26.3573 O   0  0  0  0  0  0  0  0  0  0  0  0
   12.7832    0.7799   25.7118 Cl  0  0  0  0  0  0  0  0  0  0  0  0
    5.1146   -3.7369   26.6900 Cl  0  0  0  0  0  0  0  0  0  0  0  0
   14.2196   -0.7587   21.3342 H   0  0  0  0  0  0  0  0  0  0  0  0
   12.0734   -1.8827   20.8395 H   0  0  0  0  0  0  0  0  0  0  0  0
   14.5445    0.4186   23.4797 H   0  0  0  0  0  0  0  0  0  0  0  0
   10.5424   -0.6529   24.6663 H   0  0  0  0  0  0  0  0  0  0  0  0
    7.0764   -2.4131   25.4296 H   0  0  0  0  0  0  0  0  0  0  0  0
    6.0393   -3.4430   24.4487 H   0  0  0  0  0  0  0  0  0  0  0  0
    7.6258   -3.4617   22.6007 H   0  0  0  0  0  0  0  0  0  0  0  0
    7.3127   -1.7923   23.0874 H   0  0  0  0  0  0  0  0  0  0  0  0
   10.9206   -3.5843   24.2675 H   0  0  0  0  0  0  0  0  0  0  0  0
    9.7701   -4.5322   23.3261 H   0  0  0  0  0  0  0  0  0  0  0  0
    9.6318   -5.2723   25.5792 H   0  0  0  0  0  0  0  0  0  0  0  0
    9.2581   -4.9537   28.1043 H   0  0  0  0  0  0  0  0  0  0  0  0
    7.8421   -3.9444   27.7625 H   0  0  0  0  0  0  0  0  0  0  0  0
    9.1751   -3.2976   28.7302 H   0  0  0  0  0  0  0  0  0  0  0  0
   11.5258   -4.3650   26.9641 H   0  0  0  0  0  0  0  0  0  0  0  0
   11.3942   -2.7214   27.6141 H   0  0  0  0  0  0  0  0  0  0  0  0
   11.5976   -2.9697   25.8738 H   0  0  0  0  0  0  0  0  0  0  0  0
    9.1763   -1.3281   21.9295 H   0  0  0  0  0  0  0  0  0  0  0  0
   10.0136   -2.8709   21.7550 H   0  0  0  0  0  0  0  0  0  0  0  0
    4.9929   -6.0520   26.2331 H   0  0  0  0  0  0  0  0  0  0  0  0
    5.1728   -5.0686   24.7389 H   0  0  0  0  0  0  0  0  0  0  0  0
    9.2431   -2.3903   26.4207 H   0  0  0  0  0  0  0  0  0  0  0  0
  1  2  2  0  0  0  0
  1  3  1  0  0  0  0
  2  5  1  0  0  0  0
  3  6  2  0  0  0  0
  4  5  2  0  0  0  0
  4  6  1  0  0  0  0
  5 14  1  0  0  0  0
  6 20  1  0  0  0  0
  7 15  1  0  0  0  0
  7 17  1  0  0  0  0
  7 19  2  0  0  0  0
  8  9  1  0  0  0  0
  8 17  1  0  0  0  0
  9 18  1  0  0  0  0
 10 11  1  0  0  0  0
 10 18  1  0  0  0  0
 11 16  1  0  0  0  0
 11 17  1  0  0  0  0
 12 16  1  0  0  0  0
 13 16  1  0  0  0  0
 14 18  1  1  0  0  0
 15 21  1  0  0  0  0
  1 22  1  0  0  0  0
  2 23  1  0  0  0  0
  3 24  1  0  0  0  0
  4 25  1  0  0  0  0
  8 26  1  0  0  0  0
  8 27  1  0  0  0  0
  9 28  1  0  0  0  0
  9 29  1  0  0  0  0
 10 30  1  0  0  0  0
 10 31  1  0  0  0  0
 11 32  1  6  0  0  0
 12 33  1  0  0  0  0
 12 34  1  0  0  0  0
 12 35  1  0  0  0  0
 13 36  1  0  0  0  0
 13 37  1  0  0  0  0
 13 38  1  0  0  0  0
 14 39  1  0  0  0  0
 14 40  1  0  0  0  0
 15 41  1  0  0  0  0
 15 42  1  0  0  0  0
 16 43  1  0  0  0  0
M  END
> <Chemgauss4 Score>
-4.78647089004517

> <Number of Confs>
60

$$$$
ANT-DIA-b7f-3
  -OEChem-03242005443D

 27 27  0     0  0  0  0  0  0999 V2000
   11.0336   -0.5864   24.7545 C   0  0  0  0  0  0  0  0  0  0  0  0
   12.0599   -0.9101   23.8672 C   0  0  0  0  0  0  0  0  0  0  0  0
    9.7236   -0.9785   24.4788 C   0  0  0  0  0  0  0  0  0  0  0  0
   11.7763   -1.6260   22.7041 C   0  0  0  0  0  0  0  0  0  0  0  0
    9.4401   -1.6943   23.3157 C   0  0  0  0  0  0  0  0  0  0  0  0
   10.4664   -2.0181   22.4283 C   0  0  0  0  0  0  0  0  0  0  0  0
   10.6466   -4.0879   25.1033 C   0  0  0  0  0  0  0  0  0  0  0  0
    8.0171   -2.1098   23.0336 C   0  0  0  0  0  0  0  0  0  0  0  0
    7.7630   -3.5897   23.3097 C   0  0  0  0  0  0  0  0  0  0  0  0
    7.9964   -3.9503   24.7196 N   0  0  0  0  0  0  0  0  0  0  0  0
    9.3175   -6.0573   24.0056 O   0  0  0  0  0  0  0  0  0  0  0  0
    8.9768   -5.5676   26.4552 O   0  0  0  0  0  0  0  0  0  0  0  0
   10.2064   -2.7160   21.2874 O   0  0  0  0  0  0  0  0  0  0  0  0
    9.1915   -5.1100   25.0958 S   0  0  0  0  0  0  0  0  0  0  0  0
   11.2538   -0.0285   25.6602 H   0  0  0  0  0  0  0  0  0  0  0  0
   13.0795   -0.6039   24.0818 H   0  0  0  0  0  0  0  0  0  0  0  0
    8.9308   -0.7201   25.1758 H   0  0  0  0  0  0  0  0  0  0  0  0
   12.5801   -1.8752   22.0166 H   0  0  0  0  0  0  0  0  0  0  0  0
   11.5077   -4.7163   25.3361 H   0  0  0  0  0  0  0  0  0  0  0  0
   10.7569   -3.6386   24.1152 H   0  0  0  0  0  0  0  0  0  0  0  0
   10.5206   -3.3151   25.8631 H   0  0  0  0  0  0  0  0  0  0  0  0
    7.7935   -1.8937   21.9812 H   0  0  0  0  0  0  0  0  0  0  0  0
    7.3266   -1.4920   23.6219 H   0  0  0  0  0  0  0  0  0  0  0  0
    6.7196   -3.8364   23.0894 H   0  0  0  0  0  0  0  0  0  0  0  0
    8.4026   -4.2311   22.6945 H   0  0  0  0  0  0  0  0  0  0  0  0
    7.8882   -3.1650   25.3746 H   0  0  0  0  0  0  0  0  0  0  0  0
   11.0251   -2.8555   20.7862 H   0  0  0  0  0  0  0  0  0  0  0  0
  1  2  1  0  0  0  0
  1  3  2  0  0  0  0
  2  4  2  0  0  0  0
  3  5  1  0  0  0  0
  4  6  1  0  0  0  0
  5  6  2  0  0  0  0
  5  8  1  0  0  0  0
  6 13  1  0  0  0  0
  7 14  1  0  0  0  0
  8  9  1  0  0  0  0
  9 10  1  0  0  0  0
 10 14  1  0  0  0  0
 11 14  2  0  0  0  0
 12 14  2  0  0  0  0
  1 15  1  0  0  0  0
  2 16  1  0  0  0  0
  3 17  1  0  0  0  0
  4 18  1  0  0  0  0
  7 19  1  0  0  0  0
  7 20  1  0  0  0  0
  7 21  1  0  0  0  0
  8 22  1  0  0  0  0
  8 23  1  0  0  0  0
  9 24  1  0  0  0  0
  9 25  1  0  0  0  0
 10 26  1  0  0  0  0
 13 27  1  0  0  0  0
M  END
> <Chemgauss4 Score>
-4.78243064880371

> <Number of Confs>
141

$$$$
CHR-SOS-b30-1
  -OEChem-03242005443D

 45 47  0     0  0  0  0  0  0999 V2000
   10.5357   -2.5273   23.9697 C   0  0  0  0  0  0  0  0  0  0  0  0
    9.5815   -3.1353   24.3729 C   0  0  0  0  0  0  0  0  0  0  0  0
   13.7156   -1.6545   22.2804 C   0  0  0  0  0  0  0  0  0  0  0  0
   13.7898   -0.3114   22.6324 C   0  0  0  0  0  0  0  0  0  0  0  0
    6.7438    1.8465   22.2873 C   0  0  0  0  0  0  0  0  0  0  0  0
   12.6395   -2.4221   22.7120 C   0  0  0  0  0  0  0  0  0  0  0  0
    6.7560    0.5460   22.7792 C   0  0  0  0  0  0  0  0  0  0  0  0
    7.6120    2.1568   21.2531 C   0  0  0  0  0  0  0  0  0  0  0  0
   12.7704    0.2122   23.4112 C   0  0  0  0  0  0  0  0  0  0  0  0
    8.4524    0.0193   21.1978 C   0  0  0  0  0  0  0  0  0  0  0  0
   11.6718   -1.8040   23.4874 C   0  0  0  0  0  0  0  0  0  0  0  0
    7.6237   -0.3911   22.2296 C   0  0  0  0  0  0  0  0  0  0  0  0
    6.8931   -2.2766   23.7307 C   0  0  0  0  0  0  0  0  0  0  0  0
    7.2709   -5.6579   27.0614 C   0  0  0  0  0  0  0  0  0  0  0  0
    7.6380   -6.2399   25.7010 C   0  0  0  0  0  0  0  0  0  0  0  0
    6.8619   -4.1932   26.9544 C   0  0  0  0  0  0  0  0  0  0  0  0
    8.7198   -5.4112   25.0047 C   0  0  0  0  0  0  0  0  0  0  0  0
    7.9400   -3.3542   26.2647 C   0  0  0  0  0  0  0  0  0  0  0  0
    8.3592   -3.9143   24.8882 C   0  0  0  0  0  0  0  0  0  0  0  0
    7.2581   -3.7344   23.9129 C   0  0  0  0  0  0  0  0  0  0  0  0
    8.4691    1.2736   20.6936 N   0  0  0  0  0  0  0  0  0  0  0  0
   11.7096   -0.5020   23.8494 N   0  0  0  0  0  0  0  0  0  0  0  0
    7.6592   -1.7221   22.7093 N   0  0  0  0  0  0  0  0  0  0  0  0
    6.0396   -1.7166   24.4106 O   0  0  0  0  0  0  0  0  0  0  0  0
   14.4951   -2.1022   21.6714 H   0  0  0  0  0  0  0  0  0  0  0  0
   14.6193    0.3061   22.3073 H   0  0  0  0  0  0  0  0  0  0  0  0
    6.0757    2.5935   22.7005 H   0  0  0  0  0  0  0  0  0  0  0  0
   12.5732   -3.4714   22.4426 H   0  0  0  0  0  0  0  0  0  0  0  0
    6.0857    0.2738   23.5903 H   0  0  0  0  0  0  0  0  0  0  0  0
    7.6416    3.1575   20.8348 H   0  0  0  0  0  0  0  0  0  0  0  0
   12.7816    1.2544   23.7129 H   0  0  0  0  0  0  0  0  0  0  0  0
    9.1512   -0.6665   20.7282 H   0  0  0  0  0  0  0  0  0  0  0  0
    6.4457   -6.2365   27.4952 H   0  0  0  0  0  0  0  0  0  0  0  0
    8.1214   -5.7544   27.7454 H   0  0  0  0  0  0  0  0  0  0  0  0
    7.9812   -7.2744   25.8240 H   0  0  0  0  0  0  0  0  0  0  0  0
    6.7442   -6.2792   25.0676 H   0  0  0  0  0  0  0  0  0  0  0  0
    5.9242   -4.1162   26.3920 H   0  0  0  0  0  0  0  0  0  0  0  0
    6.6611   -3.7933   27.9557 H   0  0  0  0  0  0  0  0  0  0  0  0
    9.6676   -5.5390   25.5442 H   0  0  0  0  0  0  0  0  0  0  0  0
    8.8755   -5.8276   24.0002 H   0  0  0  0  0  0  0  0  0  0  0  0
    7.5513   -2.3344   26.1399 H   0  0  0  0  0  0  0  0  0  0  0  0
    8.8094   -3.2758   26.9306 H   0  0  0  0  0  0  0  0  0  0  0  0
    6.3873   -4.2833   24.2701 H   0  0  0  0  0  0  0  0  0  0  0  0
    7.5723   -4.1510   22.9564 H   0  0  0  0  0  0  0  0  0  0  0  0
    8.3265   -2.3342   22.2444 H   0  0  0  0  0  0  0  0  0  0  0  0
  1  2  3  0  0  0  0
  1 11  1  0  0  0  0
  2 19  1  0  0  0  0
  3  4  1  0  0  0  0
  3  6  2  0  0  0  0
  4  9  2  0  0  0  0
  5  7  2  0  0  0  0
  5  8  1  0  0  0  0
  6 11  1  0  0  0  0
  7 12  1  0  0  0  0
  8 21  2  0  0  0  0
  9 22  1  0  0  0  0
 10 12  2  0  0  0  0
 10 21  1  0  0  0  0
 11 22  2  0  0  0  0
 12 23  1  0  0  0  0
 13 20  1  0  0  0  0
 13 23  1  0  0  0  0
 13 24  2  0  0  0  0
 14 15  1  0  0  0  0
 14 16  1  0  0  0  0
 15 17  1  0  0  0  0
 16 18  1  0  0  0  0
 17 19  1  0  0  0  0
 18 19  1  0  0  0  0
 19 20  1  0  0  0  0
  3 25  1  0  0  0  0
  4 26  1  0  0  0  0
  5 27  1  0  0  0  0
  6 28  1  0  0  0  0
  7 29  1  0  0  0  0
  8 30  1  0  0  0  0
  9 31  1  0  0  0  0
 10 32  1  0  0  0  0
 14 33  1  0  0  0  0
 14 34  1  0  0  0  0
 15 35  1  0  0  0  0
 15 36  1  0  0  0  0
 16 37  1  0  0  0  0
 16 38  1  0  0  0  0
 17 39  1  0  0  0  0
 17 40  1  0  0  0  0
 18 41  1  0  0  0  0
 18 42  1  0  0  0  0
 20 43  1  0  0  0  0
 20 44  1  0  0  0  0
 23 45  1  0  0  0  0
M  END
> <Chemgauss4 Score>
-4.77472877502441

> <Number of Confs>
78

$$$$
DAR-DIA-842-9
  -OEChem-03242005443D

 25 26  0     0  0  0  0  0  0999 V2000
    9.2011   -6.0775   25.6373 C   0  0  0  0  0  0  0  0  0  0  0  0
   11.9804    0.1758   22.9300 C   0  0  0  0  0  0  0  0  0  0  0  0
    8.2694   -5.2556   27.8617 C   0  0  0  0  0  0  0  0  0  0  0  0
   11.3154   -0.1501   24.1068 C   0  0  0  0  0  0  0  0  0  0  0  0
    8.2741   -3.9623   28.4368 C   0  0  0  0  0  0  0  0  0  0  0  0
   12.2105   -0.8372   22.0132 C   0  0  0  0  0  0  0  0  0  0  0  0
   11.1845   -2.4003   23.3481 C   0  0  0  0  0  0  0  0  0  0  0  0
    8.9064   -5.1364   26.6485 C   0  0  0  0  0  0  0  0  0  0  0  0
   10.9065   -1.4606   24.3276 C   0  0  0  0  0  0  0  0  0  0  0  0
    8.9139   -3.1452   27.5341 C   0  0  0  0  0  0  0  0  0  0  0  0
    9.8742   -0.9971   26.5944 C   0  0  0  0  0  0  0  0  0  0  0  0
    9.4431   -6.8507   24.8064 N   0  0  0  0  0  0  0  0  0  0  0  0
   11.8283   -2.1215   22.1925 N   0  0  0  0  0  0  0  0  0  0  0  0
   10.2387   -1.8170   25.4966 N   0  0  0  0  0  0  0  0  0  0  0  0
    9.2117   -1.7623   27.5676 N   0  0  0  0  0  0  0  0  0  0  0  0
   10.1073    0.2047   26.6745 O   0  0  0  0  0  0  0  0  0  0  0  0
    9.3026   -3.8532   26.4413 O   0  0  0  0  0  0  0  0  0  0  0  0
   12.3083    1.1908   22.7368 H   0  0  0  0  0  0  0  0  0  0  0  0
    7.8511   -6.1584   28.2841 H   0  0  0  0  0  0  0  0  0  0  0  0
   11.1211    0.6241   24.8443 H   0  0  0  0  0  0  0  0  0  0  0  0
    7.8607   -3.6671   29.3908 H   0  0  0  0  0  0  0  0  0  0  0  0
   12.7261   -0.6347   21.0802 H   0  0  0  0  0  0  0  0  0  0  0  0
   10.8902   -3.4394   23.4629 H   0  0  0  0  0  0  0  0  0  0  0  0
    9.9749   -2.8062   25.5739 H   0  0  0  0  0  0  0  0  0  0  0  0
    8.9048   -1.2677   28.4014 H   0  0  0  0  0  0  0  0  0  0  0  0
  1  8  1  0  0  0  0
  1 12  3  0  0  0  0
  2  4  2  0  0  0  0
  2  6  1  0  0  0  0
  3  5  1  0  0  0  0
  3  8  2  0  0  0  0
  4  9  1  0  0  0  0
  5 10  2  0  0  0  0
  6 13  2  0  0  0  0
  7  9  2  0  0  0  0
  7 13  1  0  0  0  0
  8 17  1  0  0  0  0
  9 14  1  0  0  0  0
 10 15  1  0  0  0  0
 10 17  1  0  0  0  0
 11 14  1  0  0  0  0
 11 15  1  0  0  0  0
 11 16  2  0  0  0  0
  2 18  1  0  0  0  0
  3 19  1  0  0  0  0
  4 20  1  0  0  0  0
  5 21  1  0  0  0  0
  6 22  1  0  0  0  0
  7 23  1  0  0  0  0
 14 24  1  0  0  0  0
 15 25  1  0  0  0  0
M  END
> <Chemgauss4 Score>
-4.77020263671875

> <Number of Confs>
6

$$$$
JOH-MSK-ec6-4
  -OEChem-03242005443D

 37 39  0     1  0  0  0  0  0999 V2000
   10.5805   -5.1464   26.2246 C   0  0  0  0  0  0  0  0  0  0  0  0
   10.1103   -4.1165   25.3925 C   0  0  0  0  0  0  0  0  0  0  0  0
    9.6869   -6.0125   26.8573 C   0  0  0  0  0  0  0  0  0  0  0  0
    8.7400   -3.9379   25.1846 C   0  0  0  0  0  0  0  0  0  0  0  0
    7.8666   -4.8091   25.8088 C   0  0  0  0  0  0  0  0  0  0  0  0
    8.3379   -5.8250   26.6270 C   0  0  0  0  0  0  0  0  0  0  0  0
   11.5049   -1.5582   22.4241 C   0  0  0  0  0  0  0  0  0  0  0  0
    6.3877   -4.8181   25.8182 C   0  0  0  0  0  0  0  0  0  0  0  0
    7.3159   -3.1071   23.1454 C   0  0  0  0  0  0  0  0  0  0  0  0
    6.1598   -6.1976   26.4380 C   0  0  0  0  0  0  0  0  0  0  0  0
    8.2403   -2.8138   24.3073 C   0  0  2  0  0  0  0  0  0  0  0  0
    8.7325   -2.6924   22.8800 C   0  0  2  0  0  0  0  0  0  0  0  0
   13.9556   -0.9617   22.2961 C   0  0  0  0  0  0  0  0  0  0  0  0
   12.7348   -1.4555   21.5411 C   0  0  0  0  0  0  0  0  0  0  0  0
    9.0258   -1.3506   22.3032 C   0  0  0  0  0  0  0  0  0  0  0  0
   10.3348   -1.3148   21.7111 N   0  0  0  0  0  0  0  0  0  0  0  0
   11.5578   -1.8274   23.6211 O   0  0  0  0  0  0  0  0  0  0  0  0
    7.3398   -6.5853   27.1813 O   0  0  0  0  0  0  0  0  0  0  0  0
   11.6496   -5.2673   26.3771 H   0  0  0  0  0  0  0  0  0  0  0  0
   10.8287   -3.4535   24.9161 H   0  0  0  0  0  0  0  0  0  0  0  0
   10.0459   -6.8053   27.5038 H   0  0  0  0  0  0  0  0  0  0  0  0
    6.0061   -4.0262   26.4706 H   0  0  0  0  0  0  0  0  0  0  0  0
    5.9328   -4.7402   24.8275 H   0  0  0  0  0  0  0  0  0  0  0  0
    7.0464   -4.1358   22.9373 H   0  0  0  0  0  0  0  0  0  0  0  0
    6.5226   -2.3956   22.9494 H   0  0  0  0  0  0  0  0  0  0  0  0
    5.2937   -6.1993   27.1078 H   0  0  0  0  0  0  0  0  0  0  0  0
    5.9902   -6.9559   25.6625 H   0  0  0  0  0  0  0  0  0  0  0  0
    8.0506   -1.8821   24.8407 H   0  0  0  0  0  0  0  0  0  0  0  0
    9.4093   -3.4486   22.4972 H   0  0  0  0  0  0  0  0  0  0  0  0
   13.7759    0.0271   22.7310 H   0  0  0  0  0  0  0  0  0  0  0  0
   14.2067   -1.6516   23.1075 H   0  0  0  0  0  0  0  0  0  0  0  0
   14.8235   -0.8842   21.6329 H   0  0  0  0  0  0  0  0  0  0  0  0
   12.9409   -2.4448   21.1168 H   0  0  0  0  0  0  0  0  0  0  0  0
   12.5131   -0.7713   20.7143 H   0  0  0  0  0  0  0  0  0  0  0  0
    8.2768   -1.1192   21.5311 H   0  0  0  0  0  0  0  0  0  0  0  0
    8.9730   -0.5960   23.1022 H   0  0  0  0  0  0  0  0  0  0  0  0
   10.4102   -1.1000   20.7173 H   0  0  0  0  0  0  0  0  0  0  0  0
  1  2  2  0  0  0  0
  1  3  1  0  0  0  0
  2  4  1  0  0  0  0
  3  6  2  0  0  0  0
  4  5  2  0  0  0  0
  4 11  1  0  0  0  0
  5  6  1  0  0  0  0
  5  8  1  0  0  0  0
  6 18  1  0  0  0  0
  7 14  1  0  0  0  0
  7 16  1  0  0  0  0
  7 17  2  0  0  0  0
  8 10  1  0  0  0  0
  9 11  1  0  0  0  0
  9 12  1  0  0  0  0
 10 18  1  0  0  0  0
 11 12  1  0  0  0  0
 12 15  1  0  0  0  0
 13 14  1  0  0  0  0
 15 16  1  0  0  0  0
  1 19  1  0  0  0  0
  2 20  1  0  0  0  0
  3 21  1  0  0  0  0
  8 22  1  0  0  0  0
  8 23  1  0  0  0  0
  9 24  1  0  0  0  0
  9 25  1  0  0  0  0
 10 26  1  0  0  0  0
 10 27  1  0  0  0  0
 11 28  1  6  0  0  0
 12 29  1  6  0  0  0
 13 30  1  0  0  0  0
 13 31  1  0  0  0  0
 13 32  1  0  0  0  0
 14 33  1  0  0  0  0
 14 34  1  0  0  0  0
 15 35  1  0  0  0  0
 15 36  1  0  0  0  0
 16 37  1  0  0  0  0
M  END
> <Chemgauss4 Score>
-4.76919651031494

> <Number of Confs>
200

$$$$
ADA-UNI-f8e-6
  -OEChem-03242005443D

 40 42  0     1  0  0  0  0  0999 V2000
   13.3011   -0.5534   22.5731 C   0  0  0  0  0  0  0  0  0  0  0  0
   12.7197   -1.7144   22.0635 C   0  0  0  0  0  0  0  0  0  0  0  0
   12.5357    0.3377   23.3254 C   0  0  0  0  0  0  0  0  0  0  0  0
    8.1751   -5.6396   27.1320 C   0  0  0  0  0  0  0  0  0  0  0  0
   11.3729   -1.9843   22.3061 C   0  0  0  0  0  0  0  0  0  0  0  0
   11.1889    0.0678   23.5679 C   0  0  0  0  0  0  0  0  0  0  0  0
    8.3981   -4.7191   26.1139 C   0  0  0  0  0  0  0  0  0  0  0  0
    8.2080   -5.1814   28.4392 C   0  0  0  0  0  0  0  0  0  0  0  0
    8.6553   -3.0301   27.7684 C   0  0  0  0  0  0  0  0  0  0  0  0
   10.6074   -1.0932   23.0583 C   0  0  0  0  0  0  0  0  0  0  0  0
    8.6436   -3.3875   26.4297 C   0  0  0  0  0  0  0  0  0  0  0  0
    8.8920   -2.6366   24.0425 C   0  0  0  0  0  0  0  0  0  0  0  0
    8.1627   -0.9566   22.2520 C   0  0  0  0  0  0  0  0  0  0  0  0
    8.2413   -0.1846   23.5324 C   0  0  2  0  0  0  0  0  0  0  0  0
    9.1683   -1.3804   23.3168 C   0  0  2  0  0  0  0  0  0  0  0  0
    7.6325    1.6163   25.9432 C   0  0  0  0  0  0  0  0  0  0  0  0
    7.1036   -0.2239   24.4959 C   0  0  0  0  0  0  0  0  0  0  0  0
    8.4432   -3.8958   28.7849 N   0  0  0  0  0  0  0  0  0  0  0  0
    8.8743   -2.4278   25.4157 N   0  0  0  0  0  0  0  0  0  0  0  0
    7.5270    0.1620   25.8133 N   0  0  0  0  0  0  0  0  0  0  0  0
    8.7097   -3.6863   23.4343 O   0  0  0  0  0  0  0  0  0  0  0  0
   14.3498   -0.3434   22.3844 H   0  0  0  0  0  0  0  0  0  0  0  0
   13.3155   -2.4086   21.4778 H   0  0  0  0  0  0  0  0  0  0  0  0
   12.9886    1.2418   23.7220 H   0  0  0  0  0  0  0  0  0  0  0  0
    7.9818   -6.6827   26.9091 H   0  0  0  0  0  0  0  0  0  0  0  0
   10.9288   -2.8911   21.9042 H   0  0  0  0  0  0  0  0  0  0  0  0
   10.6011    0.7690   24.1547 H   0  0  0  0  0  0  0  0  0  0  0  0
    8.3783   -5.0500   25.0789 H   0  0  0  0  0  0  0  0  0  0  0  0
    8.0411   -5.8598   29.2693 H   0  0  0  0  0  0  0  0  0  0  0  0
    8.8411   -2.0058   28.0776 H   0  0  0  0  0  0  0  0  0  0  0  0
    7.2980   -1.5881   22.0803 H   0  0  0  0  0  0  0  0  0  0  0  0
    8.5288   -0.4739   21.3524 H   0  0  0  0  0  0  0  0  0  0  0  0
    8.6775    0.8081   23.4890 H   0  0  0  0  0  0  0  0  0  0  0  0
    8.3455    2.0007   25.1989 H   0  0  0  0  0  0  0  0  0  0  0  0
    6.6456    2.0719   25.7748 H   0  0  0  0  0  0  0  0  0  0  0  0
    7.9856    1.8694   26.9538 H   0  0  0  0  0  0  0  0  0  0  0  0
    6.3197    0.4674   24.1533 H   0  0  0  0  0  0  0  0  0  0  0  0
    6.7005   -1.2465   24.5331 H   0  0  0  0  0  0  0  0  0  0  0  0
    9.0447   -1.4794   25.7437 H   0  0  0  0  0  0  0  0  0  0  0  0
    6.8585   -0.1761   26.5150 H   0  0  0  0  0  0  0  0  0  0  0  0
  1  2  1  0  0  0  0
  1  3  2  0  0  0  0
  2  5  2  0  0  0  0
  3  6  1  0  0  0  0
  4  7  2  0  0  0  0
  4  8  1  0  0  0  0
  5 10  1  0  0  0  0
  6 10  2  0  0  0  0
  7 11  1  0  0  0  0
  8 18  2  0  0  0  0
  9 11  2  0  0  0  0
  9 18  1  0  0  0  0
 10 15  1  0  0  0  0
 11 19  1  0  0  0  0
 12 15  1  6  0  0  0
 12 19  1  0  0  0  0
 12 21  2  0  0  0  0
 13 14  1  0  0  0  0
 13 15  1  0  0  0  0
 14 15  1  0  0  0  0
 14 17  1  1  0  0  0
 16 20  1  0  0  0  0
 17 20  1  0  0  0  0
  1 22  1  0  0  0  0
  2 23  1  0  0  0  0
  3 24  1  0  0  0  0
  4 25  1  0  0  0  0
  5 26  1  0  0  0  0
  6 27  1  0  0  0  0
  7 28  1  0  0  0  0
  8 29  1  0  0  0  0
  9 30  1  0  0  0  0
 13 31  1  0  0  0  0
 13 32  1  0  0  0  0
 14 33  1  0  0  0  0
 16 34  1  0  0  0  0
 16 35  1  0  0  0  0
 16 36  1  0  0  0  0
 17 37  1  0  0  0  0
 17 38  1  0  0  0  0
 19 39  1  0  0  0  0
 20 40  1  0  0  0  0
M  END
> <Chemgauss4 Score>
-4.7689151763916

> <Number of Confs>
60

$$$$
CHR-SOS-b30-6
  -OEChem-03242005443D

 44 46  0     0  0  0  0  0  0999 V2000
    8.1137   -2.8670   23.1245 C   0  0  0  0  0  0  0  0  0  0  0  0
    9.2435   -2.5150   23.3303 C   0  0  0  0  0  0  0  0  0  0  0  0
    4.7186   -3.2176   21.6959 C   0  0  0  0  0  0  0  0  0  0  0  0
    6.8775   -5.9909   27.4374 C   0  0  0  0  0  0  0  0  0  0  0  0
    6.0104   -2.7494   21.8594 C   0  0  0  0  0  0  0  0  0  0  0  0
    7.7554   -5.5928   26.4354 C   0  0  0  0  0  0  0  0  0  0  0  0
    6.9760   -5.3679   28.6711 C   0  0  0  0  0  0  0  0  0  0  0  0
    4.2708   -4.1941   22.5627 C   0  0  0  0  0  0  0  0  0  0  0  0
    8.7088   -4.0371   27.9608 C   0  0  0  0  0  0  0  0  0  0  0  0
    6.7689   -3.2885   22.8791 C   0  0  0  0  0  0  0  0  0  0  0  0
    8.6917   -4.5979   26.6940 C   0  0  0  0  0  0  0  0  0  0  0  0
   10.5841   -3.1950   25.8036 C   0  0  0  0  0  0  0  0  0  0  0  0
   12.7788    0.0049   23.0445 C   0  0  0  0  0  0  0  0  0  0  0  0
   12.8445   -1.3674   22.3837 C   0  0  0  0  0  0  0  0  0  0  0  0
   12.0705   -0.0537   24.3931 C   0  0  0  0  0  0  0  0  0  0  0  0
   11.4569   -1.9998   22.2547 C   0  0  0  0  0  0  0  0  0  0  0  0
   10.6789   -0.6792   24.2740 C   0  0  0  0  0  0  0  0  0  0  0  0
   10.6908   -2.0653   23.5937 C   0  0  0  0  0  0  0  0  0  0  0  0
   11.3234   -3.0622   24.4893 C   0  0  0  0  0  0  0  0  0  0  0  0
    7.8722   -4.3978   28.9597 N   0  0  0  0  0  0  0  0  0  0  0  0
    5.0350   -4.7037   23.5519 N   0  0  0  0  0  0  0  0  0  0  0  0
    6.3046   -4.2432   23.7128 N   0  0  0  0  0  0  0  0  0  0  0  0
    9.5985   -4.1718   25.6945 N   0  0  0  0  0  0  0  0  0  0  0  0
   10.8555   -2.5164   26.7887 O   0  0  0  0  0  0  0  0  0  0  0  0
    4.0786   -2.8298   20.9116 H   0  0  0  0  0  0  0  0  0  0  0  0
    6.1396   -6.7645   27.2583 H   0  0  0  0  0  0  0  0  0  0  0  0
    6.4017   -1.9821   21.1992 H   0  0  0  0  0  0  0  0  0  0  0  0
    7.7014   -6.0640   25.4575 H   0  0  0  0  0  0  0  0  0  0  0  0
    6.3147   -5.6431   29.4861 H   0  0  0  0  0  0  0  0  0  0  0  0
    3.2696   -4.6019   22.4866 H   0  0  0  0  0  0  0  0  0  0  0  0
    9.4164   -3.2561   28.2230 H   0  0  0  0  0  0  0  0  0  0  0  0
   13.7960    0.3922   23.1830 H   0  0  0  0  0  0  0  0  0  0  0  0
   12.2579    0.7075   22.3844 H   0  0  0  0  0  0  0  0  0  0  0  0
   13.3074   -1.2771   21.3935 H   0  0  0  0  0  0  0  0  0  0  0  0
   13.4921   -2.0260   22.9739 H   0  0  0  0  0  0  0  0  0  0  0  0
   12.6741   -0.6378   25.0973 H   0  0  0  0  0  0  0  0  0  0  0  0
   11.9911    0.9572   24.8111 H   0  0  0  0  0  0  0  0  0  0  0  0
   10.8796   -1.4402   21.5068 H   0  0  0  0  0  0  0  0  0  0  0  0
   11.5802   -3.0157   21.8555 H   0  0  0  0  0  0  0  0  0  0  0  0
   10.2590   -0.7731   25.2847 H   0  0  0  0  0  0  0  0  0  0  0  0
   10.0238    0.0128   23.7286 H   0  0  0  0  0  0  0  0  0  0  0  0
   12.3498   -2.7514   24.6816 H   0  0  0  0  0  0  0  0  0  0  0  0
   11.3338   -4.0258   23.9811 H   0  0  0  0  0  0  0  0  0  0  0  0
    9.5087   -4.6427   24.7965 H   0  0  0  0  0  0  0  0  0  0  0  0
  1  2  3  0  0  0  0
  1 10  1  0  0  0  0
  2 18  1  0  0  0  0
  3  5  2  0  0  0  0
  3  8  1  0  0  0  0
  4  6  2  0  0  0  0
  4  7  1  0  0  0  0
  5 10  1  0  0  0  0
  6 11  1  0  0  0  0
  7 20  2  0  0  0  0
  8 21  2  0  0  0  0
  9 11  2  0  0  0  0
  9 20  1  0  0  0  0
 10 22  2  0  0  0  0
 11 23  1  0  0  0  0
 12 19  1  0  0  0  0
 12 23  1  0  0  0  0
 12 24  2  0  0  0  0
 13 14  1  0  0  0  0
 13 15  1  0  0  0  0
 14 16  1  0  0  0  0
 15 17  1  0  0  0  0
 16 18  1  0  0  0  0
 17 18  1  0  0  0  0
 18 19  1  0  0  0  0
 21 22  1  0  0  0  0
  3 25  1  0  0  0  0
  4 26  1  0  0  0  0
  5 27  1  0  0  0  0
  6 28  1  0  0  0  0
  7 29  1  0  0  0  0
  8 30  1  0  0  0  0
  9 31  1  0  0  0  0
 13 32  1  0  0  0  0
 13 33  1  0  0  0  0
 14 34  1  0  0  0  0
 14 35  1  0  0  0  0
 15 36  1  0  0  0  0
 15 37  1  0  0  0  0
 16 38  1  0  0  0  0
 16 39  1  0  0  0  0
 17 40  1  0  0  0  0
 17 41  1  0  0  0  0
 19 42  1  0  0  0  0
 19 43  1  0  0  0  0
 23 44  1  0  0  0  0
M  END
> <Chemgauss4 Score>
-4.76772880554199

> <Number of Confs>
76

$$$$
AGN-NEW-891-10
  -OEChem-03242005443D

 36 38  0     0  0  0  0  0  0999 V2000
    8.6015    0.0866   26.4005 C   0  0  0  0  0  0  0  0  0  0  0  0
    6.4162   -5.1799   21.3627 C   0  0  0  0  0  0  0  0  0  0  0  0
    9.6589    0.2085   25.4991 C   0  0  0  0  0  0  0  0  0  0  0  0
    7.2237   -4.6892   22.3828 C   0  0  0  0  0  0  0  0  0  0  0  0
    8.2724   -1.1635   26.9247 C   0  0  0  0  0  0  0  0  0  0  0  0
   13.5208   -0.5549   22.4535 C   0  0  0  0  0  0  0  0  0  0  0  0
   10.0580   -2.1699   25.6457 C   0  0  0  0  0  0  0  0  0  0  0  0
    5.4092   -6.0685   21.7034 C   0  0  0  0  0  0  0  0  0  0  0  0
   13.1638    0.4649   23.3120 C   0  0  0  0  0  0  0  0  0  0  0  0
   12.7629   -1.7045   22.5443 C   0  0  0  0  0  0  0  0  0  0  0  0
    5.9692   -5.9886   23.9301 C   0  0  0  0  0  0  0  0  0  0  0  0
   10.3871   -0.9197   25.1216 C   0  0  0  0  0  0  0  0  0  0  0  0
    7.0026   -5.0964   23.6937 C   0  0  0  0  0  0  0  0  0  0  0  0
    9.0006   -2.2917   26.5472 C   0  0  0  0  0  0  0  0  0  0  0  0
   11.4842   -0.7920   24.1872 C   0  0  0  0  0  0  0  0  0  0  0  0
    7.8411   -4.5952   24.7966 C   0  0  0  0  0  0  0  0  0  0  0  0
    7.4318   -4.4547   26.0635 C   0  0  0  0  0  0  0  0  0  0  0  0
    5.1640   -6.4870   22.9652 N   0  0  0  0  0  0  0  0  0  0  0  0
   12.1472    0.3801   24.1949 N   0  0  0  0  0  0  0  0  0  0  0  0
   11.7337   -1.8580   23.4031 N   0  0  0  0  0  0  0  0  0  0  0  0
    9.7727   -4.7059   27.1527 O   0  0  0  0  0  0  0  0  0  0  0  0
    7.9280   -3.6393   28.4864 O   0  0  0  0  0  0  0  0  0  0  0  0
    8.5894   -3.8558   27.2056 S   0  0  0  0  0  0  0  0  0  0  0  0
    8.0346    0.9650   26.6948 H   0  0  0  0  0  0  0  0  0  0  0  0
    6.5700   -4.8762   20.3337 H   0  0  0  0  0  0  0  0  0  0  0  0
    9.9028    1.1898   25.0991 H   0  0  0  0  0  0  0  0  0  0  0  0
    8.0209   -3.9907   22.1411 H   0  0  0  0  0  0  0  0  0  0  0  0
    7.4468   -1.2476   27.6261 H   0  0  0  0  0  0  0  0  0  0  0  0
   14.3416   -0.4595   21.7555 H   0  0  0  0  0  0  0  0  0  0  0  0
   10.6224   -3.0532   25.3542 H   0  0  0  0  0  0  0  0  0  0  0  0
    4.7528   -6.4804   20.9440 H   0  0  0  0  0  0  0  0  0  0  0  0
   13.7022    1.4067   23.3135 H   0  0  0  0  0  0  0  0  0  0  0  0
   12.9689   -2.5601   21.9100 H   0  0  0  0  0  0  0  0  0  0  0  0
    5.7446   -6.3453   24.9313 H   0  0  0  0  0  0  0  0  0  0  0  0
    8.8661   -4.3471   24.5284 H   0  0  0  0  0  0  0  0  0  0  0  0
    6.4359   -4.7000   26.4090 H   0  0  0  0  0  0  0  0  0  0  0  0
  1  3  1  0  0  0  0
  1  5  2  0  0  0  0
  2  4  2  0  0  0  0
  2  8  1  0  0  0  0
  3 12  2  0  0  0  0
  4 13  1  0  0  0  0
  5 14  1  0  0  0  0
  6  9  1  0  0  0  0
  6 10  2  0  0  0  0
  7 12  1  0  0  0  0
  7 14  2  0  0  0  0
  8 18  2  0  0  0  0
  9 19  2  0  0  0  0
 10 20  1  0  0  0  0
 11 13  2  0  0  0  0
 11 18  1  0  0  0  0
 12 15  1  0  0  0  0
 13 16  1  0  0  0  0
 14 23  1  0  0  0  0
 15 19  1  0  0  0  0
 15 20  2  0  0  0  0
 16 17  2  0  0  0  0
 17 23  1  0  0  0  0
 21 23  2  0  0  0  0
 22 23  2  0  0  0  0
  1 24  1  0  0  0  0
  2 25  1  0  0  0  0
  3 26  1  0  0  0  0
  4 27  1  0  0  0  0
  5 28  1  0  0  0  0
  6 29  1  0  0  0  0
  7 30  1  0  0  0  0
  8 31  1  0  0  0  0
  9 32  1  0  0  0  0
 10 33  1  0  0  0  0
 11 34  1  0  0  0  0
 16 35  1  0  0  0  0
 17 36  1  0  0  0  0
M  END
> <Chemgauss4 Score>
-4.76411437988281

> <Number of Confs>
103

$$$$
NIM-UNI-36e-2
  -OEChem-03242005443D

 47 50  0     1  0  0  0  0  0999 V2000
   14.2644   -0.2190   22.8358 C   0  0  0  0  0  0  0  0  0  0  0  0
   13.7323   -1.1886   21.9859 C   0  0  0  0  0  0  0  0  0  0  0  0
   13.4545    0.3864   23.7967 C   0  0  0  0  0  0  0  0  0  0  0  0
    5.9120   -4.5606   29.1047 C   0  0  0  0  0  0  0  0  0  0  0  0
   12.3904   -1.5527   22.0967 C   0  0  0  0  0  0  0  0  0  0  0  0
   12.1125    0.0224   23.9075 C   0  0  0  0  0  0  0  0  0  0  0  0
    6.8713   -3.7117   28.5641 C   0  0  0  0  0  0  0  0  0  0  0  0
    5.8175   -5.8436   28.5903 C   0  0  0  0  0  0  0  0  0  0  0  0
    7.5210   -5.4662   27.0958 C   0  0  0  0  0  0  0  0  0  0  0  0
   11.5805   -0.9472   23.0575 C   0  0  0  0  0  0  0  0  0  0  0  0
    7.6952   -4.1654   27.5400 C   0  0  0  0  0  0  0  0  0  0  0  0
    9.3620   -2.2782   27.6601 C   0  0  0  0  0  0  0  0  0  0  0  0
    8.2522   -4.7655   23.7335 C   0  0  0  0  0  0  0  0  0  0  0  0
    7.4656   -2.4234   24.2438 C   0  0  0  0  0  0  0  0  0  0  0  0
    8.1770   -1.1150   24.5996 C   0  0  0  0  0  0  0  0  0  0  0  0
   10.1611   -2.2556   25.4258 C   0  0  2  0  0  0  0  0  0  0  0  0
    9.2515   -3.4930   25.6204 C   0  0  1  0  0  0  0  0  0  0  0  0
    7.3101   -4.7498   22.5547 C   0  0  0  0  0  0  0  0  0  0  0  0
   10.1359   -1.3384   23.1772 C   0  0  0  0  0  0  0  0  0  0  0  0
    6.6000   -6.3200   27.5962 N   0  0  0  0  0  0  0  0  0  0  0  0
   10.2712   -1.7056   26.7580 N   0  0  0  0  0  0  0  0  0  0  0  0
    8.6867   -3.3194   26.9660 N   0  0  0  0  0  0  0  0  0  0  0  0
    8.2854   -3.6083   24.5188 N   0  0  0  0  0  0  0  0  0  0  0  0
    9.6427   -1.1979   24.5461 N   0  0  1  0  0  0  0  0  0  0  0  0
    9.2426   -1.9252   28.8265 O   0  0  0  0  0  0  0  0  0  0  0  0
    8.9330   -5.7715   23.9479 O   0  0  0  0  0  0  0  0  0  0  0  0
   15.3096    0.0633   22.7503 H   0  0  0  0  0  0  0  0  0  0  0  0
   14.3630   -1.6610   21.2384 H   0  0  0  0  0  0  0  0  0  0  0  0
   13.8687    1.1406   24.4593 H   0  0  0  0  0  0  0  0  0  0  0  0
    5.2589   -4.2282   29.9036 H   0  0  0  0  0  0  0  0  0  0  0  0
   11.9844   -2.3090   21.4301 H   0  0  0  0  0  0  0  0  0  0  0  0
   11.4891    0.4996   24.6590 H   0  0  0  0  0  0  0  0  0  0  0  0
    6.9683   -2.6995   28.9478 H   0  0  0  0  0  0  0  0  0  0  0  0
    5.0848   -6.5440   28.9774 H   0  0  0  0  0  0  0  0  0  0  0  0
    8.1339   -5.8776   26.2993 H   0  0  0  0  0  0  0  0  0  0  0  0
    6.5123   -2.5276   24.8116 H   0  0  0  0  0  0  0  0  0  0  0  0
    7.1537   -2.3839   23.1792 H   0  0  0  0  0  0  0  0  0  0  0  0
    7.8055   -0.3021   23.9369 H   0  0  0  0  0  0  0  0  0  0  0  0
    7.8648   -0.8262   25.6250 H   0  0  0  0  0  0  0  0  0  0  0  0
   11.1735   -2.5877   25.0923 H   0  0  0  0  0  0  0  0  0  0  0  0
    9.8659   -4.3894   25.6623 H   0  0  0  0  0  0  0  0  0  0  0  0
    7.8349   -4.3662   21.6859 H   0  0  0  0  0  0  0  0  0  0  0  0
    6.4616   -4.1137   22.7861 H   0  0  0  0  0  0  0  0  0  0  0  0
    6.9643   -5.7605   22.3628 H   0  0  0  0  0  0  0  0  0  0  0  0
    9.5119   -0.7145   22.5281 H   0  0  0  0  0  0  0  0  0  0  0  0
    9.9840   -2.3790   22.8718 H   0  0  0  0  0  0  0  0  0  0  0  0
   10.9409   -0.9767   27.0141 H   0  0  0  0  0  0  0  0  0  0  0  0
  1  2  1  0  0  0  0
  1  3  2  0  0  0  0
  2  5  2  0  0  0  0
  3  6  1  0  0  0  0
  4  7  2  0  0  0  0
  4  8  1  0  0  0  0
  5 10  1  0  0  0  0
  6 10  2  0  0  0  0
  7 11  1  0  0  0  0
  8 20  2  0  0  0  0
  9 11  2  0  0  0  0
  9 20  1  0  0  0  0
 10 19  1  0  0  0  0
 11 22  1  0  0  0  0
 12 21  1  0  0  0  0
 12 22  1  0  0  0  0
 12 25  2  0  0  0  0
 13 18  1  0  0  0  0
 13 23  1  0  0  0  0
 13 26  2  0  0  0  0
 14 15  1  0  0  0  0
 14 23  1  0  0  0  0
 15 24  1  0  0  0  0
 16 17  1  0  0  0  0
 16 21  1  6  0  0  0
 16 24  1  0  0  0  0
 17 22  1  0  0  0  0
 17 23  1  1  0  0  0
 19 24  1  6  0  0  0
  1 27  1  0  0  0  0
  2 28  1  0  0  0  0
  3 29  1  0  0  0  0
  4 30  1  0  0  0  0
  5 31  1  0  0  0  0
  6 32  1  0  0  0  0
  7 33  1  0  0  0  0
  8 34  1  0  0  0  0
  9 35  1  0  0  0  0
 14 36  1  0  0  0  0
 14 37  1  0  0  0  0
 15 38  1  0  0  0  0
 15 39  1  0  0  0  0
 16 40  1  0  0  0  0
 17 41  1  0  0  0  0
 18 42  1  0  0  0  0
 18 43  1  0  0  0  0
 18 44  1  0  0  0  0
 19 45  1  0  0  0  0
 19 46  1  0  0  0  0
 21 47  1  0  0  0  0
M  END
> <Chemgauss4 Score>
-4.7633695602417

> <Number of Confs>
38

$$$$
SAL-INS-cba-8
  -OEChem-03242005443D

 47 50  0     0  0  0  0  0  0999 V2000
   11.9846   -1.4299   22.6044 C   0  0  0  0  0  0  0  0  0  0  0  0
   11.1619   -0.6687   21.8030 C   0  0  0  0  0  0  0  0  0  0  0  0
    6.0980   -4.4619   27.6930 C   0  0  0  0  0  0  0  0  0  0  0  0
    5.4386   -6.4806   27.1040 C   0  0  0  0  0  0  0  0  0  0  0  0
    8.9127   -2.0138   24.3193 C   0  0  0  0  0  0  0  0  0  0  0  0
    9.8641   -1.5362   23.3804 C   0  0  0  0  0  0  0  0  0  0  0  0
   11.1353   -1.9775   23.6084 C   0  0  0  0  0  0  0  0  0  0  0  0
    7.1389   -5.3598   27.7232 C   0  0  0  0  0  0  0  0  0  0  0  0
    9.5362   -2.8236   25.2446 C   0  0  0  0  0  0  0  0  0  0  0  0
    9.4456   -4.7123   26.9089 C   0  0  0  0  0  0  0  0  0  0  0  0
    6.9584   -3.6506   22.8062 C   0  0  0  0  0  0  0  0  0  0  0  0
    5.0884   -2.4646   24.0282 C   0  0  0  0  0  0  0  0  0  0  0  0
    6.0471   -4.8547   22.5874 C   0  0  0  0  0  0  0  0  0  0  0  0
    4.1825   -3.6720   23.8061 C   0  0  0  0  0  0  0  0  0  0  0  0
    6.5689   -2.8683   24.0683 C   0  0  0  0  0  0  0  0  0  0  0  0
    4.5752   -4.4488   22.5522 C   0  0  0  0  0  0  0  0  0  0  0  0
    7.4589   -1.6382   24.2362 C   0  0  0  0  0  0  0  0  0  0  0  0
    8.5772   -5.1077   28.0928 C   0  0  0  0  0  0  0  0  0  0  0  0
    6.7220   -6.6145   27.3552 N   0  0  0  0  0  0  0  0  0  0  0  0
    5.0156   -5.1944   27.2942 N   0  0  0  0  0  0  0  0  0  0  0  0
    9.8760   -0.7299   22.2692 N   0  0  0  0  0  0  0  0  0  0  0  0
    9.0134   -3.4944   26.3183 N   0  0  0  0  0  0  0  0  0  0  0  0
   10.3968   -5.3922   26.5375 O   0  0  0  0  0  0  0  0  0  0  0  0
    3.7598   -5.6122   22.4641 O   0  0  0  0  0  0  0  0  0  0  0  0
   11.2298   -3.0096   24.9968 S   0  0  0  0  0  0  0  0  0  0  0  0
   13.0488   -1.5730   22.4838 H   0  0  0  0  0  0  0  0  0  0  0  0
   11.3871   -0.0789   20.9254 H   0  0  0  0  0  0  0  0  0  0  0  0
    6.0275   -3.4058   27.9100 H   0  0  0  0  0  0  0  0  0  0  0  0
    4.7669   -7.2650   26.7848 H   0  0  0  0  0  0  0  0  0  0  0  0
    7.9972   -3.9925   22.8837 H   0  0  0  0  0  0  0  0  0  0  0  0
    6.9055   -2.9941   21.9282 H   0  0  0  0  0  0  0  0  0  0  0  0
    4.9216   -1.7356   23.2246 H   0  0  0  0  0  0  0  0  0  0  0  0
    4.8102   -1.9712   24.9670 H   0  0  0  0  0  0  0  0  0  0  0  0
    6.3135   -5.3625   21.6525 H   0  0  0  0  0  0  0  0  0  0  0  0
    6.2092   -5.5945   23.3824 H   0  0  0  0  0  0  0  0  0  0  0  0
    4.2228   -4.3350   24.6801 H   0  0  0  0  0  0  0  0  0  0  0  0
    3.1381   -3.3468   23.7298 H   0  0  0  0  0  0  0  0  0  0  0  0
    6.7253   -3.5190   24.9392 H   0  0  0  0  0  0  0  0  0  0  0  0
    4.3812   -3.8365   21.6634 H   0  0  0  0  0  0  0  0  0  0  0  0
    7.1612   -1.0941   25.1381 H   0  0  0  0  0  0  0  0  0  0  0  0
    7.2968   -0.9545   23.3969 H   0  0  0  0  0  0  0  0  0  0  0  0
    8.6295   -4.3130   28.8480 H   0  0  0  0  0  0  0  0  0  0  0  0
    9.0003   -6.0082   28.5558 H   0  0  0  0  0  0  0  0  0  0  0  0
    4.0741   -4.8491   27.1643 H   0  0  0  0  0  0  0  0  0  0  0  0
    9.0558   -0.2746   21.8888 H   0  0  0  0  0  0  0  0  0  0  0  0
    8.1862   -3.0513   26.7625 H   0  0  0  0  0  0  0  0  0  0  0  0
    4.0113   -6.0667   21.6446 H   0  0  0  0  0  0  0  0  0  0  0  0
  1  2  2  0  0  0  0
  1  7  1  0  0  0  0
  2 21  1  0  0  0  0
  3  8  2  0  0  0  0
  3 20  1  0  0  0  0
  4 19  2  0  0  0  0
  4 20  1  0  0  0  0
  5  6  1  0  0  0  0
  5  9  2  0  0  0  0
  5 17  1  0  0  0  0
  6  7  2  0  0  0  0
  6 21  1  0  0  0  0
  7 25  1  0  0  0  0
  8 18  1  0  0  0  0
  8 19  1  0  0  0  0
  9 22  1  0  0  0  0
  9 25  1  0  0  0  0
 10 18  1  0  0  0  0
 10 22  1  0  0  0  0
 10 23  2  0  0  0  0
 11 13  1  0  0  0  0
 11 15  1  0  0  0  0
 12 14  1  0  0  0  0
 12 15  1  0  0  0  0
 13 16  1  0  0  0  0
 14 16  1  0  0  0  0
 15 17  1  0  0  0  0
 16 24  1  0  0  0  0
  1 26  1  0  0  0  0
  2 27  1  0  0  0  0
  3 28  1  0  0  0  0
  4 29  1  0  0  0  0
 11 30  1  0  0  0  0
 11 31  1  0  0  0  0
 12 32  1  0  0  0  0
 12 33  1  0  0  0  0
 13 34  1  0  0  0  0
 13 35  1  0  0  0  0
 14 36  1  0  0  0  0
 14 37  1  0  0  0  0
 15 38  1  0  0  0  0
 16 39  1  0  0  0  0
 17 40  1  0  0  0  0
 17 41  1  0  0  0  0
 18 42  1  0  0  0  0
 18 43  1  0  0  0  0
 20 44  1  0  0  0  0
 21 45  1  0  0  0  0
 22 46  1  0  0  0  0
 24 47  1  0  0  0  0
M  END
> <Chemgauss4 Score>
-4.76248836517334

> <Number of Confs>
200

$$$$
JOH-MSK-a63-6
  -OEChem-03242005443D

 49 51  0     1  0  0  0  0  0999 V2000
    9.9580   -1.3707   28.5461 C   0  0  0  0  0  0  0  0  0  0  0  0
   10.5873   -0.7334   27.4729 C   0  0  0  0  0  0  0  0  0  0  0  0
   10.0261   -2.5653   25.9808 C   0  0  0  0  0  0  0  0  0  0  0  0
    8.2806   -4.5799   28.4819 C   0  0  0  0  0  0  0  0  0  0  0  0
    9.3859   -3.2269   27.0476 C   0  0  0  0  0  0  0  0  0  0  0  0
    8.6968   -4.4653   27.1755 C   0  0  0  0  0  0  0  0  0  0  0  0
    9.3667   -2.6155   28.3030 C   0  0  0  0  0  0  0  0  0  0  0  0
   10.6220   -1.3196   26.2092 C   0  0  0  0  0  0  0  0  0  0  0  0
    7.6087    1.0080   23.6557 C   0  0  0  0  0  0  0  0  0  0  0  0
    6.0946   -3.1503   25.6833 C   0  0  0  0  0  0  0  0  0  0  0  0
    9.0898    0.8258   23.9225 C   0  0  2  0  0  0  0  0  0  0  0  0
    9.8387    1.6639   22.8856 C   0  0  2  0  0  0  0  0  0  0  0  0
   11.3400    1.3640   22.9247 C   0  0  2  0  0  0  0  0  0  0  0  0
   11.5448   -0.1485   22.8142 C   0  0  2  0  0  0  0  0  0  0  0  0
   10.7342   -0.9108   23.8689 C   0  0  2  0  0  0  0  0  0  0  0  0
    5.8187   -1.9235   24.8788 C   0  0  0  0  0  0  0  0  0  0  0  0
    8.4634   -5.4563   26.1058 C   0  0  0  0  0  0  0  0  0  0  0  0
    7.0288   -5.4506   25.5471 C   0  0  0  0  0  0  0  0  0  0  0  0
    8.6891   -3.4593   29.1541 N   0  0  0  0  0  0  0  0  0  0  0  0
    6.6783   -4.1823   24.9661 N   0  0  0  0  0  0  0  0  0  0  0  0
    7.2244    0.6762   22.5000 O   0  5  0  0  0  0  0  0  0  0  0  0
    6.9482    1.4700   24.6280 O   0  0  0  0  0  0  0  0  0  0  0  0
    5.8038   -3.1703   26.8736 O   0  0  0  0  0  0  0  0  0  0  0  0
    9.3496   -0.5677   23.7633 O   0  0  0  0  0  0  0  0  0  0  0  0
    9.6227    3.0530   23.1125 O   0  0  0  0  0  0  0  0  0  0  0  0
   11.8801    1.8467   24.1560 O   0  0  0  0  0  0  0  0  0  0  0  0
   12.9215   -0.4824   22.9261 O   0  0  0  0  0  0  0  0  0  0  0  0
   11.2451   -0.6706   25.1774 O   0  0  0  0  0  0  0  0  0  0  0  0
    9.9320   -0.9136   29.5296 H   0  0  0  0  0  0  0  0  0  0  0  0
   11.0559    0.2346   27.6347 H   0  0  0  0  0  0  0  0  0  0  0  0
   10.0579   -3.0143   24.9918 H   0  0  0  0  0  0  0  0  0  0  0  0
    7.7309   -5.3572   28.9943 H   0  0  0  0  0  0  0  0  0  0  0  0
    9.2920    1.1468   24.9503 H   0  0  0  0  0  0  0  0  0  0  0  0
    9.4645    1.4285   21.8760 H   0  0  0  0  0  0  0  0  0  0  0  0
   11.8672    1.8967   22.1257 H   0  0  0  0  0  0  0  0  0  0  0  0
   11.2041   -0.4650   21.8200 H   0  0  0  0  0  0  0  0  0  0  0  0
   10.8293   -1.9860   23.6806 H   0  0  0  0  0  0  0  0  0  0  0  0
    4.8174   -1.9384   24.4193 H   0  0  0  0  0  0  0  0  0  0  0  0
    5.8456   -1.0061   25.4885 H   0  0  0  0  0  0  0  0  0  0  0  0
    6.5167   -1.7388   24.0467 H   0  0  0  0  0  0  0  0  0  0  0  0
    8.6776   -6.4770   26.4797 H   0  0  0  0  0  0  0  0  0  0  0  0
    9.1712   -5.3154   25.2640 H   0  0  0  0  0  0  0  0  0  0  0  0
    6.9112   -6.2017   24.7596 H   0  0  0  0  0  0  0  0  0  0  0  0
    6.2999   -5.6655   26.3354 H   0  0  0  0  0  0  0  0  0  0  0  0
    8.5189   -3.2772   30.1335 H   0  0  0  0  0  0  0  0  0  0  0  0
    6.8690   -4.0351   23.9762 H   0  0  0  0  0  0  0  0  0  0  0  0
   10.1202    3.5263   22.4273 H   0  0  0  0  0  0  0  0  0  0  0  0
   12.8259    1.6378   24.1394 H   0  0  0  0  0  0  0  0  0  0  0  0
   13.3800   -0.0290   22.2001 H   0  0  0  0  0  0  0  0  0  0  0  0
  1  2  2  0  0  0  0
  1  7  1  0  0  0  0
  2  8  1  0  0  0  0
  3  5  1  0  0  0  0
  3  8  2  0  0  0  0
  4  6  2  0  0  0  0
  4 19  1  0  0  0  0
  5  6  1  0  0  0  0
  5  7  2  0  0  0  0
  6 17  1  0  0  0  0
  7 19  1  0  0  0  0
  8 28  1  0  0  0  0
  9 11  1  6  0  0  0
  9 21  1  0  0  0  0
  9 22  2  0  0  0  0
 10 16  1  0  0  0  0
 10 20  1  0  0  0  0
 10 23  2  0  0  0  0
 11 12  1  0  0  0  0
 11 24  1  0  0  0  0
 12 13  1  0  0  0  0
 12 25  1  1  0  0  0
 13 14  1  0  0  0  0
 13 26  1  1  0  0  0
 14 15  1  0  0  0  0
 14 27  1  1  0  0  0
 15 24  1  0  0  0  0
 15 28  1  6  0  0  0
 17 18  1  0  0  0  0
 18 20  1  0  0  0  0
  1 29  1  0  0  0  0
  2 30  1  0  0  0  0
  3 31  1  0  0  0  0
  4 32  1  0  0  0  0
 11 33  1  0  0  0  0
 12 34  1  0  0  0  0
 13 35  1  0  0  0  0
 14 36  1  0  0  0  0
 15 37  1  0  0  0  0
 16 38  1  0  0  0  0
 16 39  1  0  0  0  0
 16 40  1  0  0  0  0
 17 41  1  0  0  0  0
 17 42  1  0  0  0  0
 18 43  1  0  0  0  0
 18 44  1  0  0  0  0
 19 45  1  0  0  0  0
 20 46  1  0  0  0  0
 25 47  1  0  0  0  0
 26 48  1  0  0  0  0
 27 49  1  0  0  0  0
M  CHG  1  21  -1
M  END
> <Chemgauss4 Score>
-4.76222896575928

> <Number of Confs>
200

$$$$
DAN-LON-a5f-7
  -OEChem-03242005443D

 43 44  0     1  0  0  0  0  0999 V2000
   11.0649    0.0782   24.2155 C   0  0  0  0  0  0  0  0  0  0  0  0
   10.2704   -1.0465   23.9931 C   0  0  0  0  0  0  0  0  0  0  0  0
   12.2264    0.2706   23.4674 C   0  0  0  0  0  0  0  0  0  0  0  0
   11.7990   -1.7865   22.2746 C   0  0  0  0  0  0  0  0  0  0  0  0
   10.6374   -1.9788   23.0227 C   0  0  0  0  0  0  0  0  0  0  0  0
   12.5935   -0.6618   22.4971 C   0  0  0  0  0  0  0  0  0  0  0  0
    7.4277   -4.5685   27.4389 C   0  0  0  0  0  0  0  0  0  0  0  0
    9.2515   -5.3240   25.8427 C   0  0  0  0  0  0  0  0  0  0  0  0
    9.9908   -4.3955   24.8691 C   0  0  0  0  0  0  0  0  0  0  0  0
    7.8701   -4.3629   23.6952 C   0  0  0  0  0  0  0  0  0  0  0  0
    7.0516   -4.5575   24.9882 C   0  0  1  0  0  0  0  0  0  0  0  0
    5.2321   -5.8901   26.0915 C   0  0  0  0  0  0  0  0  0  0  0  0
    5.0804   -5.3422   23.6460 C   0  0  0  0  0  0  0  0  0  0  0  0
    9.7824   -3.1898   22.7847 C   0  0  0  0  0  0  0  0  0  0  0  0
    7.9762   -5.4293   28.5484 C   0  0  0  0  0  0  0  0  0  0  0  0
    6.0199   -5.6713   24.8028 C   0  0  0  0  0  0  0  0  0  0  0  0
    7.9151   -4.8153   26.1545 N   0  0  0  0  0  0  0  0  0  0  0  0
    9.0942   -3.6194   23.9979 N   0  0  2  0  0  0  0  0  0  0  0  0
    6.5916   -3.7004   27.7030 O   0  0  0  0  0  0  0  0  0  0  0  0
   14.0272   -0.4244   21.5752 Cl  0  0  0  0  0  0  0  0  0  0  0  0
    6.7159   -5.5375   29.7724 Cl  0  0  0  0  0  0  0  0  0  0  0  0
   10.7788    0.8039   24.9714 H   0  0  0  0  0  0  0  0  0  0  0  0
    9.3671   -1.1884   24.5807 H   0  0  0  0  0  0  0  0  0  0  0  0
   12.8362    1.1516   23.6518 H   0  0  0  0  0  0  0  0  0  0  0  0
   12.0805   -2.5160   21.5188 H   0  0  0  0  0  0  0  0  0  0  0  0
    9.1069   -6.3092   25.3817 H   0  0  0  0  0  0  0  0  0  0  0  0
    9.8611   -5.4793   26.7348 H   0  0  0  0  0  0  0  0  0  0  0  0
   10.5990   -3.6862   25.4432 H   0  0  0  0  0  0  0  0  0  0  0  0
   10.6827   -5.0130   24.2815 H   0  0  0  0  0  0  0  0  0  0  0  0
    8.1080   -5.3261   23.2239 H   0  0  0  0  0  0  0  0  0  0  0  0
    7.2504   -3.8029   22.9832 H   0  0  0  0  0  0  0  0  0  0  0  0
    6.5085   -3.6260   25.1974 H   0  0  0  0  0  0  0  0  0  0  0  0
    4.6767   -4.9902   26.3776 H   0  0  0  0  0  0  0  0  0  0  0  0
    5.9017   -6.1514   26.9177 H   0  0  0  0  0  0  0  0  0  0  0  0
    4.5135   -6.7077   25.9716 H   0  0  0  0  0  0  0  0  0  0  0  0
    4.5190   -4.4212   23.8371 H   0  0  0  0  0  0  0  0  0  0  0  0
    4.3598   -6.1521   23.4903 H   0  0  0  0  0  0  0  0  0  0  0  0
    5.6411   -5.2098   22.7146 H   0  0  0  0  0  0  0  0  0  0  0  0
    9.0239   -2.9830   22.0219 H   0  0  0  0  0  0  0  0  0  0  0  0
   10.3841   -4.0312   22.4253 H   0  0  0  0  0  0  0  0  0  0  0  0
    8.8566   -4.9509   28.9623 H   0  0  0  0  0  0  0  0  0  0  0  0
    8.1967   -6.4143   28.1531 H   0  0  0  0  0  0  0  0  0  0  0  0
    6.5550   -6.5971   24.5622 H   0  0  0  0  0  0  0  0  0  0  0  0
  1  2  2  0  0  0  0
  1  3  1  0  0  0  0
  2  5  1  0  0  0  0
  3  6  2  0  0  0  0
  4  5  2  0  0  0  0
  4  6  1  0  0  0  0
  5 14  1  0  0  0  0
  6 20  1  0  0  0  0
  7 15  1  0  0  0  0
  7 17  1  0  0  0  0
  7 19  2  0  0  0  0
  8  9  1  0  0  0  0
  8 17  1  0  0  0  0
  9 18  1  0  0  0  0
 10 11  1  0  0  0  0
 10 18  1  0  0  0  0
 11 16  1  0  0  0  0
 11 17  1  0  0  0  0
 12 16  1  0  0  0  0
 13 16  1  0  0  0  0
 14 18  1  6  0  0  0
 15 21  1  0  0  0  0
  1 22  1  0  0  0  0
  2 23  1  0  0  0  0
  3 24  1  0  0  0  0
  4 25  1  0  0  0  0
  8 26  1  0  0  0  0
  8 27  1  0  0  0  0
  9 28  1  0  0  0  0
  9 29  1  0  0  0  0
 10 30  1  0  0  0  0
 10 31  1  0  0  0  0
 11 32  1  6  0  0  0
 12 33  1  0  0  0  0
 12 34  1  0  0  0  0
 12 35  1  0  0  0  0
 13 36  1  0  0  0  0
 13 37  1  0  0  0  0
 13 38  1  0  0  0  0
 14 39  1  0  0  0  0
 14 40  1  0  0  0  0
 15 41  1  0  0  0  0
 15 42  1  0  0  0  0
 16 43  1  0  0  0  0
M  END
> <Chemgauss4 Score>
-4.76003456115723

> <Number of Confs>
135

$$$$
JOR-UNI-2fc-11
  -OEChem-03242005443D

 50 52  0     0  0  0  0  0  0999 V2000
    8.1980   -5.7557   28.6345 C   0  0  0  0  0  0  0  0  0  0  0  0
   12.9656   -0.7874   22.7724 C   0  0  0  0  0  0  0  0  0  0  0  0
    8.7860   -5.0768   27.5674 C   0  0  0  0  0  0  0  0  0  0  0  0
   12.3460   -1.9599   23.1902 C   0  0  0  0  0  0  0  0  0  0  0  0
    6.9647   -6.3853   28.4660 C   0  0  0  0  0  0  0  0  0  0  0  0
    6.9074   -5.6567   26.1632 C   0  0  0  0  0  0  0  0  0  0  0  0
   12.5166    0.4094   23.3070 C   0  0  0  0  0  0  0  0  0  0  0  0
   10.9361   -0.6540   24.5913 C   0  0  0  0  0  0  0  0  0  0  0  0
    8.1407   -5.0272   26.3318 C   0  0  0  0  0  0  0  0  0  0  0  0
   11.3109   -1.9006   24.1167 C   0  0  0  0  0  0  0  0  0  0  0  0
    6.3194   -6.3358   27.2304 C   0  0  0  0  0  0  0  0  0  0  0  0
    9.6107   -3.1776   25.4825 C   0  0  0  0  0  0  0  0  0  0  0  0
    8.6917   -0.8886   21.8052 C   0  0  0  0  0  0  0  0  0  0  0  0
    6.4780   -0.5217   22.6890 C   0  0  0  0  0  0  0  0  0  0  0  0
    8.4988   -2.4019   21.9510 C   0  0  0  0  0  0  0  0  0  0  0  0
    6.2852   -2.0352   22.8335 C   0  0  0  0  0  0  0  0  0  0  0  0
    7.5900    1.2283   21.4576 C   0  0  0  0  0  0  0  0  0  0  0  0
    7.3879   -4.1509   23.1848 C   0  0  0  0  0  0  0  0  0  0  0  0
    8.5647   -4.8161   23.8785 C   0  0  0  0  0  0  0  0  0  0  0  0
   11.5143    0.5067   24.2089 N   0  0  0  0  0  0  0  0  0  0  0  0
    7.4047   -0.2152   21.5924 N   0  0  0  0  0  0  0  0  0  0  0  0
    7.5724   -2.7075   23.0481 N   0  0  0  0  0  0  0  0  0  0  0  0
   10.6605   -3.0774   24.5610 N   0  0  0  0  0  0  0  0  0  0  0  0
    8.7595   -4.3122   25.2110 N   0  0  0  0  0  0  0  0  0  0  0  0
    9.4379   -2.3887   26.4129 O   0  0  0  0  0  0  0  0  0  0  0  0
    4.7977   -7.1125   27.0223 Cl  0  0  0  0  0  0  0  0  0  0  0  0
    8.7005   -5.7942   29.5968 H   0  0  0  0  0  0  0  0  0  0  0  0
   13.7745   -0.8098   22.0511 H   0  0  0  0  0  0  0  0  0  0  0  0
    9.7475   -4.5898   27.7107 H   0  0  0  0  0  0  0  0  0  0  0  0
   12.6772   -2.9136   22.7878 H   0  0  0  0  0  0  0  0  0  0  0  0
    6.5190   -6.9107   29.3066 H   0  0  0  0  0  0  0  0  0  0  0  0
    6.4072   -5.6164   25.1981 H   0  0  0  0  0  0  0  0  0  0  0  0
   12.9665    1.3520   23.0129 H   0  0  0  0  0  0  0  0  0  0  0  0
   10.1350   -0.5433   25.3161 H   0  0  0  0  0  0  0  0  0  0  0  0
    9.1978   -0.4936   22.6966 H   0  0  0  0  0  0  0  0  0  0  0  0
    9.3514   -0.7061   20.9482 H   0  0  0  0  0  0  0  0  0  0  0  0
    5.5005   -0.0677   22.4858 H   0  0  0  0  0  0  0  0  0  0  0  0
    6.8414   -0.1036   23.6377 H   0  0  0  0  0  0  0  0  0  0  0  0
    8.1353   -2.8208   21.0027 H   0  0  0  0  0  0  0  0  0  0  0  0
    9.4764   -2.8559   22.1543 H   0  0  0  0  0  0  0  0  0  0  0  0
    5.6245   -2.2181   23.6897 H   0  0  0  0  0  0  0  0  0  0  0  0
    5.7804   -2.4301   21.9412 H   0  0  0  0  0  0  0  0  0  0  0  0
    6.6142    1.7106   21.2992 H   0  0  0  0  0  0  0  0  0  0  0  0
    8.0510    1.6258   22.3738 H   0  0  0  0  0  0  0  0  0  0  0  0
    8.2448    1.4351   20.5982 H   0  0  0  0  0  0  0  0  0  0  0  0
    6.4564   -4.3106   23.7371 H   0  0  0  0  0  0  0  0  0  0  0  0
    7.2683   -4.5563   22.1753 H   0  0  0  0  0  0  0  0  0  0  0  0
    8.3942   -5.8937   23.9642 H   0  0  0  0  0  0  0  0  0  0  0  0
    9.4962   -4.6550   23.3263 H   0  0  0  0  0  0  0  0  0  0  0  0
   10.9947   -3.9514   24.1648 H   0  0  0  0  0  0  0  0  0  0  0  0
  1  3  2  0  0  0  0
  1  5  1  0  0  0  0
  2  4  2  0  0  0  0
  2  7  1  0  0  0  0
  3  9  1  0  0  0  0
  4 10  1  0  0  0  0
  5 11  2  0  0  0  0
  6  9  2  0  0  0  0
  6 11  1  0  0  0  0
  7 20  2  0  0  0  0
  8 10  2  0  0  0  0
  8 20  1  0  0  0  0
  9 24  1  0  0  0  0
 10 23  1  0  0  0  0
 11 26  1  0  0  0  0
 12 23  1  0  0  0  0
 12 24  1  0  0  0  0
 12 25  2  0  0  0  0
 13 15  1  0  0  0  0
 13 21  1  0  0  0  0
 14 16  1  0  0  0  0
 14 21  1  0  0  0  0
 15 22  1  0  0  0  0
 16 22  1  0  0  0  0
 17 21  1  0  0  0  0
 18 19  1  0  0  0  0
 18 22  1  0  0  0  0
 19 24  1  0  0  0  0
  1 27  1  0  0  0  0
  2 28  1  0  0  0  0
  3 29  1  0  0  0  0
  4 30  1  0  0  0  0
  5 31  1  0  0  0  0
  6 32  1  0  0  0  0
  7 33  1  0  0  0  0
  8 34  1  0  0  0  0
 13 35  1  0  0  0  0
 13 36  1  0  0  0  0
 14 37  1  0  0  0  0
 14 38  1  0  0  0  0
 15 39  1  0  0  0  0
 15 40  1  0  0  0  0
 16 41  1  0  0  0  0
 16 42  1  0  0  0  0
 17 43  1  0  0  0  0
 17 44  1  0  0  0  0
 17 45  1  0  0  0  0
 18 46  1  0  0  0  0
 18 47  1  0  0  0  0
 19 48  1  0  0  0  0
 19 49  1  0  0  0  0
 23 50  1  0  0  0  0
M  END
> <Chemgauss4 Score>
-4.75945377349854

> <Number of Confs>
200

$$$$
MIH-UNI-6b9-1
  -OEChem-03242005443D

 28 29  0     0  0  0  0  0  0999 V2000
    9.1585   -4.4211   28.3567 C   0  0  0  0  0  0  0  0  0  0  0  0
   11.7635   -1.9746   22.6489 C   0  0  0  0  0  0  0  0  0  0  0  0
    8.6502   -5.6411   27.9408 C   0  0  0  0  0  0  0  0  0  0  0  0
    8.5145   -4.9413   25.7568 C   0  0  0  0  0  0  0  0  0  0  0  0
   12.9833   -1.3718   22.8639 C   0  0  0  0  0  0  0  0  0  0  0  0
   11.1111    0.0437   23.5993 C   0  0  0  0  0  0  0  0  0  0  0  0
    9.3420   -3.4314   27.3974 C   0  0  0  0  0  0  0  0  0  0  0  0
   10.6788   -1.1547   23.0748 C   0  0  0  0  0  0  0  0  0  0  0  0
    9.0162   -3.6884   26.0703 C   0  0  0  0  0  0  0  0  0  0  0  0
    8.9006   -2.8427   23.7004 C   0  0  0  0  0  0  0  0  0  0  0  0
    9.8879   -2.1064   27.8180 C   0  0  0  0  0  0  0  0  0  0  0  0
    9.2306   -1.5536   22.9646 C   0  0  0  0  0  0  0  0  0  0  0  0
    8.3223   -5.9278   26.6610 N   0  0  0  0  0  0  0  0  0  0  0  0
    9.1827   -2.7286   25.0723 N   0  0  0  0  0  0  0  0  0  0  0  0
    8.4499   -3.8286   23.1259 O   0  0  0  0  0  0  0  0  0  0  0  0
   12.8182    0.1765   23.5766 S   0  0  0  0  0  0  0  0  0  0  0  0
    9.4024   -4.2525   29.4001 H   0  0  0  0  0  0  0  0  0  0  0  0
   11.6588   -2.9576   22.2072 H   0  0  0  0  0  0  0  0  0  0  0  0
    8.4882   -6.4461   28.6501 H   0  0  0  0  0  0  0  0  0  0  0  0
    8.2422   -5.2024   24.7383 H   0  0  0  0  0  0  0  0  0  0  0  0
   13.9636   -1.7667   22.6372 H   0  0  0  0  0  0  0  0  0  0  0  0
   10.5097    0.8495   23.9969 H   0  0  0  0  0  0  0  0  0  0  0  0
   10.9823   -2.1097   27.7568 H   0  0  0  0  0  0  0  0  0  0  0  0
    9.5045   -1.2996   27.1814 H   0  0  0  0  0  0  0  0  0  0  0  0
    9.5960   -1.8664   28.8480 H   0  0  0  0  0  0  0  0  0  0  0  0
    8.5961   -0.7505   23.3607 H   0  0  0  0  0  0  0  0  0  0  0  0
    8.9621   -1.6721   21.9071 H   0  0  0  0  0  0  0  0  0  0  0  0
    9.5592   -1.8237   25.3788 H   0  0  0  0  0  0  0  0  0  0  0  0
  1  3  2  0  0  0  0
  1  7  1  0  0  0  0
  2  5  2  0  0  0  0
  2  8  1  0  0  0  0
  3 13  1  0  0  0  0
  4  9  1  0  0  0  0
  4 13  2  0  0  0  0
  5 16  1  0  0  0  0
  6  8  2  0  0  0  0
  6 16  1  0  0  0  0
  7  9  2  0  0  0  0
  7 11  1  0  0  0  0
  8 12  1  0  0  0  0
  9 14  1  0  0  0  0
 10 12  1  0  0  0  0
 10 14  1  0  0  0  0
 10 15  2  0  0  0  0
  1 17  1  0  0  0  0
  2 18  1  0  0  0  0
  3 19  1  0  0  0  0
  4 20  1  0  0  0  0
  5 21  1  0  0  0  0
  6 22  1  0  0  0  0
 11 23  1  0  0  0  0
 11 24  1  0  0  0  0
 11 25  1  0  0  0  0
 12 26  1  0  0  0  0
 12 27  1  0  0  0  0
 14 28  1  0  0  0  0
M  END
> <Chemgauss4 Score>
-4.75902271270752

> <Number of Confs>
12

$$$$
PAU-WEI-c6d-1
  -OEChem-03242005443D

 55 57  0     1  0  0  0  0  0999 V2000
    6.2094    0.2523   18.8661 C   0  0  0  0  0  0  0  0  0  0  0  0
    5.6182   -0.9491   19.2565 C   0  0  0  0  0  0  0  0  0  0  0  0
    7.3342    0.7276   19.5404 C   0  0  0  0  0  0  0  0  0  0  0  0
    6.1516   -1.6753   20.3213 C   0  0  0  0  0  0  0  0  0  0  0  0
    7.8676    0.0015   20.6052 C   0  0  0  0  0  0  0  0  0  0  0  0
    7.2763   -1.2000   20.9957 C   0  0  0  0  0  0  0  0  0  0  0  0
    9.9804   -1.1402   24.7194 C   0  0  0  0  0  0  0  0  0  0  0  0
    6.9268   -5.1752   26.6864 C   0  0  0  0  0  0  0  0  0  0  0  0
   12.9524   -0.0718   21.9362 C   0  0  0  0  0  0  0  0  0  0  0  0
   12.1924    0.9297   22.8043 C   0  0  0  0  0  0  0  0  0  0  0  0
   12.2094   -1.4050   21.8627 C   0  0  0  0  0  0  0  0  0  0  0  0
    9.8953   -3.4199   25.6202 C   0  0  0  0  0  0  0  0  0  0  0  0
   11.8841    0.3455   24.1801 C   0  0  0  0  0  0  0  0  0  0  0  0
   11.8994   -1.9456   23.2569 C   0  0  0  0  0  0  0  0  0  0  0  0
    9.1948   -4.7741   25.6134 C   0  0  0  0  0  0  0  0  0  0  0  0
    7.1529   -3.7646   24.6672 C   0  0  0  0  0  0  0  0  0  0  0  0
    9.3339   -2.4825   24.5444 C   0  0  1  0  0  0  0  0  0  0  0  0
    7.7992   -2.3707   24.6374 C   0  0  1  0  0  0  0  0  0  0  0  0
    7.8533   -1.9844   22.1470 C   0  0  0  0  0  0  0  0  0  0  0  0
    7.6095   -6.0383   27.7175 C   0  0  0  0  0  0  0  0  0  0  0  0
    7.2224   -1.5625   23.4709 C   0  0  0  0  0  0  0  0  0  0  0  0
   11.1927   -0.9399   24.0602 N   0  0  0  0  0  0  0  0  0  0  0  0
    7.7430   -4.6016   25.7118 N   0  0  0  0  0  0  0  0  0  0  0  0
    9.4246   -0.2905   25.4202 O   0  0  0  0  0  0  0  0  0  0  0  0
    5.7051   -5.0151   26.7486 O   0  0  0  0  0  0  0  0  0  0  0  0
    8.0935   -4.9687   29.0288 Cl  0  0  0  0  0  0  0  0  0  0  0  0
    5.7948    0.8170   18.0361 H   0  0  0  0  0  0  0  0  0  0  0  0
    4.7430   -1.3199   18.7309 H   0  0  0  0  0  0  0  0  0  0  0  0
    7.7955    1.6625   19.2360 H   0  0  0  0  0  0  0  0  0  0  0  0
    5.6841   -2.6103   20.6187 H   0  0  0  0  0  0  0  0  0  0  0  0
    8.7441    0.3796   21.1248 H   0  0  0  0  0  0  0  0  0  0  0  0
   13.0871    0.3360   20.9282 H   0  0  0  0  0  0  0  0  0  0  0  0
   13.9533   -0.2333   22.3549 H   0  0  0  0  0  0  0  0  0  0  0  0
   12.7858    1.8441   22.9157 H   0  0  0  0  0  0  0  0  0  0  0  0
   11.2560    1.2123   22.3076 H   0  0  0  0  0  0  0  0  0  0  0  0
   11.2741   -1.2758   21.3038 H   0  0  0  0  0  0  0  0  0  0  0  0
   12.8153   -2.1324   21.3110 H   0  0  0  0  0  0  0  0  0  0  0  0
    9.7898   -2.9628   26.6133 H   0  0  0  0  0  0  0  0  0  0  0  0
   10.9714   -3.5641   25.4621 H   0  0  0  0  0  0  0  0  0  0  0  0
   12.8115    0.1668   24.7372 H   0  0  0  0  0  0  0  0  0  0  0  0
   11.2875    1.0578   24.7587 H   0  0  0  0  0  0  0  0  0  0  0  0
   11.3303   -2.8724   23.1667 H   0  0  0  0  0  0  0  0  0  0  0  0
   12.8283   -2.1868   23.7873 H   0  0  0  0  0  0  0  0  0  0  0  0
    9.3954   -5.3018   24.6734 H   0  0  0  0  0  0  0  0  0  0  0  0
    9.5922   -5.3927   26.4198 H   0  0  0  0  0  0  0  0  0  0  0  0
    6.0714   -3.6719   24.8130 H   0  0  0  0  0  0  0  0  0  0  0  0
    7.3065   -4.2844   23.7132 H   0  0  0  0  0  0  0  0  0  0  0  0
    9.6201   -2.8637   23.5553 H   0  0  0  0  0  0  0  0  0  0  0  0
    7.5317   -1.8478   25.5664 H   0  0  0  0  0  0  0  0  0  0  0  0
    7.6949   -3.0578   21.9805 H   0  0  0  0  0  0  0  0  0  0  0  0
    8.9408   -1.8397   22.1864 H   0  0  0  0  0  0  0  0  0  0  0  0
    8.4835   -6.4966   27.2691 H   0  0  0  0  0  0  0  0  0  0  0  0
    6.9038   -6.7767   28.0803 H   0  0  0  0  0  0  0  0  0  0  0  0
    7.4005   -0.5010   23.6618 H   0  0  0  0  0  0  0  0  0  0  0  0
    6.1397   -1.7113   23.4469 H   0  0  0  0  0  0  0  0  0  0  0  0
  1  2  1  0  0  0  0
  1  3  2  0  0  0  0
  2  4  2  0  0  0  0
  3  5  1  0  0  0  0
  4  6  1  0  0  0  0
  5  6  2  0  0  0  0
  6 19  1  0  0  0  0
  7 17  1  0  0  0  0
  7 22  1  0  0  0  0
  7 24  2  0  0  0  0
  8 20  1  0  0  0  0
  8 23  1  0  0  0  0
  8 25  2  0  0  0  0
  9 10  1  0  0  0  0
  9 11  1  0  0  0  0
 10 13  1  0  0  0  0
 11 14  1  0  0  0  0
 12 15  1  0  0  0  0
 12 17  1  0  0  0  0
 13 22  1  0  0  0  0
 14 22  1  0  0  0  0
 15 23  1  0  0  0  0
 16 18  1  0  0  0  0
 16 23  1  0  0  0  0
 17 18  1  0  0  0  0
 18 21  1  0  0  0  0
 19 21  1  0  0  0  0
 20 26  1  0  0  0  0
  1 27  1  0  0  0  0
  2 28  1  0  0  0  0
  3 29  1  0  0  0  0
  4 30  1  0  0  0  0
  5 31  1  0  0  0  0
  9 32  1  0  0  0  0
  9 33  1  0  0  0  0
 10 34  1  0  0  0  0
 10 35  1  0  0  0  0
 11 36  1  0  0  0  0
 11 37  1  0  0  0  0
 12 38  1  0  0  0  0
 12 39  1  0  0  0  0
 13 40  1  0  0  0  0
 13 41  1  0  0  0  0
 14 42  1  0  0  0  0
 14 43  1  0  0  0  0
 15 44  1  0  0  0  0
 15 45  1  0  0  0  0
 16 46  1  0  0  0  0
 16 47  1  0  0  0  0
 17 48  1  1  0  0  0
 18 49  1  6  0  0  0
 19 50  1  0  0  0  0
 19 51  1  0  0  0  0
 20 52  1  0  0  0  0
 20 53  1  0  0  0  0
 21 54  1  0  0  0  0
 21 55  1  0  0  0  0
M  END
> <Chemgauss4 Score>
-4.7473030090332

> <Number of Confs>
141

$$$$
ADA-UNI-f8e-12
  -OEChem-03242005443D

 40 42  0     1  0  0  0  0  0999 V2000
   12.8954   -1.4917   22.4950 C   0  0  0  0  0  0  0  0  0  0  0  0
    7.6668   -4.1579   28.8533 C   0  0  0  0  0  0  0  0  0  0  0  0
   11.5905   -1.9841   22.4761 C   0  0  0  0  0  0  0  0  0  0  0  0
    7.9667   -3.2774   27.8198 C   0  0  0  0  0  0  0  0  0  0  0  0
   13.2687   -0.5415   23.4455 C   0  0  0  0  0  0  0  0  0  0  0  0
   11.0320   -0.5758   24.3582 C   0  0  0  0  0  0  0  0  0  0  0  0
    7.7503   -5.5162   28.5930 C   0  0  0  0  0  0  0  0  0  0  0  0
    8.3896   -5.1506   26.4168 C   0  0  0  0  0  0  0  0  0  0  0  0
   10.6588   -1.5261   23.4077 C   0  0  0  0  0  0  0  0  0  0  0  0
    8.3359   -3.7752   26.5751 C   0  0  0  0  0  0  0  0  0  0  0  0
   12.3370   -0.0835   24.3770 C   0  0  0  0  0  0  0  0  0  0  0  0
    9.0272   -3.2526   24.2143 C   0  0  0  0  0  0  0  0  0  0  0  0
    8.1302   -1.0385   23.2907 C   0  0  0  0  0  0  0  0  0  0  0  0
    8.4666   -1.8760   22.0960 C   0  0  1  0  0  0  0  0  0  0  0  0
    9.2648   -2.0524   23.3871 C   0  0  1  0  0  0  0  0  0  0  0  0
    5.9444   -4.6166   22.2491 C   0  0  0  0  0  0  0  0  0  0  0  0
    7.5010   -2.9044   21.6120 C   0  0  0  0  0  0  0  0  0  0  0  0
    8.1053   -6.0371   27.3970 N   0  0  0  0  0  0  0  0  0  0  0  0
    8.6466   -2.9042   25.5040 N   0  0  0  0  0  0  0  0  0  0  0  0
    6.8875   -3.5968   22.7112 N   0  0  0  0  0  0  0  0  0  0  0  0
    9.1670   -4.3771   23.7444 O   0  0  0  0  0  0  0  0  0  0  0  0
   12.7982    1.0889   25.5495 Cl  0  0  0  0  0  0  0  0  0  0  0  0
   13.6208   -1.8483   21.7696 H   0  0  0  0  0  0  0  0  0  0  0  0
    7.3768   -3.7922   29.8318 H   0  0  0  0  0  0  0  0  0  0  0  0
   11.3096   -2.7243   21.7315 H   0  0  0  0  0  0  0  0  0  0  0  0
    7.9097   -2.2064   27.9951 H   0  0  0  0  0  0  0  0  0  0  0  0
   14.2891   -0.1669   23.4482 H   0  0  0  0  0  0  0  0  0  0  0  0
   10.3022   -0.2216   25.0828 H   0  0  0  0  0  0  0  0  0  0  0  0
    7.5256   -6.2441   29.3655 H   0  0  0  0  0  0  0  0  0  0  0  0
    8.6714   -5.5991   25.4687 H   0  0  0  0  0  0  0  0  0  0  0  0
    8.3768    0.0168   23.2489 H   0  0  0  0  0  0  0  0  0  0  0  0
    7.2089   -1.2445   23.8243 H   0  0  0  0  0  0  0  0  0  0  0  0
    8.9551   -1.3811   21.2629 H   0  0  0  0  0  0  0  0  0  0  0  0
    6.4696   -5.3377   21.6056 H   0  0  0  0  0  0  0  0  0  0  0  0
    5.5185   -5.1418   23.1167 H   0  0  0  0  0  0  0  0  0  0  0  0
    5.1362   -4.1365   21.6780 H   0  0  0  0  0  0  0  0  0  0  0  0
    6.7190   -2.4101   21.0172 H   0  0  0  0  0  0  0  0  0  0  0  0
    8.0363   -3.6309   20.9833 H   0  0  0  0  0  0  0  0  0  0  0  0
    8.5789   -1.9109   25.7162 H   0  0  0  0  0  0  0  0  0  0  0  0
    6.3790   -2.9351   23.3087 H   0  0  0  0  0  0  0  0  0  0  0  0
  1  3  2  0  0  0  0
  1  5  1  0  0  0  0
  2  4  2  0  0  0  0
  2  7  1  0  0  0  0
  3  9  1  0  0  0  0
  4 10  1  0  0  0  0
  5 11  2  0  0  0  0
  6  9  2  0  0  0  0
  6 11  1  0  0  0  0
  7 18  2  0  0  0  0
  8 10  2  0  0  0  0
  8 18  1  0  0  0  0
  9 15  1  0  0  0  0
 10 19  1  0  0  0  0
 11 22  1  0  0  0  0
 12 15  1  1  0  0  0
 12 19  1  0  0  0  0
 12 21  2  0  0  0  0
 13 14  1  0  0  0  0
 13 15  1  0  0  0  0
 14 15  1  0  0  0  0
 14 17  1  6  0  0  0
 16 20  1  0  0  0  0
 17 20  1  0  0  0  0
  1 23  1  0  0  0  0
  2 24  1  0  0  0  0
  3 25  1  0  0  0  0
  4 26  1  0  0  0  0
  5 27  1  0  0  0  0
  6 28  1  0  0  0  0
  7 29  1  0  0  0  0
  8 30  1  0  0  0  0
 13 31  1  0  0  0  0
 13 32  1  0  0  0  0
 14 33  1  0  0  0  0
 16 34  1  0  0  0  0
 16 35  1  0  0  0  0
 16 36  1  0  0  0  0
 17 37  1  0  0  0  0
 17 38  1  0  0  0  0
 19 39  1  0  0  0  0
 20 40  1  0  0  0  0
M  END
> <Chemgauss4 Score>
-4.74039936065674

> <Number of Confs>
131

$$$$
NAU-LAT-ec9-6
  -OEChem-03242005443D

 50 54  0     0  0  0  0  0  0999 V2000
    4.5226   -5.4185   22.5191 C   0  0  0  0  0  0  0  0  0  0  0  0
    6.7169   -5.9418   29.0575 C   0  0  0  0  0  0  0  0  0  0  0  0
    5.0914   -6.4974   23.1958 C   0  0  0  0  0  0  0  0  0  0  0  0
    4.9104   -4.1158   22.8326 C   0  0  0  0  0  0  0  0  0  0  0  0
    7.9253   -5.4826   29.5851 C   0  0  0  0  0  0  0  0  0  0  0  0
    6.4079   -5.7630   27.7032 C   0  0  0  0  0  0  0  0  0  0  0  0
    6.0479   -6.2737   24.1861 C   0  0  0  0  0  0  0  0  0  0  0  0
    5.8668   -3.8920   23.8229 C   0  0  0  0  0  0  0  0  0  0  0  0
    7.7498    0.5442   20.7700 C   0  0  0  0  0  0  0  0  0  0  0  0
    8.0915   -1.8207   20.4131 C   0  0  0  0  0  0  0  0  0  0  0  0
    8.9398    0.6067   21.4951 C   0  0  0  0  0  0  0  0  0  0  0  0
    9.2815   -1.7582   21.1382 C   0  0  0  0  0  0  0  0  0  0  0  0
    8.8653   -4.8300   28.7807 C   0  0  0  0  0  0  0  0  0  0  0  0
   10.7924   -2.3483   24.1282 C   0  0  0  0  0  0  0  0  0  0  0  0
    7.3421   -5.1095   26.8824 C   0  0  0  0  0  0  0  0  0  0  0  0
    6.4357   -4.9709   24.4997 C   0  0  0  0  0  0  0  0  0  0  0  0
    7.3257   -0.6696   20.2290 C   0  0  0  0  0  0  0  0  0  0  0  0
    9.7056   -0.5444   21.6791 C   0  0  0  0  0  0  0  0  0  0  0  0
    8.5377   -4.6622   27.4335 C   0  0  0  0  0  0  0  0  0  0  0  0
    7.4236   -4.7394   25.5227 C   0  0  0  0  0  0  0  0  0  0  0  0
   10.6320   -2.3156   25.4907 C   0  0  0  0  0  0  0  0  0  0  0  0
    6.0853   -0.7358   19.4724 C   0  0  0  0  0  0  0  0  0  0  0  0
   10.9899   -0.4762   22.4605 C   0  0  0  0  0  0  0  0  0  0  0  0
   10.5209   -3.4617   26.4595 C   0  0  0  0  0  0  0  0  0  0  0  0
    8.5636   -4.1127   25.2235 N   0  0  0  0  0  0  0  0  0  0  0  0
   10.5825   -1.0172   25.9164 N   0  0  0  0  0  0  0  0  0  0  0  0
   10.7073   -0.2333   24.8511 N   0  0  0  0  0  0  0  0  0  0  0  0
   10.8329   -1.0333   23.7799 N   0  0  0  0  0  0  0  0  0  0  0  0
    9.2168   -4.0804   26.3970 N   0  0  0  0  0  0  0  0  0  0  0  0
    5.3318    0.2170   19.2480 O   0  0  0  0  0  0  0  0  0  0  0  0
    5.8208   -1.9906   19.0156 O   0  0  0  0  0  0  0  0  0  0  0  0
    3.7786   -5.5926   21.7473 H   0  0  0  0  0  0  0  0  0  0  0  0
    6.0050   -6.4456   29.7062 H   0  0  0  0  0  0  0  0  0  0  0  0
    4.7906   -7.5119   22.9511 H   0  0  0  0  0  0  0  0  0  0  0  0
    4.4682   -3.2760   22.3047 H   0  0  0  0  0  0  0  0  0  0  0  0
    8.1403   -5.6343   30.6399 H   0  0  0  0  0  0  0  0  0  0  0  0
    5.4641   -6.1255   27.3072 H   0  0  0  0  0  0  0  0  0  0  0  0
    6.4821   -7.1253   24.7048 H   0  0  0  0  0  0  0  0  0  0  0  0
    6.1584   -2.8704   24.0555 H   0  0  0  0  0  0  0  0  0  0  0  0
    7.1604    1.4470   20.6322 H   0  0  0  0  0  0  0  0  0  0  0  0
    7.7709   -2.7719   19.9963 H   0  0  0  0  0  0  0  0  0  0  0  0
    9.2628    1.5566   21.9127 H   0  0  0  0  0  0  0  0  0  0  0  0
    9.8723   -2.6600   21.2763 H   0  0  0  0  0  0  0  0  0  0  0  0
    9.8033   -4.4740   29.1920 H   0  0  0  0  0  0  0  0  0  0  0  0
   10.8784   -3.1523   23.4109 H   0  0  0  0  0  0  0  0  0  0  0  0
   11.7930   -1.0222   21.9508 H   0  0  0  0  0  0  0  0  0  0  0  0
   11.3356    0.5595   22.5648 H   0  0  0  0  0  0  0  0  0  0  0  0
   11.2755   -4.2302   26.2520 H   0  0  0  0  0  0  0  0  0  0  0  0
   10.6927   -3.1275   27.4899 H   0  0  0  0  0  0  0  0  0  0  0  0
    4.9862   -2.0457   18.5029 H   0  0  0  0  0  0  0  0  0  0  0  0
  1  3  1  0  0  0  0
  1  4  2  0  0  0  0
  2  5  1  0  0  0  0
  2  6  2  0  0  0  0
  3  7  2  0  0  0  0
  4  8  1  0  0  0  0
  5 13  2  0  0  0  0
  6 15  1  0  0  0  0
  7 16  1  0  0  0  0
  8 16  2  0  0  0  0
  9 11  2  0  0  0  0
  9 17  1  0  0  0  0
 10 12  1  0  0  0  0
 10 17  2  0  0  0  0
 11 18  1  0  0  0  0
 12 18  2  0  0  0  0
 13 19  1  0  0  0  0
 14 21  2  0  0  0  0
 14 28  1  0  0  0  0
 15 19  2  0  0  0  0
 15 20  1  0  0  0  0
 16 20  1  0  0  0  0
 17 22  1  0  0  0  0
 18 23  1  0  0  0  0
 19 29  1  0  0  0  0
 20 25  2  0  0  0  0
 21 24  1  0  0  0  0
 21 26  1  0  0  0  0
 22 30  2  0  0  0  0
 22 31  1  0  0  0  0
 23 28  1  0  0  0  0
 24 29  1  0  0  0  0
 25 29  1  0  0  0  0
 26 27  2  0  0  0  0
 27 28  1  0  0  0  0
  1 32  1  0  0  0  0
  2 33  1  0  0  0  0
  3 34  1  0  0  0  0
  4 35  1  0  0  0  0
  5 36  1  0  0  0  0
  6 37  1  0  0  0  0
  7 38  1  0  0  0  0
  8 39  1  0  0  0  0
  9 40  1  0  0  0  0
 10 41  1  0  0  0  0
 11 42  1  0  0  0  0
 12 43  1  0  0  0  0
 13 44  1  0  0  0  0
 14 45  1  0  0  0  0
 23 46  1  0  0  0  0
 23 47  1  0  0  0  0
 24 48  1  0  0  0  0
 24 49  1  0  0  0  0
 31 50  1  0  0  0  0
M  END
> <Chemgauss4 Score>
-4.73949337005615

> <Number of Confs>
200

$$$$
DUN-NEW-f8c-17
  -OEChem-03242005443D

 51 54  0     0  0  0  0  0  0999 V2000
   13.3823   -2.3095   22.0527 C   0  0  0  0  0  0  0  0  0  0  0  0
    6.7684    0.0414   19.3876 C   0  0  0  0  0  0  0  0  0  0  0  0
   13.7183   -0.9509   22.0609 C   0  0  0  0  0  0  0  0  0  0  0  0
   12.2000   -2.7554   22.6402 C   0  0  0  0  0  0  0  0  0  0  0  0
    7.8028   -0.1467   20.2975 C   0  0  0  0  0  0  0  0  0  0  0  0
   12.8640    1.3797   22.8626 C   0  0  0  0  0  0  0  0  0  0  0  0
    5.7173   -0.8612   19.4048 C   0  0  0  0  0  0  0  0  0  0  0  0
    6.6597   -2.0627   21.1213 C   0  0  0  0  0  0  0  0  0  0  0  0
   11.7190    1.7268   23.5419 C   0  0  0  0  0  0  0  0  0  0  0  0
   12.8444   -0.0304   22.6729 C   0  0  0  0  0  0  0  0  0  0  0  0
   11.6667   -0.5058   23.2537 C   0  0  0  0  0  0  0  0  0  0  0  0
    7.7551   -1.2165   21.1844 C   0  0  0  0  0  0  0  0  0  0  0  0
   11.3178   -1.8610   23.2532 C   0  0  0  0  0  0  0  0  0  0  0  0
    8.8863   -2.4592   23.0720 C   0  0  0  0  0  0  0  0  0  0  0  0
    8.8068   -2.5755   25.9300 C   0  0  0  0  0  0  0  0  0  0  0  0
   10.5112   -4.3219   25.2677 C   0  0  0  0  0  0  0  0  0  0  0  0
    8.8172   -3.1085   27.3631 C   0  0  0  0  0  0  0  0  0  0  0  0
   10.5205   -4.8565   26.7005 C   0  0  0  0  0  0  0  0  0  0  0  0
   10.1377   -2.8382   25.2219 C   0  0  0  0  0  0  0  0  0  0  0  0
    9.2018   -4.5872   27.4250 C   0  0  0  0  0  0  0  0  0  0  0  0
    9.7337    0.5648   24.4689 C   0  0  0  0  0  0  0  0  0  0  0  0
    5.6360   -1.9122   20.2512 N   0  0  0  0  0  0  0  0  0  0  0  0
   11.0034    0.5828   23.7736 N   0  0  0  0  0  0  0  0  0  0  0  0
    8.7935   -1.4341   22.1222 N   0  0  0  0  0  0  0  0  0  0  0  0
   10.0872   -2.3657   23.8594 N   0  0  0  0  0  0  0  0  0  0  0  0
    8.0378   -3.3412   23.2135 O   0  0  0  0  0  0  0  0  0  0  0  0
    8.1793   -5.3779   26.8227 O   0  0  0  0  0  0  0  0  0  0  0  0
   14.0534   -3.0232   21.5816 H   0  0  0  0  0  0  0  0  0  0  0  0
    6.7846    0.8685   18.6870 H   0  0  0  0  0  0  0  0  0  0  0  0
   14.6431   -0.6173   21.5990 H   0  0  0  0  0  0  0  0  0  0  0  0
   11.9703   -3.8187   22.6157 H   0  0  0  0  0  0  0  0  0  0  0  0
    8.6404    0.5457   20.3070 H   0  0  0  0  0  0  0  0  0  0  0  0
   13.6322    2.0677   22.5370 H   0  0  0  0  0  0  0  0  0  0  0  0
    4.8865   -0.7587   18.7145 H   0  0  0  0  0  0  0  0  0  0  0  0
    6.5657   -2.9150   21.7877 H   0  0  0  0  0  0  0  0  0  0  0  0
   11.3584    2.6898   23.8775 H   0  0  0  0  0  0  0  0  0  0  0  0
    7.9777   -3.0189   25.3740 H   0  0  0  0  0  0  0  0  0  0  0  0
    8.6285   -1.4966   25.9576 H   0  0  0  0  0  0  0  0  0  0  0  0
   11.5100   -4.4462   24.8425 H   0  0  0  0  0  0  0  0  0  0  0  0
    9.8290   -4.9128   24.6543 H   0  0  0  0  0  0  0  0  0  0  0  0
    9.5171   -2.5218   27.9735 H   0  0  0  0  0  0  0  0  0  0  0  0
    7.8327   -2.9605   27.8290 H   0  0  0  0  0  0  0  0  0  0  0  0
   10.7276   -5.9358   26.6978 H   0  0  0  0  0  0  0  0  0  0  0  0
   11.3490   -4.4033   27.2607 H   0  0  0  0  0  0  0  0  0  0  0  0
   10.9247   -2.2541   25.7103 H   0  0  0  0  0  0  0  0  0  0  0  0
    9.2893   -4.9009   28.4740 H   0  0  0  0  0  0  0  0  0  0  0  0
    8.9408    0.6883   23.7265 H   0  0  0  0  0  0  0  0  0  0  0  0
    9.6200   -0.3873   24.9948 H   0  0  0  0  0  0  0  0  0  0  0  0
    9.7084    1.3809   25.1963 H   0  0  0  0  0  0  0  0  0  0  0  0
    9.5611   -0.7686   22.1039 H   0  0  0  0  0  0  0  0  0  0  0  0
    7.3671   -5.2132   27.3272 H   0  0  0  0  0  0  0  0  0  0  0  0
  1  3  2  0  0  0  0
  1  4  1  0  0  0  0
  2  5  2  0  0  0  0
  2  7  1  0  0  0  0
  3 10  1  0  0  0  0
  4 13  2  0  0  0  0
  5 12  1  0  0  0  0
  6  9  2  0  0  0  0
  6 10  1  0  0  0  0
  7 22  2  0  0  0  0
  8 12  2  0  0  0  0
  8 22  1  0  0  0  0
  9 23  1  0  0  0  0
 10 11  2  0  0  0  0
 11 13  1  0  0  0  0
 11 23  1  0  0  0  0
 12 24  1  0  0  0  0
 13 25  1  0  0  0  0
 14 24  1  0  0  0  0
 14 25  1  0  0  0  0
 14 26  2  0  0  0  0
 15 17  1  0  0  0  0
 15 19  1  0  0  0  0
 16 18  1  0  0  0  0
 16 19  1  0  0  0  0
 17 20  1  0  0  0  0
 18 20  1  0  0  0  0
 19 25  1  0  0  0  0
 20 27  1  0  0  0  0
 21 23  1  0  0  0  0
  1 28  1  0  0  0  0
  2 29  1  0  0  0  0
  3 30  1  0  0  0  0
  4 31  1  0  0  0  0
  5 32  1  0  0  0  0
  6 33  1  0  0  0  0
  7 34  1  0  0  0  0
  8 35  1  0  0  0  0
  9 36  1  0  0  0  0
 15 37  1  0  0  0  0
 15 38  1  0  0  0  0
 16 39  1  0  0  0  0
 16 40  1  0  0  0  0
 17 41  1  0  0  0  0
 17 42  1  0  0  0  0
 18 43  1  0  0  0  0
 18 44  1  0  0  0  0
 19 45  1  0  0  0  0
 20 46  1  0  0  0  0
 21 47  1  0  0  0  0
 21 48  1  0  0  0  0
 21 49  1  0  0  0  0
 24 50  1  0  0  0  0
 27 51  1  0  0  0  0
M  END
> <Chemgauss4 Score>
-4.73341846466064

> <Number of Confs>
23

$$$$
JOH-MSK-ec6-1
  -OEChem-03242005443D

 36 37  0     1  0  0  0  0  0999 V2000
    9.2677   -1.9171   24.8255 C   0  0  0  0  0  0  0  0  0  0  0  0
   11.6688   -3.1145   23.9239 C   0  0  0  0  0  0  0  0  0  0  0  0
    9.9870   -5.1251   26.4230 C   0  0  0  0  0  0  0  0  0  0  0  0
    9.6754   -3.1584   25.3530 C   0  0  0  0  0  0  0  0  0  0  0  0
    9.1331   -4.0513   26.3193 C   0  0  0  0  0  0  0  0  0  0  0  0
   10.8641   -3.7274   24.8909 C   0  0  0  0  0  0  0  0  0  0  0  0
   10.0626   -1.2924   23.8575 C   0  0  0  0  0  0  0  0  0  0  0  0
   11.2443   -1.8838   23.4151 C   0  0  0  0  0  0  0  0  0  0  0  0
    6.8274   -6.0896   25.1661 C   0  0  0  0  0  0  0  0  0  0  0  0
    6.8838   -6.8288   23.8705 C   0  0  0  0  0  0  0  0  0  0  0  0
    7.9368   -2.6260   28.0093 C   0  0  0  0  0  0  0  0  0  0  0  0
    8.4268    0.4337   23.8740 C   0  0  0  0  0  0  0  0  0  0  0  0
    6.6316   -3.8155   26.1524 C   0  0  0  0  0  0  0  0  0  0  0  0
    7.8814   -3.8671   27.0815 C   0  0  1  0  0  0  0  0  0  0  0  0
   11.0282   -4.9205   25.5578 N   0  0  0  0  0  0  0  0  0  0  0  0
    6.7064   -4.7293   25.0161 N   0  0  0  0  0  0  0  0  0  0  0  0
    6.8880   -6.7119   26.2200 O   0  0  0  0  0  0  0  0  0  0  0  0
    9.6479   -0.0907   23.3600 O   0  0  0  0  0  0  0  0  0  0  0  0
   12.2224   -1.1089   22.2194 Cl  0  0  0  0  0  0  0  0  0  0  0  0
    8.3471   -1.4498   25.1641 H   0  0  0  0  0  0  0  0  0  0  0  0
   12.5871   -3.5862   23.5876 H   0  0  0  0  0  0  0  0  0  0  0  0
    9.9500   -6.0156   27.0351 H   0  0  0  0  0  0  0  0  0  0  0  0
    7.9142   -6.9476   23.4986 H   0  0  0  0  0  0  0  0  0  0  0  0
    6.4841   -7.8524   23.9527 H   0  0  0  0  0  0  0  0  0  0  0  0
    6.3273   -6.3666   23.0395 H   0  0  0  0  0  0  0  0  0  0  0  0
    8.0957   -1.6935   27.4583 H   0  0  0  0  0  0  0  0  0  0  0  0
    8.7403   -2.7184   28.7481 H   0  0  0  0  0  0  0  0  0  0  0  0
    6.9919   -2.5249   28.5555 H   0  0  0  0  0  0  0  0  0  0  0  0
    8.2113    1.3924   23.3960 H   0  0  0  0  0  0  0  0  0  0  0  0
    8.5123    0.5648   24.9557 H   0  0  0  0  0  0  0  0  0  0  0  0
    7.6188   -0.2689   23.6569 H   0  0  0  0  0  0  0  0  0  0  0  0
    5.7225   -4.0347   26.7245 H   0  0  0  0  0  0  0  0  0  0  0  0
    6.5255   -2.7959   25.7627 H   0  0  0  0  0  0  0  0  0  0  0  0
    7.7178   -4.7309   27.7652 H   0  0  0  0  0  0  0  0  0  0  0  0
   11.8064   -5.5521   25.4280 H   0  0  0  0  0  0  0  0  0  0  0  0
    6.6676   -4.3465   24.0835 H   0  0  0  0  0  0  0  0  0  0  0  0
  1  4  2  0  0  0  0
  1  7  1  0  0  0  0
  2  6  2  0  0  0  0
  2  8  1  0  0  0  0
  3  5  2  0  0  0  0
  3 15  1  0  0  0  0
  4  5  1  0  0  0  0
  4  6  1  0  0  0  0
  5 14  1  0  0  0  0
  6 15  1  0  0  0  0
  7  8  2  0  0  0  0
  7 18  1  0  0  0  0
  8 19  1  0  0  0  0
  9 10  1  0  0  0  0
  9 16  1  0  0  0  0
  9 17  2  0  0  0  0
 11 14  1  0  0  0  0
 12 18  1  0  0  0  0
 13 14  1  0  0  0  0
 13 16  1  0  0  0  0
  1 20  1  0  0  0  0
  2 21  1  0  0  0  0
  3 22  1  0  0  0  0
 10 23  1  0  0  0  0
 10 24  1  0  0  0  0
 10 25  1  0  0  0  0
 11 26  1  0  0  0  0
 11 27  1  0  0  0  0
 11 28  1  0  0  0  0
 12 29  1  0  0  0  0
 12 30  1  0  0  0  0
 12 31  1  0  0  0  0
 13 32  1  0  0  0  0
 13 33  1  0  0  0  0
 14 34  1  6  0  0  0
 15 35  1  0  0  0  0
 16 36  1  0  0  0  0
M  END
> <Chemgauss4 Score>
-4.73276281356812

> <Number of Confs>
111

$$$$
CHR-SOS-709-22
  -OEChem-03242005443D

 41 43  0     0  0  0  0  0  0999 V2000
    8.8134   -3.7690   28.0147 C   0  0  0  0  0  0  0  0  0  0  0  0
    5.4397    0.8806   19.7534 C   0  0  0  0  0  0  0  0  0  0  0  0
    6.4702    0.5747   20.6353 C   0  0  0  0  0  0  0  0  0  0  0  0
    9.7410   -2.7790   27.6908 C   0  0  0  0  0  0  0  0  0  0  0  0
    8.5779   -4.8208   27.1292 C   0  0  0  0  0  0  0  0  0  0  0  0
   10.0983   -1.0033   24.3166 C   0  0  0  0  0  0  0  0  0  0  0  0
   11.2501   -0.3032   22.3116 C   0  0  0  0  0  0  0  0  0  0  0  0
   10.1976   -3.8923   25.5958 C   0  0  0  0  0  0  0  0  0  0  0  0
   12.5050   -1.1695   24.1855 C   0  0  0  0  0  0  0  0  0  0  0  0
    5.6808    0.7309   18.3972 C   0  0  0  0  0  0  0  0  0  0  0  0
    7.8333    0.0182   18.7676 C   0  0  0  0  0  0  0  0  0  0  0  0
   10.0639   -0.4811   23.0237 C   0  0  0  0  0  0  0  0  0  0  0  0
    7.6930    0.1346   20.1411 C   0  0  0  0  0  0  0  0  0  0  0  0
   10.4331   -2.8406   26.4813 C   0  0  0  0  0  0  0  0  0  0  0  0
   11.3189   -1.3475   24.8976 C   0  0  0  0  0  0  0  0  0  0  0  0
    9.2700   -4.8824   25.9198 C   0  0  0  0  0  0  0  0  0  0  0  0
   12.4706   -0.6474   22.8925 C   0  0  0  0  0  0  0  0  0  0  0  0
    8.7911   -0.1240   22.4172 C   0  0  0  0  0  0  0  0  0  0  0  0
    6.8553    0.3061   17.8797 N   0  0  0  0  0  0  0  0  0  0  0  0
   10.1355   -7.3373   25.3460 N   0  0  0  0  0  0  0  0  0  0  0  0
    8.7625   -0.1846   21.0153 N   0  0  0  0  0  0  0  0  0  0  0  0
    7.8234    0.2388   23.1002 O   0  0  0  0  0  0  0  0  0  0  0  0
    7.6452   -6.7300   25.0714 O   0  0  0  0  0  0  0  0  0  0  0  0
    9.3336   -5.7645   23.4698 O   0  0  0  0  0  0  0  0  0  0  0  0
   11.3533   -1.8572   26.1592 O   0  0  0  0  0  0  0  0  0  0  0  0
    8.9768   -6.2006   24.8125 S   0  0  0  0  0  0  0  0  0  0  0  0
   13.9344   -0.4267   22.0152 Cl  0  0  0  0  0  0  0  0  0  0  0  0
    8.2744   -3.7208   28.9562 H   0  0  0  0  0  0  0  0  0  0  0  0
    4.4781    1.2253   20.1163 H   0  0  0  0  0  0  0  0  0  0  0  0
    6.3097    0.6826   21.7048 H   0  0  0  0  0  0  0  0  0  0  0  0
    9.9199   -1.9622   28.3846 H   0  0  0  0  0  0  0  0  0  0  0  0
    7.8540   -5.5874   27.3919 H   0  0  0  0  0  0  0  0  0  0  0  0
    9.1760   -1.1427   24.8759 H   0  0  0  0  0  0  0  0  0  0  0  0
   11.2199    0.1036   21.3032 H   0  0  0  0  0  0  0  0  0  0  0  0
   10.7395   -3.9357   24.6540 H   0  0  0  0  0  0  0  0  0  0  0  0
   13.4523   -1.4408   24.6460 H   0  0  0  0  0  0  0  0  0  0  0  0
    4.9098    0.9573   17.6682 H   0  0  0  0  0  0  0  0  0  0  0  0
    8.7639   -0.3204   18.3218 H   0  0  0  0  0  0  0  0  0  0  0  0
   11.1256   -7.1434   25.1521 H   0  0  0  0  0  0  0  0  0  0  0  0
    9.9727   -7.8054   26.2458 H   0  0  0  0  0  0  0  0  0  0  0  0
    9.6205   -0.4984   20.5685 H   0  0  0  0  0  0  0  0  0  0  0  0
  1  4  1  0  0  0  0
  1  5  2  0  0  0  0
  2  3  2  0  0  0  0
  2 10  1  0  0  0  0
  3 13  1  0  0  0  0
  4 14  2  0  0  0  0
  5 16  1  0  0  0  0
  6 12  1  0  0  0  0
  6 15  2  0  0  0  0
  7 12  2  0  0  0  0
  7 17  1  0  0  0  0
  8 14  1  0  0  0  0
  8 16  2  0  0  0  0
  9 15  1  0  0  0  0
  9 17  2  0  0  0  0
 10 19  2  0  0  0  0
 11 13  2  0  0  0  0
 11 19  1  0  0  0  0
 12 18  1  0  0  0  0
 13 21  1  0  0  0  0
 14 25  1  0  0  0  0
 15 25  1  0  0  0  0
 16 26  1  0  0  0  0
 17 27  1  0  0  0  0
 18 21  1  0  0  0  0
 18 22  2  0  0  0  0
 20 26  1  0  0  0  0
 23 26  2  0  0  0  0
 24 26  2  0  0  0  0
  1 28  1  0  0  0  0
  2 29  1  0  0  0  0
  3 30  1  0  0  0  0
  4 31  1  0  0  0  0
  5 32  1  0  0  0  0
  6 33  1  0  0  0  0
  7 34  1  0  0  0  0
  8 35  1  0  0  0  0
  9 36  1  0  0  0  0
 10 37  1  0  0  0  0
 11 38  1  0  0  0  0
 20 39  1  0  0  0  0
 20 40  1  0  0  0  0
 21 41  1  0  0  0  0
M  END
> <Chemgauss4 Score>
-4.73244762420654

> <Number of Confs>
200

$$$$
TRY-UNI-714-3
  -OEChem-03242005443D

 33 34  0     0  0  0  0  0  0999 V2000
   11.9276   -1.8485   23.2737 C   0  0  0  0  0  0  0  0  0  0  0  0
   10.6632   -2.4342   23.2102 C   0  0  0  0  0  0  0  0  0  0  0  0
   12.0621   -0.4651   23.1568 C   0  0  0  0  0  0  0  0  0  0  0  0
    9.6679   -0.2529   22.9127 C   0  0  0  0  0  0  0  0  0  0  0  0
    8.2191   -6.1516   28.1389 C   0  0  0  0  0  0  0  0  0  0  0  0
    7.9856   -5.5816   25.9256 C   0  0  0  0  0  0  0  0  0  0  0  0
    9.5334   -1.6364   23.0296 C   0  0  0  0  0  0  0  0  0  0  0  0
    8.5666   -3.8893   27.4925 C   0  0  0  0  0  0  0  0  0  0  0  0
    8.5333   -4.8504   28.4967 C   0  0  0  0  0  0  0  0  0  0  0  0
    8.2886   -4.2536   26.1797 C   0  0  0  0  0  0  0  0  0  0  0  0
   10.9323    0.3327   22.9763 C   0  0  0  0  0  0  0  0  0  0  0  0
    8.0533   -3.5496   23.7727 C   0  0  0  0  0  0  0  0  0  0  0  0
    8.8997   -2.4682   27.8228 C   0  0  0  0  0  0  0  0  0  0  0  0
    8.1819   -2.2634   22.9606 C   0  0  0  0  0  0  0  0  0  0  0  0
    7.9435   -6.5434   26.8748 N   0  0  0  0  0  0  0  0  0  0  0  0
    8.8071   -4.5312   29.8388 N   0  0  0  0  0  0  0  0  0  0  0  0
    8.3100   -3.3146   25.1211 N   0  0  0  0  0  0  0  0  0  0  0  0
    7.7609   -4.6191   23.2475 O   0  0  0  0  0  0  0  0  0  0  0  0
   11.0990    2.0394   22.8309 Cl  0  0  0  0  0  0  0  0  0  0  0  0
   12.8072   -2.4701   23.4142 H   0  0  0  0  0  0  0  0  0  0  0  0
   10.5678   -3.5129   23.3021 H   0  0  0  0  0  0  0  0  0  0  0  0
   13.0538   -0.0224   23.2079 H   0  0  0  0  0  0  0  0  0  0  0  0
    8.7838    0.3648   22.7726 H   0  0  0  0  0  0  0  0  0  0  0  0
    8.1774   -6.9462   28.8782 H   0  0  0  0  0  0  0  0  0  0  0  0
    7.7603   -5.9275   24.9212 H   0  0  0  0  0  0  0  0  0  0  0  0
    9.9806   -2.3079   27.7501 H   0  0  0  0  0  0  0  0  0  0  0  0
    8.3943   -1.7767   27.1393 H   0  0  0  0  0  0  0  0  0  0  0  0
    8.5734   -2.2135   28.8376 H   0  0  0  0  0  0  0  0  0  0  0  0
    7.4134   -1.5575   23.3167 H   0  0  0  0  0  0  0  0  0  0  0  0
    7.9201   -2.4919   21.9143 H   0  0  0  0  0  0  0  0  0  0  0  0
    8.7268   -5.2425   30.5398 H   0  0  0  0  0  0  0  0  0  0  0  0
    8.9865   -3.5782   30.0906 H   0  0  0  0  0  0  0  0  0  0  0  0
    8.5397   -2.3560   25.3748 H   0  0  0  0  0  0  0  0  0  0  0  0
  1  2  2  0  0  0  0
  1  3  1  0  0  0  0
  2  7  1  0  0  0  0
  3 11  2  0  0  0  0
  4  7  2  0  0  0  0
  4 11  1  0  0  0  0
  5  9  2  0  0  0  0
  5 15  1  0  0  0  0
  6 10  1  0  0  0  0
  6 15  2  0  0  0  0
  7 14  1  0  0  0  0
  8  9  1  0  0  0  0
  8 10  2  0  0  0  0
  8 13  1  0  0  0  0
  9 16  1  0  0  0  0
 10 17  1  0  0  0  0
 11 19  1  0  0  0  0
 12 14  1  0  0  0  0
 12 17  1  0  0  0  0
 12 18  2  0  0  0  0
  1 20  1  0  0  0  0
  2 21  1  0  0  0  0
  3 22  1  0  0  0  0
  4 23  1  0  0  0  0
  5 24  1  0  0  0  0
  6 25  1  0  0  0  0
 13 26  1  0  0  0  0
 13 27  1  0  0  0  0
 13 28  1  0  0  0  0
 14 29  1  0  0  0  0
 14 30  1  0  0  0  0
 16 31  1  0  0  0  0
 16 32  1  0  0  0  0
 17 33  1  0  0  0  0
M  END
> <Chemgauss4 Score>
-4.73039722442627

> <Number of Confs>
20

$$$$
DUN-NEW-f8c-22
  -OEChem-03242005443D

 37 38  0     1  0  0  0  0  0999 V2000
    5.8944   -5.1037   22.1475 C   0  0  0  0  0  0  0  0  0  0  0  0
    5.2677   -4.0676   22.8397 C   0  0  0  0  0  0  0  0  0  0  0  0
    7.2237   -5.4235   22.4242 C   0  0  0  0  0  0  0  0  0  0  0  0
    5.9703   -3.3511   23.8086 C   0  0  0  0  0  0  0  0  0  0  0  0
    7.9262   -4.7070   23.3931 C   0  0  0  0  0  0  0  0  0  0  0  0
    7.2995   -3.6708   24.0853 C   0  0  0  0  0  0  0  0  0  0  0  0
   10.4141   -1.5956   22.6624 C   0  0  0  0  0  0  0  0  0  0  0  0
   10.9855   -2.7756   24.8160 C   0  0  0  0  0  0  0  0  0  0  0  0
   10.3554   -3.1546   26.1509 C   0  0  0  0  0  0  0  0  0  0  0  0
    8.7759   -1.6751   24.5175 C   0  0  0  0  0  0  0  0  0  0  0  0
    8.0652   -2.8909   25.1400 C   0  0  2  0  0  0  0  0  0  0  0  0
    9.0323   -6.2677   26.7652 C   0  0  0  0  0  0  0  0  0  0  0  0
   11.8767   -1.3088   22.4228 C   0  0  0  0  0  0  0  0  0  0  0  0
   10.0771   -2.0209   23.9485 N   0  0  0  0  0  0  0  0  0  0  0  0
    9.0236   -3.7647   25.9059 N   0  0  2  0  0  0  0  0  0  0  0  0
    9.6057   -1.4530   21.7425 O   0  0  0  0  0  0  0  0  0  0  0  0
    6.9308   -4.7361   27.0200 O   0  0  0  0  0  0  0  0  0  0  0  0
    8.9758   -4.2477   28.4218 O   0  0  0  0  0  0  0  0  0  0  0  0
    8.3629   -4.6823   27.1897 S   0  0  0  0  0  0  0  0  0  0  0  0
   12.3215   -0.0080   23.5218 Cl  0  0  0  0  0  0  0  0  0  0  0  0
    5.3468   -5.6624   21.3941 H   0  0  0  0  0  0  0  0  0  0  0  0
    4.2324   -3.8192   22.6252 H   0  0  0  0  0  0  0  0  0  0  0  0
    7.7116   -6.2309   21.8862 H   0  0  0  0  0  0  0  0  0  0  0  0
    5.4739   -2.5452   24.3428 H   0  0  0  0  0  0  0  0  0  0  0  0
    8.9616   -4.9631   23.6019 H   0  0  0  0  0  0  0  0  0  0  0  0
   11.9153   -2.2065   24.9934 H   0  0  0  0  0  0  0  0  0  0  0  0
   11.2815   -3.6835   24.2578 H   0  0  0  0  0  0  0  0  0  0  0  0
   11.0034   -3.8785   26.6488 H   0  0  0  0  0  0  0  0  0  0  0  0
   10.2519   -2.2733   26.7877 H   0  0  0  0  0  0  0  0  0  0  0  0
    8.1762   -1.2550   23.6909 H   0  0  0  0  0  0  0  0  0  0  0  0
    8.8610   -0.8720   25.2633 H   0  0  0  0  0  0  0  0  0  0  0  0
    7.2957   -2.5272   25.8755 H   0  0  0  0  0  0  0  0  0  0  0  0
    8.6966   -6.9933   27.5078 H   0  0  0  0  0  0  0  0  0  0  0  0
    8.6695   -6.5403   25.7730 H   0  0  0  0  0  0  0  0  0  0  0  0
   10.1208   -6.1937   26.7677 H   0  0  0  0  0  0  0  0  0  0  0  0
   12.0083   -0.9894   21.3954 H   0  0  0  0  0  0  0  0  0  0  0  0
   12.4509   -2.2000   22.6487 H   0  0  0  0  0  0  0  0  0  0  0  0
  1  2  1  0  0  0  0
  1  3  2  0  0  0  0
  2  4  2  0  0  0  0
  3  5  1  0  0  0  0
  4  6  1  0  0  0  0
  5  6  2  0  0  0  0
  6 11  1  1  0  0  0
  7 13  1  0  0  0  0
  7 14  1  0  0  0  0
  7 16  2  0  0  0  0
  8  9  1  0  0  0  0
  8 14  1  0  0  0  0
  9 15  1  0  0  0  0
 10 11  1  0  0  0  0
 10 14  1  0  0  0  0
 11 15  1  0  0  0  0
 12 19  1  0  0  0  0
 13 20  1  0  0  0  0
 15 19  1  1  0  0  0
 17 19  2  0  0  0  0
 18 19  2  0  0  0  0
  1 21  1  0  0  0  0
  2 22  1  0  0  0  0
  3 23  1  0  0  0  0
  4 24  1  0  0  0  0
  5 25  1  0  0  0  0
  8 26  1  0  0  0  0
  8 27  1  0  0  0  0
  9 28  1  0  0  0  0
  9 29  1  0  0  0  0
 10 30  1  0  0  0  0
 10 31  1  0  0  0  0
 11 32  1  0  0  0  0
 12 33  1  0  0  0  0
 12 34  1  0  0  0  0
 12 35  1  0  0  0  0
 13 36  1  0  0  0  0
 13 37  1  0  0  0  0
M  END
> <Chemgauss4 Score>
-4.72541427612305

> <Number of Confs>
26

$$$$
DAR-DIA-842-13
  -OEChem-03242005443D

 25 26  0     0  0  0  0  0  0999 V2000
    8.3388   -4.3623   28.7650 C   0  0  0  0  0  0  0  0  0  0  0  0
    8.4260   -3.4766   27.6967 C   0  0  0  0  0  0  0  0  0  0  0  0
   10.4977   -2.0314   22.3305 C   0  0  0  0  0  0  0  0  0  0  0  0
   11.8463   -1.7265   21.9861 C   0  0  0  0  0  0  0  0  0  0  0  0
    8.1444   -5.7043   28.4806 C   0  0  0  0  0  0  0  0  0  0  0  0
    8.1245   -5.3137   26.2167 C   0  0  0  0  0  0  0  0  0  0  0  0
    8.3177   -3.9533   26.3950 C   0  0  0  0  0  0  0  0  0  0  0  0
    9.9946   -1.1609   23.2722 C   0  0  0  0  0  0  0  0  0  0  0  0
   12.3225   -0.6342   22.6776 C   0  0  0  0  0  0  0  0  0  0  0  0
    8.5928   -1.6970   25.3095 C   0  0  0  0  0  0  0  0  0  0  0  0
    8.6228   -1.1426   23.8938 C   0  0  0  0  0  0  0  0  0  0  0  0
    8.0347   -6.2047   27.2295 N   0  0  0  0  0  0  0  0  0  0  0  0
    8.4008   -3.0903   25.3051 N   0  0  0  0  0  0  0  0  0  0  0  0
    8.7220   -0.9806   26.2970 O   0  0  0  0  0  0  0  0  0  0  0  0
   11.1460    0.0184   23.7370 S   0  0  0  0  0  0  0  0  0  0  0  0
   13.8786    0.0765   22.5764 Cl  0  0  0  0  0  0  0  0  0  0  0  0
    8.4203   -4.0130   29.7879 H   0  0  0  0  0  0  0  0  0  0  0  0
    8.5782   -2.4179   27.8896 H   0  0  0  0  0  0  0  0  0  0  0  0
    9.9290   -2.8492   21.9065 H   0  0  0  0  0  0  0  0  0  0  0  0
   12.4321   -2.2842   21.2663 H   0  0  0  0  0  0  0  0  0  0  0  0
    8.0688   -6.4354   29.2787 H   0  0  0  0  0  0  0  0  0  0  0  0
    8.0328   -5.7456   25.2245 H   0  0  0  0  0  0  0  0  0  0  0  0
    8.2399   -0.1142   23.9109 H   0  0  0  0  0  0  0  0  0  0  0  0
    7.9304   -1.7243   23.2722 H   0  0  0  0  0  0  0  0  0  0  0  0
    8.3104   -3.5274   24.3794 H   0  0  0  0  0  0  0  0  0  0  0  0
  1  2  2  0  0  0  0
  1  5  1  0  0  0  0
  2  7  1  0  0  0  0
  3  4  1  0  0  0  0
  3  8  2  0  0  0  0
  4  9  2  0  0  0  0
  5 12  2  0  0  0  0
  6  7  2  0  0  0  0
  6 12  1  0  0  0  0
  7 13  1  0  0  0  0
  8 11  1  0  0  0  0
  8 15  1  0  0  0  0
  9 15  1  0  0  0  0
  9 16  1  0  0  0  0
 10 11  1  0  0  0  0
 10 13  1  0  0  0  0
 10 14  2  0  0  0  0
  1 17  1  0  0  0  0
  2 18  1  0  0  0  0
  3 19  1  0  0  0  0
  4 20  1  0  0  0  0
  5 21  1  0  0  0  0
  6 22  1  0  0  0  0
 11 23  1  0  0  0  0
 11 24  1  0  0  0  0
 13 25  1  0  0  0  0
M  END
> <Chemgauss4 Score>
-4.72160482406616

> <Number of Confs>
79

$$$$
PAT-UNK-b2d-2
  -OEChem-03242005443D

 39 40  0     0  0  0  0  0  0999 V2000
    5.8103   -6.0177   25.0301 C   0  0  0  0  0  0  0  0  0  0  0  0
    4.9058   -6.3428   24.3098 C   0  0  0  0  0  0  0  0  0  0  0  0
    7.7624   -5.2770   28.1118 C   0  0  0  0  0  0  0  0  0  0  0  0
    6.7141   -5.6553   27.2730 C   0  0  0  0  0  0  0  0  0  0  0  0
    8.9813   -4.8737   27.5665 C   0  0  0  0  0  0  0  0  0  0  0  0
    8.1038   -5.2273   25.3435 C   0  0  0  0  0  0  0  0  0  0  0  0
    6.8848   -5.6305   25.8888 C   0  0  0  0  0  0  0  0  0  0  0  0
    9.1520   -4.8489   26.1824 C   0  0  0  0  0  0  0  0  0  0  0  0
   11.7831    0.4089   23.2106 C   0  0  0  0  0  0  0  0  0  0  0  0
   10.0422   -0.7962   24.6152 C   0  0  0  0  0  0  0  0  0  0  0  0
   11.2633   -1.9786   22.8333 C   0  0  0  0  0  0  0  0  0  0  0  0
   10.2298   -2.0173   25.5175 C   0  0  0  0  0  0  0  0  0  0  0  0
   11.4328   -3.1735   23.7709 C   0  0  0  0  0  0  0  0  0  0  0  0
    3.8041   -6.7384   23.4338 C   0  0  0  0  0  0  0  0  0  0  0  0
   13.1888    0.2042   22.7044 C   0  0  0  0  0  0  0  0  0  0  0  0
   10.4641   -4.4150   25.5957 C   0  0  0  0  0  0  0  0  0  0  0  0
   11.0820   -0.7369   23.5837 N   0  0  0  0  0  0  0  0  0  0  0  0
   10.3152   -3.2513   24.7228 N   0  0  0  0  0  0  0  0  0  0  0  0
   11.3225    1.5518   23.2683 O   0  0  0  0  0  0  0  0  0  0  0  0
    7.6302   -5.2973   29.1897 H   0  0  0  0  0  0  0  0  0  0  0  0
    5.7697   -5.9668   27.7128 H   0  0  0  0  0  0  0  0  0  0  0  0
    9.7919   -4.5803   28.2284 H   0  0  0  0  0  0  0  0  0  0  0  0
    8.2433   -5.2069   24.2646 H   0  0  0  0  0  0  0  0  0  0  0  0
    9.0780   -0.8490   24.0945 H   0  0  0  0  0  0  0  0  0  0  0  0
   10.0285    0.1059   25.2300 H   0  0  0  0  0  0  0  0  0  0  0  0
   12.1291   -1.9058   22.1670 H   0  0  0  0  0  0  0  0  0  0  0  0
   10.3756   -2.1073   22.2017 H   0  0  0  0  0  0  0  0  0  0  0  0
   11.1283   -1.8837   26.1346 H   0  0  0  0  0  0  0  0  0  0  0  0
    9.3718   -2.0750   26.1981 H   0  0  0  0  0  0  0  0  0  0  0  0
   11.4637   -4.0850   23.1616 H   0  0  0  0  0  0  0  0  0  0  0  0
   12.3944   -3.0982   24.2960 H   0  0  0  0  0  0  0  0  0  0  0  0
    4.1630   -6.9250   22.4171 H   0  0  0  0  0  0  0  0  0  0  0  0
    3.3259   -7.6525   23.7983 H   0  0  0  0  0  0  0  0  0  0  0  0
    3.0435   -5.9531   23.3865 H   0  0  0  0  0  0  0  0  0  0  0  0
   13.1617    0.0636   21.6290 H   0  0  0  0  0  0  0  0  0  0  0  0
   13.6146   -0.6722   23.1825 H   0  0  0  0  0  0  0  0  0  0  0  0
   13.7851    1.0772   22.9496 H   0  0  0  0  0  0  0  0  0  0  0  0
   11.1738   -4.1535   26.3882 H   0  0  0  0  0  0  0  0  0  0  0  0
   10.9165   -5.2197   25.0066 H   0  0  0  0  0  0  0  0  0  0  0  0
  1  2  3  0  0  0  0
  1  7  1  0  0  0  0
  2 14  1  0  0  0  0
  3  4  2  0  0  0  0
  3  5  1  0  0  0  0
  4  7  1  0  0  0  0
  5  8  2  0  0  0  0
  6  7  2  0  0  0  0
  6  8  1  0  0  0  0
  8 16  1  0  0  0  0
  9 15  1  0  0  0  0
  9 17  1  0  0  0  0
  9 19  2  0  0  0  0
 10 12  1  0  0  0  0
 10 17  1  0  0  0  0
 11 13  1  0  0  0  0
 11 17  1  0  0  0  0
 12 18  1  0  0  0  0
 13 18  1  0  0  0  0
 16 18  1  0  0  0  0
  3 20  1  0  0  0  0
  4 21  1  0  0  0  0
  5 22  1  0  0  0  0
  6 23  1  0  0  0  0
 10 24  1  0  0  0  0
 10 25  1  0  0  0  0
 11 26  1  0  0  0  0
 11 27  1  0  0  0  0
 12 28  1  0  0  0  0
 12 29  1  0  0  0  0
 13 30  1  0  0  0  0
 13 31  1  0  0  0  0
 14 32  1  0  0  0  0
 14 33  1  0  0  0  0
 14 34  1  0  0  0  0
 15 35  1  0  0  0  0
 15 36  1  0  0  0  0
 15 37  1  0  0  0  0
 16 38  1  0  0  0  0
 16 39  1  0  0  0  0
M  END
> <Chemgauss4 Score>
-4.72107887268066

> <Number of Confs>
37

$$$$
CHR-SOS-54d-5
  -OEChem-03242005443D

 46 48  0     0  0  0  0  0  0999 V2000
    9.5961   -2.8190   25.9360 C   0  0  0  0  0  0  0  0  0  0  0  0
   10.0900   -2.1680   25.0557 C   0  0  0  0  0  0  0  0  0  0  0  0
    4.9773   -3.9101   22.2192 C   0  0  0  0  0  0  0  0  0  0  0  0
    6.1324   -3.1434   22.3240 C   0  0  0  0  0  0  0  0  0  0  0  0
    9.2078   -3.2735   28.3127 C   0  0  0  0  0  0  0  0  0  0  0  0
    4.1470   -3.9867   23.3258 C   0  0  0  0  0  0  0  0  0  0  0  0
    8.5846   -4.0990   29.2262 C   0  0  0  0  0  0  0  0  0  0  0  0
    5.5231   -2.6260   24.5640 C   0  0  0  0  0  0  0  0  0  0  0  0
    9.0066   -3.5924   26.9853 C   0  0  0  0  0  0  0  0  0  0  0  0
    6.4179   -2.4858   23.5154 C   0  0  0  0  0  0  0  0  0  0  0  0
    7.7016   -5.3638   27.5565 C   0  0  0  0  0  0  0  0  0  0  0  0
    8.5693   -1.4656   22.6953 C   0  0  0  0  0  0  0  0  0  0  0  0
   13.2494   -0.6121   22.5009 C   0  0  0  0  0  0  0  0  0  0  0  0
   12.5940    0.3626   23.4728 C   0  0  0  0  0  0  0  0  0  0  0  0
   12.2244   -1.5392   21.8576 C   0  0  0  0  0  0  0  0  0  0  0  0
   11.7641   -0.3669   24.5316 C   0  0  0  0  0  0  0  0  0  0  0  0
   11.3928   -2.2785   22.9083 C   0  0  0  0  0  0  0  0  0  0  0  0
   10.7218   -1.3334   23.9285 C   0  0  0  0  0  0  0  0  0  0  0  0
    9.6410   -0.5634   23.2690 C   0  0  0  0  0  0  0  0  0  0  0  0
    4.3910   -3.3622   24.4997 N   0  0  0  0  0  0  0  0  0  0  0  0
    7.8214   -5.1569   28.8818 N   0  0  0  0  0  0  0  0  0  0  0  0
    8.2568   -4.6344   26.5700 N   0  0  0  0  0  0  0  0  0  0  0  0
    6.9096   -6.4631   27.1588 N   0  0  0  0  0  0  0  0  0  0  0  0
    7.5858   -1.6984   23.6524 N   0  0  0  0  0  0  0  0  0  0  0  0
    8.6112   -1.8989   21.5486 O   0  0  0  0  0  0  0  0  0  0  0  0
    4.7346   -4.4314   21.3002 H   0  0  0  0  0  0  0  0  0  0  0  0
    6.8025   -3.0650   21.4720 H   0  0  0  0  0  0  0  0  0  0  0  0
    9.8129   -2.4338   28.6307 H   0  0  0  0  0  0  0  0  0  0  0  0
    3.2343   -4.5727   23.2953 H   0  0  0  0  0  0  0  0  0  0  0  0
    8.6855   -3.9272   30.2925 H   0  0  0  0  0  0  0  0  0  0  0  0
    5.6912   -2.1368   25.5188 H   0  0  0  0  0  0  0  0  0  0  0  0
   13.7745   -0.0497   21.7187 H   0  0  0  0  0  0  0  0  0  0  0  0
   14.0048   -1.2061   23.0274 H   0  0  0  0  0  0  0  0  0  0  0  0
   13.3655    0.9727   23.9581 H   0  0  0  0  0  0  0  0  0  0  0  0
   11.9502    1.0544   22.9175 H   0  0  0  0  0  0  0  0  0  0  0  0
   11.5595   -0.9554   21.2106 H   0  0  0  0  0  0  0  0  0  0  0  0
   12.7368   -2.2617   21.2108 H   0  0  0  0  0  0  0  0  0  0  0  0
   12.4429   -0.9040   25.2072 H   0  0  0  0  0  0  0  0  0  0  0  0
   11.2504    0.3877   25.1426 H   0  0  0  0  0  0  0  0  0  0  0  0
   10.6200   -2.8585   22.3859 H   0  0  0  0  0  0  0  0  0  0  0  0
   12.0345   -3.0070   23.4210 H   0  0  0  0  0  0  0  0  0  0  0  0
   10.0798    0.0313   22.4684 H   0  0  0  0  0  0  0  0  0  0  0  0
    9.1952    0.1056   24.0044 H   0  0  0  0  0  0  0  0  0  0  0  0
    6.5180   -7.0588   27.8589 H   0  0  0  0  0  0  0  0  0  0  0  0
    6.8330   -6.6804   26.1866 H   0  0  0  0  0  0  0  0  0  0  0  0
    7.7084   -1.2567   24.5613 H   0  0  0  0  0  0  0  0  0  0  0  0
  1  2  3  0  0  0  0
  1  9  1  0  0  0  0
  2 18  1  0  0  0  0
  3  4  2  0  0  0  0
  3  6  1  0  0  0  0
  4 10  1  0  0  0  0
  5  7  1  0  0  0  0
  5  9  2  0  0  0  0
  6 20  2  0  0  0  0
  7 21  2  0  0  0  0
  8 10  2  0  0  0  0
  8 20  1  0  0  0  0
  9 22  1  0  0  0  0
 10 24  1  0  0  0  0
 11 21  1  0  0  0  0
 11 22  2  0  0  0  0
 11 23  1  0  0  0  0
 12 19  1  0  0  0  0
 12 24  1  0  0  0  0
 12 25  2  0  0  0  0
 13 14  1  0  0  0  0
 13 15  1  0  0  0  0
 14 16  1  0  0  0  0
 15 17  1  0  0  0  0
 16 18  1  0  0  0  0
 17 18  1  0  0  0  0
 18 19  1  0  0  0  0
  3 26  1  0  0  0  0
  4 27  1  0  0  0  0
  5 28  1  0  0  0  0
  6 29  1  0  0  0  0
  7 30  1  0  0  0  0
  8 31  1  0  0  0  0
 13 32  1  0  0  0  0
 13 33  1  0  0  0  0
 14 34  1  0  0  0  0
 14 35  1  0  0  0  0
 15 36  1  0  0  0  0
 15 37  1  0  0  0  0
 16 38  1  0  0  0  0
 16 39  1  0  0  0  0
 17 40  1  0  0  0  0
 17 41  1  0  0  0  0
 19 42  1  0  0  0  0
 19 43  1  0  0  0  0
 23 44  1  0  0  0  0
 23 45  1  0  0  0  0
 24 46  1  0  0  0  0
M  END
> <Chemgauss4 Score>
-4.70822381973267

> <Number of Confs>
76

$$$$
ANT-DIA-b7f-1
  -OEChem-03242005443D

 25 25  0     0  0  0  0  0  0999 V2000
   12.2886   -1.3491   22.6604 C   0  0  0  0  0  0  0  0  0  0  0  0
   11.0710   -1.9776   22.4243 C   0  0  0  0  0  0  0  0  0  0  0  0
   12.2795   -0.1704   23.3887 C   0  0  0  0  0  0  0  0  0  0  0  0
    9.9960   -0.2346   23.6336 C   0  0  0  0  0  0  0  0  0  0  0  0
    9.8981   -1.4162   22.9166 C   0  0  0  0  0  0  0  0  0  0  0  0
    7.7083   -5.3436   25.8251 C   0  0  0  0  0  0  0  0  0  0  0  0
    8.5613   -2.0742   22.6779 C   0  0  0  0  0  0  0  0  0  0  0  0
    8.1827   -3.0680   23.7732 C   0  0  0  0  0  0  0  0  0  0  0  0
   11.1606    0.4051   23.8831 N   0  0  0  0  0  0  0  0  0  0  0  0
    9.1717   -4.1508   23.9211 N   0  0  0  0  0  0  0  0  0  0  0  0
    9.8002   -3.8861   26.4170 O   0  0  0  0  0  0  0  0  0  0  0  0
   10.1410   -6.1064   25.2721 O   0  0  0  0  0  0  0  0  0  0  0  0
    9.3839   -4.8820   25.4491 S   0  0  0  0  0  0  0  0  0  0  0  0
   13.2155   -1.7687   22.2865 H   0  0  0  0  0  0  0  0  0  0  0  0
   11.0457   -2.9037   21.8564 H   0  0  0  0  0  0  0  0  0  0  0  0
   13.2031    0.3585   23.5996 H   0  0  0  0  0  0  0  0  0  0  0  0
    9.1149    0.2502   24.0424 H   0  0  0  0  0  0  0  0  0  0  0  0
    7.6967   -5.8340   26.7998 H   0  0  0  0  0  0  0  0  0  0  0  0
    7.0982   -4.4393   25.8447 H   0  0  0  0  0  0  0  0  0  0  0  0
    7.3568   -6.0257   25.0496 H   0  0  0  0  0  0  0  0  0  0  0  0
    8.5972   -2.5948   21.7126 H   0  0  0  0  0  0  0  0  0  0  0  0
    7.7827   -1.3072   22.5783 H   0  0  0  0  0  0  0  0  0  0  0  0
    8.1286   -2.5558   24.7391 H   0  0  0  0  0  0  0  0  0  0  0  0
    7.2106   -3.5329   23.5785 H   0  0  0  0  0  0  0  0  0  0  0  0
    9.2462   -4.7631   23.0983 H   0  0  0  0  0  0  0  0  0  0  0  0
  1  2  2  0  0  0  0
  1  3  1  0  0  0  0
  2  5  1  0  0  0  0
  3  9  2  0  0  0  0
  4  5  2  0  0  0  0
  4  9  1  0  0  0  0
  5  7  1  0  0  0  0
  6 13  1  0  0  0  0
  7  8  1  0  0  0  0
  8 10  1  0  0  0  0
 10 13  1  0  0  0  0
 11 13  2  0  0  0  0
 12 13  2  0  0  0  0
  1 14  1  0  0  0  0
  2 15  1  0  0  0  0
  3 16  1  0  0  0  0
  4 17  1  0  0  0  0
  6 18  1  0  0  0  0
  6 19  1  0  0  0  0
  6 20  1  0  0  0  0
  7 21  1  0  0  0  0
  7 22  1  0  0  0  0
  8 23  1  0  0  0  0
  8 24  1  0  0  0  0
 10 25  1  0  0  0  0
M  END
> <Chemgauss4 Score>
-4.70602369308472

> <Number of Confs>
166

$$$$
KIM-UNI-7d1-3
  -OEChem-03242005443D

 41 42  0     0  0  0  0  0  0999 V2000
    6.5086   -5.5531   25.8834 C   0  0  0  0  0  0  0  0  0  0  0  0
    6.6693   -5.5262   27.2686 C   0  0  0  0  0  0  0  0  0  0  0  0
    8.8783   -4.5870   26.9942 C   0  0  0  0  0  0  0  0  0  0  0  0
    8.7176   -4.6139   25.6088 C   0  0  0  0  0  0  0  0  0  0  0  0
    7.5328   -5.0970   25.0534 C   0  0  0  0  0  0  0  0  0  0  0  0
    7.8541   -5.0431   27.8241 C   0  0  0  0  0  0  0  0  0  0  0  0
   12.2431    0.1908   23.7258 C   0  0  0  0  0  0  0  0  0  0  0  0
    6.2364   -5.5826   22.9539 C   0  0  0  0  0  0  0  0  0  0  0  0
   11.6638   -2.1984   23.0905 C   0  0  0  0  0  0  0  0  0  0  0  0
   10.6160   -1.1161   25.0474 C   0  0  0  0  0  0  0  0  0  0  0  0
   10.3056   -2.8118   22.7405 C   0  0  0  0  0  0  0  0  0  0  0  0
    9.2811   -1.7491   24.6517 C   0  0  0  0  0  0  0  0  0  0  0  0
   13.2690    0.1902   22.6205 C   0  0  0  0  0  0  0  0  0  0  0  0
    6.4381   -5.4542   21.4649 C   0  0  0  0  0  0  0  0  0  0  0  0
    9.8361   -4.1169   24.7393 C   0  0  0  0  0  0  0  0  0  0  0  0
   11.5080   -0.9826   23.8959 N   0  0  0  0  0  0  0  0  0  0  0  0
    9.4175   -3.0006   23.8951 N   0  0  0  0  0  0  0  0  0  0  0  0
    7.3532   -5.1324   23.6683 N   0  0  0  0  0  0  0  0  0  0  0  0
   12.0978    1.2046   24.4137 O   0  0  0  0  0  0  0  0  0  0  0  0
    5.1904   -6.0335   23.4095 O   0  0  0  0  0  0  0  0  0  0  0  0
    8.0513   -5.0092   29.5335 Cl  0  0  0  0  0  0  0  0  0  0  0  0
    5.5806   -5.9322   25.4628 H   0  0  0  0  0  0  0  0  0  0  0  0
    5.8633   -5.8863   27.9030 H   0  0  0  0  0  0  0  0  0  0  0  0
    9.8041   -4.2094   27.4227 H   0  0  0  0  0  0  0  0  0  0  0  0
   12.2597   -2.9020   23.6862 H   0  0  0  0  0  0  0  0  0  0  0  0
   12.2188   -2.0063   22.1694 H   0  0  0  0  0  0  0  0  0  0  0  0
   10.4381   -0.1413   25.5147 H   0  0  0  0  0  0  0  0  0  0  0  0
   11.1340   -1.7407   25.7867 H   0  0  0  0  0  0  0  0  0  0  0  0
    9.8119   -2.1854   21.9655 H   0  0  0  0  0  0  0  0  0  0  0  0
   10.4905   -3.7922   22.2544 H   0  0  0  0  0  0  0  0  0  0  0  0
    8.7072   -1.9418   25.5820 H   0  0  0  0  0  0  0  0  0  0  0  0
    8.6794   -1.0085   24.0803 H   0  0  0  0  0  0  0  0  0  0  0  0
   12.8036    0.5377   21.7041 H   0  0  0  0  0  0  0  0  0  0  0  0
   13.6457   -0.8187   22.4857 H   0  0  0  0  0  0  0  0  0  0  0  0
   14.0865    0.8493   22.8945 H   0  0  0  0  0  0  0  0  0  0  0  0
    6.8873   -6.3706   21.0718 H   0  0  0  0  0  0  0  0  0  0  0  0
    7.1048   -4.6134   21.2528 H   0  0  0  0  0  0  0  0  0  0  0  0
    5.4777   -5.2764   20.9721 H   0  0  0  0  0  0  0  0  0  0  0  0
   10.6798   -3.7792   25.3510 H   0  0  0  0  0  0  0  0  0  0  0  0
   10.2072   -4.9117   24.0838 H   0  0  0  0  0  0  0  0  0  0  0  0
    8.1338   -4.7858   23.1005 H   0  0  0  0  0  0  0  0  0  0  0  0
  1  2  2  0  0  0  0
  1  5  1  0  0  0  0
  2  6  1  0  0  0  0
  3  4  1  0  0  0  0
  3  6  2  0  0  0  0
  4  5  2  0  0  0  0
  4 15  1  0  0  0  0
  5 18  1  0  0  0  0
  6 21  1  0  0  0  0
  7 13  1  0  0  0  0
  7 16  1  0  0  0  0
  7 19  2  0  0  0  0
  8 14  1  0  0  0  0
  8 18  1  0  0  0  0
  8 20  2  0  0  0  0
  9 11  1  0  0  0  0
  9 16  1  0  0  0  0
 10 12  1  0  0  0  0
 10 16  1  0  0  0  0
 11 17  1  0  0  0  0
 12 17  1  0  0  0  0
 15 17  1  0  0  0  0
  1 22  1  0  0  0  0
  2 23  1  0  0  0  0
  3 24  1  0  0  0  0
  9 25  1  0  0  0  0
  9 26  1  0  0  0  0
 10 27  1  0  0  0  0
 10 28  1  0  0  0  0
 11 29  1  0  0  0  0
 11 30  1  0  0  0  0
 12 31  1  0  0  0  0
 12 32  1  0  0  0  0
 13 33  1  0  0  0  0
 13 34  1  0  0  0  0
 13 35  1  0  0  0  0
 14 36  1  0  0  0  0
 14 37  1  0  0  0  0
 14 38  1  0  0  0  0
 15 39  1  0  0  0  0
 15 40  1  0  0  0  0
 18 41  1  0  0  0  0
M  END
> <Chemgauss4 Score>
-4.70207834243774

> <Number of Confs>
26

$$$$
JOH-MEM-5e3-3
  -OEChem-03242005443D

 53 55  0     1  0  0  0  0  0999 V2000
    7.2690   -2.5470   22.9307 C   0  0  0  0  0  0  0  0  0  0  0  0
    6.6578   -1.6518   22.0481 C   0  0  0  0  0  0  0  0  0  0  0  0
    8.8083   -0.7197   21.4128 C   0  0  0  0  0  0  0  0  0  0  0  0
   10.8167   -2.8663   23.5851 C   0  0  0  0  0  0  0  0  0  0  0  0
    9.4468   -1.6127   22.2962 C   0  0  0  0  0  0  0  0  0  0  0  0
   10.8028   -1.8530   22.6546 C   0  0  0  0  0  0  0  0  0  0  0  0
    8.6640   -2.5039   23.0333 C   0  0  0  0  0  0  0  0  0  0  0  0
    7.4136   -0.7514   21.2999 C   0  0  0  0  0  0  0  0  0  0  0  0
    6.6493   -5.6426   25.9782 C   0  0  0  0  0  0  0  0  0  0  0  0
   11.3273    0.3179   25.0503 C   0  0  0  0  0  0  0  0  0  0  0  0
    7.6758   -4.7803   26.6575 C   0  0  1  0  0  0  0  0  0  0  0  0
    8.7930   -5.5406   27.3747 C   0  0  2  0  0  0  0  0  0  0  0  0
    9.8677   -6.0920   26.4307 C   0  0  2  0  0  0  0  0  0  0  0  0
   10.3259   -5.0002   25.4597 C   0  0  1  0  0  0  0  0  0  0  0  0
    9.1103   -4.3477   24.7731 C   0  0  2  0  0  0  0  0  0  0  0  0
   11.7469    0.2636   26.4818 C   0  0  0  0  0  0  0  0  0  0  0  0
    7.6167    1.0051   19.7096 C   0  0  0  0  0  0  0  0  0  0  0  0
   11.9891   -1.1465   22.1306 C   0  0  0  0  0  0  0  0  0  0  0  0
   12.1924    0.2613   22.7198 C   0  0  0  0  0  0  0  0  0  0  0  0
    9.5221   -3.2526   23.8069 N   0  0  0  0  0  0  0  0  0  0  0  0
   12.3739    0.2308   24.1463 N   0  0  0  0  0  0  0  0  0  0  0  0
    6.3790   -5.6056   24.7870 O   0  0  0  0  0  0  0  0  0  0  0  0
   10.1389    0.4293   24.7728 O   0  0  0  0  0  0  0  0  0  0  0  0
    8.1870   -3.8236   25.7375 O   0  0  0  0  0  0  0  0  0  0  0  0
    6.0553   -6.4726   26.8702 O   0  0  0  0  0  0  0  0  0  0  0  0
    8.2493   -6.5668   28.1947 O   0  0  0  0  0  0  0  0  0  0  0  0
    9.3534   -7.1992   25.6970 O   0  0  0  0  0  0  0  0  0  0  0  0
   11.0519   -4.0117   26.1899 O   0  0  0  0  0  0  0  0  0  0  0  0
    6.7886    0.1085   20.4469 O   0  0  0  0  0  0  0  0  0  0  0  0
    6.6756   -3.2458   23.5109 H   0  0  0  0  0  0  0  0  0  0  0  0
    5.5749   -1.6657   21.9481 H   0  0  0  0  0  0  0  0  0  0  0  0
    9.3886   -0.0136   20.8250 H   0  0  0  0  0  0  0  0  0  0  0  0
   11.6366   -3.3405   24.1083 H   0  0  0  0  0  0  0  0  0  0  0  0
    7.1012   -4.2142   27.4199 H   0  0  0  0  0  0  0  0  0  0  0  0
    9.2814   -4.8293   28.0457 H   0  0  0  0  0  0  0  0  0  0  0  0
   10.7148   -6.4637   27.0306 H   0  0  0  0  0  0  0  0  0  0  0  0
   10.9968   -5.4184   24.6981 H   0  0  0  0  0  0  0  0  0  0  0  0
    8.5955   -5.0799   24.1216 H   0  0  0  0  0  0  0  0  0  0  0  0
   11.9590    1.2624   26.8960 H   0  0  0  0  0  0  0  0  0  0  0  0
   10.9665   -0.1619   27.1329 H   0  0  0  0  0  0  0  0  0  0  0  0
   12.6508   -0.3325   26.6857 H   0  0  0  0  0  0  0  0  0  0  0  0
    6.9938    1.6340   19.0688 H   0  0  0  0  0  0  0  0  0  0  0  0
    8.3231    0.4339   19.1020 H   0  0  0  0  0  0  0  0  0  0  0  0
    8.1688    1.6364   20.4099 H   0  0  0  0  0  0  0  0  0  0  0  0
   11.9162   -1.0461   21.0296 H   0  0  0  0  0  0  0  0  0  0  0  0
   12.9142   -1.7354   22.2945 H   0  0  0  0  0  0  0  0  0  0  0  0
   13.0828    0.7383   22.2984 H   0  0  0  0  0  0  0  0  0  0  0  0
   11.3299    0.9026   22.5102 H   0  0  0  0  0  0  0  0  0  0  0  0
   13.3210    0.1406   24.5110 H   0  0  0  0  0  0  0  0  0  0  0  0
    5.3796   -7.0433   26.4460 H   0  0  0  0  0  0  0  0  0  0  0  0
    7.7579   -7.1638   27.6074 H   0  0  0  0  0  0  0  0  0  0  0  0
   10.0707   -7.5049   25.1208 H   0  0  0  0  0  0  0  0  0  0  0  0
   11.8080   -4.4673   26.5898 H   0  0  0  0  0  0  0  0  0  0  0  0
  1  2  2  0  0  0  0
  1  7  1  0  0  0  0
  2  8  1  0  0  0  0
  3  5  1  0  0  0  0
  3  8  2  0  0  0  0
  4  6  2  0  0  0  0
  4 20  1  0  0  0  0
  5  6  1  0  0  0  0
  5  7  2  0  0  0  0
  6 18  1  0  0  0  0
  7 20  1  0  0  0  0
  8 29  1  0  0  0  0
  9 11  1  1  0  0  0
  9 22  2  0  0  0  0
  9 25  1  0  0  0  0
 10 16  1  0  0  0  0
 10 21  1  0  0  0  0
 10 23  2  0  0  0  0
 11 12  1  0  0  0  0
 11 24  1  0  0  0  0
 12 13  1  0  0  0  0
 12 26  1  1  0  0  0
 13 14  1  0  0  0  0
 13 27  1  1  0  0  0
 14 15  1  0  0  0  0
 14 28  1  6  0  0  0
 15 20  1  1  0  0  0
 15 24  1  0  0  0  0
 17 29  1  0  0  0  0
 18 19  1  0  0  0  0
 19 21  1  0  0  0  0
  1 30  1  0  0  0  0
  2 31  1  0  0  0  0
  3 32  1  0  0  0  0
  4 33  1  0  0  0  0
 11 34  1  0  0  0  0
 12 35  1  0  0  0  0
 13 36  1  0  0  0  0
 14 37  1  0  0  0  0
 15 38  1  0  0  0  0
 16 39  1  0  0  0  0
 16 40  1  0  0  0  0
 16 41  1  0  0  0  0
 17 42  1  0  0  0  0
 17 43  1  0  0  0  0
 17 44  1  0  0  0  0
 18 45  1  0  0  0  0
 18 46  1  0  0  0  0
 19 47  1  0  0  0  0
 19 48  1  0  0  0  0
 21 49  1  0  0  0  0
 25 50  1  0  0  0  0
 26 51  1  0  0  0  0
 27 52  1  0  0  0  0
 28 53  1  0  0  0  0
M  END
> <Chemgauss4 Score>
-4.70017957687378

> <Number of Confs>
200

$$$$
TRY-UNI-714-12
  -OEChem-03242005443D

 30 31  0     0  0  0  0  0  0999 V2000
    6.3912   -5.8573   27.0784 C   0  0  0  0  0  0  0  0  0  0  0  0
    7.3642   -5.1805   26.3431 C   0  0  0  0  0  0  0  0  0  0  0  0
    5.2534   -6.3518   26.4406 C   0  0  0  0  0  0  0  0  0  0  0  0
   12.9492   -0.9608   22.8255 C   0  0  0  0  0  0  0  0  0  0  0  0
    6.0617   -5.4925   24.3323 C   0  0  0  0  0  0  0  0  0  0  0  0
   12.7466    0.0926   23.7025 C   0  0  0  0  0  0  0  0  0  0  0  0
   10.7631   -0.7938   24.4496 C   0  0  0  0  0  0  0  0  0  0  0  0
   11.9897   -1.9662   22.7832 C   0  0  0  0  0  0  0  0  0  0  0  0
    7.1995   -4.9980   24.9701 C   0  0  0  0  0  0  0  0  0  0  0  0
   10.8726   -1.8886   23.6075 C   0  0  0  0  0  0  0  0  0  0  0  0
    5.0887   -6.1694   25.0676 C   0  0  0  0  0  0  0  0  0  0  0  0
    9.0441   -3.2885   24.6638 C   0  0  0  0  0  0  0  0  0  0  0  0
   12.1825   -3.1134   21.8464 C   0  0  0  0  0  0  0  0  0  0  0  0
   11.6744    0.2024   24.5185 N   0  0  0  0  0  0  0  0  0  0  0  0
    8.1730   -4.3199   24.2359 N   0  0  0  0  0  0  0  0  0  0  0  0
    9.8692   -2.8861   23.6014 N   0  0  0  0  0  0  0  0  0  0  0  0
    9.0685   -2.8204   25.7976 O   0  0  0  0  0  0  0  0  0  0  0  0
    3.6850   -6.7795   24.2806 Cl  0  0  0  0  0  0  0  0  0  0  0  0
    6.5195   -5.9993   28.1476 H   0  0  0  0  0  0  0  0  0  0  0  0
    8.2468   -4.7994   26.8511 H   0  0  0  0  0  0  0  0  0  0  0  0
    4.5040   -6.8774   27.0267 H   0  0  0  0  0  0  0  0  0  0  0  0
   13.8317   -0.9914   22.1955 H   0  0  0  0  0  0  0  0  0  0  0  0
    5.9367   -5.3487   23.2613 H   0  0  0  0  0  0  0  0  0  0  0  0
   13.4655    0.9022   23.7734 H   0  0  0  0  0  0  0  0  0  0  0  0
    9.9144   -0.6769   25.1170 H   0  0  0  0  0  0  0  0  0  0  0  0
   12.7374   -3.9188   22.3414 H   0  0  0  0  0  0  0  0  0  0  0  0
   11.2195   -3.5115   21.5039 H   0  0  0  0  0  0  0  0  0  0  0  0
   12.7372   -2.8053   20.9515 H   0  0  0  0  0  0  0  0  0  0  0  0
    8.2709   -4.6065   23.2561 H   0  0  0  0  0  0  0  0  0  0  0  0
    9.7337   -3.3664   22.7154 H   0  0  0  0  0  0  0  0  0  0  0  0
  1  2  2  0  0  0  0
  1  3  1  0  0  0  0
  2  9  1  0  0  0  0
  3 11  2  0  0  0  0
  4  6  2  0  0  0  0
  4  8  1  0  0  0  0
  5  9  2  0  0  0  0
  5 11  1  0  0  0  0
  6 14  1  0  0  0  0
  7 10  1  0  0  0  0
  7 14  2  0  0  0  0
  8 10  2  0  0  0  0
  8 13  1  0  0  0  0
  9 15  1  0  0  0  0
 10 16  1  0  0  0  0
 11 18  1  0  0  0  0
 12 15  1  0  0  0  0
 12 16  1  0  0  0  0
 12 17  2  0  0  0  0
  1 19  1  0  0  0  0
  2 20  1  0  0  0  0
  3 21  1  0  0  0  0
  4 22  1  0  0  0  0
  5 23  1  0  0  0  0
  6 24  1  0  0  0  0
  7 25  1  0  0  0  0
 13 26  1  0  0  0  0
 13 27  1  0  0  0  0
 13 28  1  0  0  0  0
 15 29  1  0  0  0  0
 16 30  1  0  0  0  0
M  END
> <Chemgauss4 Score>
-4.69970464706421

> <Number of Confs>
6

$$$$
DAN-LON-a5f-5
  -OEChem-03242005443D

 44 46  0     1  0  0  0  0  0999 V2000
    5.9921    1.7507   20.8752 C   0  0  0  0  0  0  0  0  0  0  0  0
   11.1362   -0.0208   23.9559 C   0  0  0  0  0  0  0  0  0  0  0  0
   11.7045   -1.9382   22.6003 C   0  0  0  0  0  0  0  0  0  0  0  0
    7.0387    1.0467   21.4705 C   0  0  0  0  0  0  0  0  0  0  0  0
    5.3903    1.2586   19.7170 C   0  0  0  0  0  0  0  0  0  0  0  0
   12.3870    0.5369   23.6914 C   0  0  0  0  0  0  0  0  0  0  0  0
   12.9554   -1.3804   22.3358 C   0  0  0  0  0  0  0  0  0  0  0  0
    6.8820   -0.6416   19.7494 C   0  0  0  0  0  0  0  0  0  0  0  0
   10.7950   -1.2584   23.4103 C   0  0  0  0  0  0  0  0  0  0  0  0
    7.4838   -0.1494   20.9076 C   0  0  0  0  0  0  0  0  0  0  0  0
   13.2966   -0.1428   22.8814 C   0  0  0  0  0  0  0  0  0  0  0  0
    5.8353    0.0624   19.1541 C   0  0  0  0  0  0  0  0  0  0  0  0
    8.1759   -5.1681   24.9118 C   0  0  0  0  0  0  0  0  0  0  0  0
    6.9911   -3.0686   24.1435 C   0  0  0  0  0  0  0  0  0  0  0  0
    7.1014   -2.1560   22.9241 C   0  0  0  0  0  0  0  0  0  0  0  0
    9.4152   -3.4089   23.6981 C   0  0  0  0  0  0  0  0  0  0  0  0
    9.4273   -1.8677   23.6978 C   0  0  2  0  0  0  0  0  0  0  0  0
    8.6113   -0.9060   21.5483 C   0  0  0  0  0  0  0  0  0  0  0  0
    9.4964   -5.8971   24.9454 C   0  0  0  0  0  0  0  0  0  0  0  0
    8.1717   -3.9276   24.2747 N   0  0  0  0  0  0  0  0  0  0  0  0
    8.2982   -1.2943   22.9244 N   0  0  1  0  0  0  0  0  0  0  0  0
    7.1831   -5.6788   25.4358 O   0  0  0  0  0  0  0  0  0  0  0  0
   14.8394    0.5455   22.5552 Cl  0  0  0  0  0  0  0  0  0  0  0  0
    5.0933   -0.5437   17.7245 Cl  0  0  0  0  0  0  0  0  0  0  0  0
   10.3305   -5.3613   26.3996 Cl  0  0  0  0  0  0  0  0  0  0  0  0
    5.6459    2.6822   21.3138 H   0  0  0  0  0  0  0  0  0  0  0  0
   10.4330    0.5149   24.5882 H   0  0  0  0  0  0  0  0  0  0  0  0
   11.4463   -2.9028   22.1712 H   0  0  0  0  0  0  0  0  0  0  0  0
    7.5018    1.4377   22.3727 H   0  0  0  0  0  0  0  0  0  0  0  0
    4.5757    1.8181   19.2637 H   0  0  0  0  0  0  0  0  0  0  0  0
   12.6388    1.5022   24.1232 H   0  0  0  0  0  0  0  0  0  0  0  0
   13.6540   -1.9216   21.7029 H   0  0  0  0  0  0  0  0  0  0  0  0
    7.2323   -1.5749   19.3147 H   0  0  0  0  0  0  0  0  0  0  0  0
    6.8589   -2.4636   25.0428 H   0  0  0  0  0  0  0  0  0  0  0  0
    6.1230   -3.7283   24.0648 H   0  0  0  0  0  0  0  0  0  0  0  0
    7.0672   -2.7558   22.0060 H   0  0  0  0  0  0  0  0  0  0  0  0
    6.2137   -1.5108   22.8807 H   0  0  0  0  0  0  0  0  0  0  0  0
    9.4957   -3.8158   22.6827 H   0  0  0  0  0  0  0  0  0  0  0  0
   10.2862   -3.7753   24.2478 H   0  0  0  0  0  0  0  0  0  0  0  0
    9.2345   -1.5537   24.7741 H   0  0  0  0  0  0  0  0  0  0  0  0
    8.8348   -1.8175   20.9832 H   0  0  0  0  0  0  0  0  0  0  0  0
    9.5259   -0.3043   21.5701 H   0  0  0  0  0  0  0  0  0  0  0  0
   10.0696   -5.6263   24.0662 H   0  0  0  0  0  0  0  0  0  0  0  0
    9.3076   -6.9633   24.9956 H   0  0  0  0  0  0  0  0  0  0  0  0
  1  4  2  0  0  0  0
  1  5  1  0  0  0  0
  2  6  2  0  0  0  0
  2  9  1  0  0  0  0
  3  7  1  0  0  0  0
  3  9  2  0  0  0  0
  4 10  1  0  0  0  0
  5 12  2  0  0  0  0
  6 11  1  0  0  0  0
  7 11  2  0  0  0  0
  8 10  2  0  0  0  0
  8 12  1  0  0  0  0
  9 17  1  6  0  0  0
 10 18  1  0  0  0  0
 11 23  1  0  0  0  0
 12 24  1  0  0  0  0
 13 19  1  0  0  0  0
 13 20  1  0  0  0  0
 13 22  2  0  0  0  0
 14 15  1  0  0  0  0
 14 20  1  0  0  0  0
 15 21  1  0  0  0  0
 16 17  1  0  0  0  0
 16 20  1  0  0  0  0
 17 21  1  0  0  0  0
 18 21  1  6  0  0  0
 19 25  1  0  0  0  0
  1 26  1  0  0  0  0
  2 27  1  0  0  0  0
  3 28  1  0  0  0  0
  4 29  1  0  0  0  0
  5 30  1  0  0  0  0
  6 31  1  0  0  0  0
  7 32  1  0  0  0  0
  8 33  1  0  0  0  0
 14 34  1  0  0  0  0
 14 35  1  0  0  0  0
 15 36  1  0  0  0  0
 15 37  1  0  0  0  0
 16 38  1  0  0  0  0
 16 39  1  0  0  0  0
 17 40  1  0  0  0  0
 18 41  1  0  0  0  0
 18 42  1  0  0  0  0
 19 43  1  0  0  0  0
 19 44  1  0  0  0  0
M  END
> <Chemgauss4 Score>
-4.69096708297729

> <Number of Confs>
58

$$$$
DUN-NEW-f8c-21
  -OEChem-03242005443D

 39 40  0     0  0  0  0  0  0999 V2000
   10.6881   -4.8823   25.9727 C   0  0  0  0  0  0  0  0  0  0  0  0
   10.7363   -3.5090   25.7065 C   0  0  0  0  0  0  0  0  0  0  0  0
    9.6193   -5.6579   25.5279 C   0  0  0  0  0  0  0  0  0  0  0  0
    8.2173   -1.6096   23.8605 C   0  0  0  0  0  0  0  0  0  0  0  0
    9.6870   -2.9127   24.9794 C   0  0  0  0  0  0  0  0  0  0  0  0
    8.5672   -5.0884   24.8050 C   0  0  0  0  0  0  0  0  0  0  0  0
    9.4137   -1.5872   24.5397 C   0  0  0  0  0  0  0  0  0  0  0  0
    8.6288   -3.7145   24.5463 C   0  0  0  0  0  0  0  0  0  0  0  0
   12.8598   -0.6961   22.7094 C   0  0  0  0  0  0  0  0  0  0  0  0
    5.6473   -6.0358   26.0545 C   0  0  0  0  0  0  0  0  0  0  0  0
   13.4464   -1.6636   21.7358 C   0  0  0  0  0  0  0  0  0  0  0  0
   10.2553   -0.3949   24.7667 C   0  0  0  0  0  0  0  0  0  0  0  0
    7.4381   -5.9483   24.3435 C   0  0  0  0  0  0  0  0  0  0  0  0
    5.0909   -6.8956   27.1606 C   0  0  0  0  0  0  0  0  0  0  0  0
   10.7155    0.3037   23.4743 C   0  0  0  0  0  0  0  0  0  0  0  0
    7.7515   -2.8970   23.8701 N   0  0  0  0  0  0  0  0  0  0  0  0
    6.7581   -6.5919   25.4383 N   0  0  0  0  0  0  0  0  0  0  0  0
   11.4821   -0.5714   22.6285 N   0  0  0  0  0  0  0  0  0  0  0  0
   13.5960   -0.0992   23.4862 O   0  0  0  0  0  0  0  0  0  0  0  0
    5.1324   -4.9626   25.7456 O   0  0  0  0  0  0  0  0  0  0  0  0
    5.8925   -6.4289   28.6687 Cl  0  0  0  0  0  0  0  0  0  0  0  0
   11.4945   -5.3475   26.5337 H   0  0  0  0  0  0  0  0  0  0  0  0
   11.5768   -2.9189   26.0604 H   0  0  0  0  0  0  0  0  0  0  0  0
    9.6106   -6.7223   25.7518 H   0  0  0  0  0  0  0  0  0  0  0  0
    7.6547   -0.8266   23.3714 H   0  0  0  0  0  0  0  0  0  0  0  0
   13.7195   -1.1862   20.7810 H   0  0  0  0  0  0  0  0  0  0  0  0
   14.3762   -2.1231   22.1079 H   0  0  0  0  0  0  0  0  0  0  0  0
   12.7955   -2.5091   21.4612 H   0  0  0  0  0  0  0  0  0  0  0  0
   11.1599   -0.6724   25.3430 H   0  0  0  0  0  0  0  0  0  0  0  0
    9.7370    0.3486   25.4054 H   0  0  0  0  0  0  0  0  0  0  0  0
    6.6927   -5.3592   23.7917 H   0  0  0  0  0  0  0  0  0  0  0  0
    7.7859   -6.7378   23.6637 H   0  0  0  0  0  0  0  0  0  0  0  0
    4.0121   -6.7734   27.2851 H   0  0  0  0  0  0  0  0  0  0  0  0
    5.3093   -7.9459   26.9491 H   0  0  0  0  0  0  0  0  0  0  0  0
    9.8579    0.6417   22.8841 H   0  0  0  0  0  0  0  0  0  0  0  0
   11.3392    1.1749   23.7000 H   0  0  0  0  0  0  0  0  0  0  0  0
    6.8883   -3.2020   23.4419 H   0  0  0  0  0  0  0  0  0  0  0  0
    7.1057   -7.4878   25.7718 H   0  0  0  0  0  0  0  0  0  0  0  0
   10.9866   -1.1283   21.9341 H   0  0  0  0  0  0  0  0  0  0  0  0
  1  2  2  0  0  0  0
  1  3  1  0  0  0  0
  2  5  1  0  0  0  0
  3  6  2  0  0  0  0
  4  7  2  0  0  0  0
  4 16  1  0  0  0  0
  5  7  1  0  0  0  0
  5  8  2  0  0  0  0
  6  8  1  0  0  0  0
  6 13  1  0  0  0  0
  7 12  1  0  0  0  0
  8 16  1  0  0  0  0
  9 11  1  0  0  0  0
  9 18  1  0  0  0  0
  9 19  2  0  0  0  0
 10 14  1  0  0  0  0
 10 17  1  0  0  0  0
 10 20  2  0  0  0  0
 12 15  1  0  0  0  0
 13 17  1  0  0  0  0
 14 21  1  0  0  0  0
 15 18  1  0  0  0  0
  1 22  1  0  0  0  0
  2 23  1  0  0  0  0
  3 24  1  0  0  0  0
  4 25  1  0  0  0  0
 11 26  1  0  0  0  0
 11 27  1  0  0  0  0
 11 28  1  0  0  0  0
 12 29  1  0  0  0  0
 12 30  1  0  0  0  0
 13 31  1  0  0  0  0
 13 32  1  0  0  0  0
 14 33  1  0  0  0  0
 14 34  1  0  0  0  0
 15 35  1  0  0  0  0
 15 36  1  0  0  0  0
 16 37  1  0  0  0  0
 17 38  1  0  0  0  0
 18 39  1  0  0  0  0
M  END
> <Chemgauss4 Score>
-4.68764305114746

> <Number of Confs>
200

$$$$
TRI-UNI-974-2
  -OEChem-03242005443D

 53 55  0     0  0  0  0  0  0999 V2000
    6.0227   -2.6787   22.8672 C   0  0  0  0  0  0  0  0  0  0  0  0
    7.0878   -3.1439   22.1041 C   0  0  0  0  0  0  0  0  0  0  0  0
   11.9361   -1.5523   22.2080 C   0  0  0  0  0  0  0  0  0  0  0  0
   12.3312    0.2646   23.7507 C   0  0  0  0  0  0  0  0  0  0  0  0
   11.2649   -2.2556   23.2082 C   0  0  0  0  0  0  0  0  0  0  0  0
   11.6599   -0.4387   24.7509 C   0  0  0  0  0  0  0  0  0  0  0  0
    5.3102   -3.5635   23.6689 C   0  0  0  0  0  0  0  0  0  0  0  0
    7.3979   -4.4924   22.1774 C   0  0  0  0  0  0  0  0  0  0  0  0
   12.4693   -0.2922   22.4793 C   0  0  0  0  0  0  0  0  0  0  0  0
   11.1267   -1.6988   24.4797 C   0  0  0  0  0  0  0  0  0  0  0  0
    5.6998   -4.8932   23.6721 C   0  0  0  0  0  0  0  0  0  0  0  0
    6.5900   -5.8709   26.4093 C   0  0  0  0  0  0  0  0  0  0  0  0
   10.4675   -3.8693   25.4783 C   0  0  0  0  0  0  0  0  0  0  0  0
    9.2634   -1.7826   26.0815 C   0  0  0  0  0  0  0  0  0  0  0  0
   10.1359   -4.4145   26.8697 C   0  0  0  0  0  0  0  0  0  0  0  0
    8.9717   -2.3946   27.4536 C   0  0  0  0  0  0  0  0  0  0  0  0
   13.1875    0.4604   21.4107 C   0  0  0  0  0  0  0  0  0  0  0  0
    4.9529   -5.8767   24.5259 C   0  0  0  0  0  0  0  0  0  0  0  0
    8.5399   -4.4259   28.6732 C   0  0  0  0  0  0  0  0  0  0  0  0
    7.8562   -5.7774   28.5521 C   0  0  0  0  0  0  0  0  0  0  0  0
    6.7290   -5.3822   22.9445 N   0  0  0  0  0  0  0  0  0  0  0  0
   10.4518   -2.4033   25.4828 N   0  0  0  0  0  0  0  0  0  0  0  0
    8.8726   -3.8569   27.3677 N   0  0  0  0  0  0  0  0  0  0  0  0
    5.2910   -5.7447   25.9243 N   0  0  0  0  0  0  0  0  0  0  0  0
    6.6372   -5.6983   27.7937 N   0  0  0  0  0  0  0  0  0  0  0  0
    7.5747   -6.1041   25.7096 O   0  0  0  0  0  0  0  0  0  0  0  0
    5.7484   -1.6285   22.8371 H   0  0  0  0  0  0  0  0  0  0  0  0
    7.6572   -2.4723   21.4720 H   0  0  0  0  0  0  0  0  0  0  0  0
   12.0399   -1.9940   21.2207 H   0  0  0  0  0  0  0  0  0  0  0  0
   12.7447    1.2449   23.9717 H   0  0  0  0  0  0  0  0  0  0  0  0
   10.8544   -3.2374   22.9866 H   0  0  0  0  0  0  0  0  0  0  0  0
   11.5587    0.0044   25.7383 H   0  0  0  0  0  0  0  0  0  0  0  0
    4.4773   -3.2132   24.2690 H   0  0  0  0  0  0  0  0  0  0  0  0
    8.2199   -4.9052   21.6019 H   0  0  0  0  0  0  0  0  0  0  0  0
   11.4578   -4.2365   25.1810 H   0  0  0  0  0  0  0  0  0  0  0  0
    9.7401   -4.2467   24.7473 H   0  0  0  0  0  0  0  0  0  0  0  0
    8.3985   -1.9220   25.4191 H   0  0  0  0  0  0  0  0  0  0  0  0
    9.4201   -0.7033   26.2009 H   0  0  0  0  0  0  0  0  0  0  0  0
   10.0562   -5.5061   26.7960 H   0  0  0  0  0  0  0  0  0  0  0  0
   10.9633   -4.1968   27.5586 H   0  0  0  0  0  0  0  0  0  0  0  0
    9.7505   -2.0918   28.1666 H   0  0  0  0  0  0  0  0  0  0  0  0
    8.0233   -1.9793   27.8158 H   0  0  0  0  0  0  0  0  0  0  0  0
   12.4861    1.0897   20.8493 H   0  0  0  0  0  0  0  0  0  0  0  0
   13.9702    1.1035   21.8335 H   0  0  0  0  0  0  0  0  0  0  0  0
   13.6827   -0.2217   20.7072 H   0  0  0  0  0  0  0  0  0  0  0  0
    3.8717   -5.7325   24.4252 H   0  0  0  0  0  0  0  0  0  0  0  0
    5.1732   -6.9060   24.2240 H   0  0  0  0  0  0  0  0  0  0  0  0
    9.4705   -4.4989   29.2449 H   0  0  0  0  0  0  0  0  0  0  0  0
    7.8778   -3.7133   29.1747 H   0  0  0  0  0  0  0  0  0  0  0  0
    8.5098   -6.4878   28.0366 H   0  0  0  0  0  0  0  0  0  0  0  0
    7.6056   -6.1871   29.5359 H   0  0  0  0  0  0  0  0  0  0  0  0
    4.5453   -5.5506   26.5853 H   0  0  0  0  0  0  0  0  0  0  0  0
    5.7744   -5.4624   28.2800 H   0  0  0  0  0  0  0  0  0  0  0  0
  1  2  1  0  0  0  0
  1  7  2  0  0  0  0
  2  8  2  0  0  0  0
  3  5  2  0  0  0  0
  3  9  1  0  0  0  0
  4  6  1  0  0  0  0
  4  9  2  0  0  0  0
  5 10  1  0  0  0  0
  6 10  2  0  0  0  0
  7 11  1  0  0  0  0
  8 21  1  0  0  0  0
  9 17  1  0  0  0  0
 10 22  1  0  0  0  0
 11 18  1  0  0  0  0
 11 21  2  0  0  0  0
 12 24  1  0  0  0  0
 12 25  1  0  0  0  0
 12 26  2  0  0  0  0
 13 15  1  0  0  0  0
 13 22  1  0  0  0  0
 14 16  1  0  0  0  0
 14 22  1  0  0  0  0
 15 23  1  0  0  0  0
 16 23  1  0  0  0  0
 18 24  1  0  0  0  0
 19 20  1  0  0  0  0
 19 23  1  0  0  0  0
 20 25  1  0  0  0  0
  1 27  1  0  0  0  0
  2 28  1  0  0  0  0
  3 29  1  0  0  0  0
  4 30  1  0  0  0  0
  5 31  1  0  0  0  0
  6 32  1  0  0  0  0
  7 33  1  0  0  0  0
  8 34  1  0  0  0  0
 13 35  1  0  0  0  0
 13 36  1  0  0  0  0
 14 37  1  0  0  0  0
 14 38  1  0  0  0  0
 15 39  1  0  0  0  0
 15 40  1  0  0  0  0
 16 41  1  0  0  0  0
 16 42  1  0  0  0  0
 17 43  1  0  0  0  0
 17 44  1  0  0  0  0
 17 45  1  0  0  0  0
 18 46  1  0  0  0  0
 18 47  1  0  0  0  0
 19 48  1  0  0  0  0
 19 49  1  0  0  0  0
 20 50  1  0  0  0  0
 20 51  1  0  0  0  0
 24 52  1  0  0  0  0
 25 53  1  0  0  0  0
M  END
> <Chemgauss4 Score>
-4.68572282791138

> <Number of Confs>
200

$$$$
GIA-UNK-995-3
  -OEChem-03242005443D

 32 33  0     0  0  0  0  0  0999 V2000
   10.2463   -1.6741   22.6586 C   0  0  0  0  0  0  0  0  0  0  0  0
    8.4102   -4.8652   26.1949 C   0  0  0  0  0  0  0  0  0  0  0  0
   12.3300   -0.2194   22.2294 C   0  0  0  0  0  0  0  0  0  0  0  0
   12.3350   -0.5709   23.6867 C   0  0  0  0  0  0  0  0  0  0  0  0
   10.1626   -3.1222   25.9079 C   0  0  0  0  0  0  0  0  0  0  0  0
    7.7879   -2.7014   25.1037 C   0  0  0  0  0  0  0  0  0  0  0  0
   10.5704   -3.3463   24.4529 C   0  0  0  0  0  0  0  0  0  0  0  0
    8.2741   -2.9203   23.6704 C   0  0  0  0  0  0  0  0  0  0  0  0
   11.7451   -1.5113   22.6908 C   0  0  0  0  0  0  0  0  0  0  0  0
    8.6732   -3.3881   26.1487 C   0  0  0  0  0  0  0  0  0  0  0  0
    8.0411   -5.5718   28.8190 C   0  0  0  0  0  0  0  0  0  0  0  0
    9.6988   -2.5970   23.5489 N   0  0  0  0  0  0  0  0  0  0  0  0
    9.5840   -1.0017   21.8640 O   0  0  0  0  0  0  0  0  0  0  0  0
    9.0426   -5.6777   25.5310 O   0  0  0  0  0  0  0  0  0  0  0  0
    8.6893   -4.4234   29.1509 F   0  0  0  0  0  0  0  0  0  0  0  0
    7.1090   -5.3194   27.2948 S   0  0  0  0  0  0  0  0  0  0  0  0
   11.6734    0.5792   21.9062 H   0  0  0  0  0  0  0  0  0  0  0  0
   13.2708   -0.2694   21.6949 H   0  0  0  0  0  0  0  0  0  0  0  0
   13.2794   -0.8570   24.1334 H   0  0  0  0  0  0  0  0  0  0  0  0
   11.6830   -0.0063   24.3421 H   0  0  0  0  0  0  0  0  0  0  0  0
   10.7749   -3.7611   26.5559 H   0  0  0  0  0  0  0  0  0  0  0  0
   10.3875   -2.0835   26.1817 H   0  0  0  0  0  0  0  0  0  0  0  0
    7.7723   -1.6229   25.3069 H   0  0  0  0  0  0  0  0  0  0  0  0
    6.7535   -3.0553   25.1897 H   0  0  0  0  0  0  0  0  0  0  0  0
   11.6162   -3.0533   24.3156 H   0  0  0  0  0  0  0  0  0  0  0  0
   10.4922   -4.4062   24.1839 H   0  0  0  0  0  0  0  0  0  0  0  0
    8.1526   -3.9683   23.3741 H   0  0  0  0  0  0  0  0  0  0  0  0
    7.6633   -2.3254   22.9885 H   0  0  0  0  0  0  0  0  0  0  0  0
   12.2741   -2.4194   22.4709 H   0  0  0  0  0  0  0  0  0  0  0  0
    8.4061   -3.0091   27.1428 H   0  0  0  0  0  0  0  0  0  0  0  0
    8.7912   -6.3563   28.6904 H   0  0  0  0  0  0  0  0  0  0  0  0
    7.3730   -5.8313   29.6444 H   0  0  0  0  0  0  0  0  0  0  0  0
  1  9  1  0  0  0  0
  1 12  1  0  0  0  0
  1 13  2  0  0  0  0
  2 10  1  0  0  0  0
  2 14  2  0  0  0  0
  2 16  1  0  0  0  0
  3  4  1  0  0  0  0
  3  9  1  0  0  0  0
  4  9  1  0  0  0  0
  5  7  1  0  0  0  0
  5 10  1  0  0  0  0
  6  8  1  0  0  0  0
  6 10  1  0  0  0  0
  7 12  1  0  0  0  0
  8 12  1  0  0  0  0
 11 15  1  0  0  0  0
 11 16  1  0  0  0  0
  3 17  1  0  0  0  0
  3 18  1  0  0  0  0
  4 19  1  0  0  0  0
  4 20  1  0  0  0  0
  5 21  1  0  0  0  0
  5 22  1  0  0  0  0
  6 23  1  0  0  0  0
  6 24  1  0  0  0  0
  7 25  1  0  0  0  0
  7 26  1  0  0  0  0
  8 27  1  0  0  0  0
  8 28  1  0  0  0  0
  9 29  1  0  0  0  0
 10 30  1  0  0  0  0
 11 31  1  0  0  0  0
 11 32  1  0  0  0  0
M  END
> <Chemgauss4 Score>
-4.68108415603638

> <Number of Confs>
200

$$$$
DUN-NEW-f8c-3
  -OEChem-03242005443D

 47 49  0     1  0  0  0  0  0999 V2000
    5.6283   -3.1694   22.4252 C   0  0  0  0  0  0  0  0  0  0  0  0
    5.0553   -4.0554   23.3374 C   0  0  0  0  0  0  0  0  0  0  0  0
    6.8847   -2.6201   22.6814 C   0  0  0  0  0  0  0  0  0  0  0  0
    5.7384   -4.3920   24.5060 C   0  0  0  0  0  0  0  0  0  0  0  0
    7.5678   -2.9567   23.8500 C   0  0  0  0  0  0  0  0  0  0  0  0
    6.9947   -3.8426   24.7624 C   0  0  0  0  0  0  0  0  0  0  0  0
    7.0979   -2.7161   27.7624 C   0  0  0  0  0  0  0  0  0  0  0  0
   12.4442   -0.4142   24.0346 C   0  0  0  0  0  0  0  0  0  0  0  0
    8.6150   -5.4726   27.6605 C   0  0  0  0  0  0  0  0  0  0  0  0
    9.1837   -4.0616   27.7209 C   0  0  0  0  0  0  0  0  0  0  0  0
    8.0268   -5.5649   26.2564 C   0  0  0  0  0  0  0  0  0  0  0  0
    8.9133   -0.9266   24.1760 C   0  0  0  0  0  0  0  0  0  0  0  0
   10.0326   -3.0818   23.6083 C   0  0  0  0  0  0  0  0  0  0  0  0
   10.1533   -0.5150   24.9663 C   0  0  0  0  0  0  0  0  0  0  0  0
   11.2564   -2.6319   24.4061 C   0  0  0  0  0  0  0  0  0  0  0  0
    8.1993   -3.2356   26.8913 C   0  0  1  0  0  0  0  0  0  0  0  0
   13.6285   -1.1778   23.4982 C   0  0  0  0  0  0  0  0  0  0  0  0
    8.8265   -2.3931   24.0879 N   0  0  0  0  0  0  0  0  0  0  0  0
    7.6544   -4.1895   25.9261 N   0  0  3  0  0  0  0  0  0  0  0  0
   11.3459   -1.1708   24.4359 N   0  0  0  0  0  0  0  0  0  0  0  0
    6.1468   -1.9932   27.0819 N   0  0  0  0  0  0  0  0  0  0  0  0
    7.0586   -2.9418   28.9694 O   0  0  0  0  0  0  0  0  0  0  0  0
   12.4951    0.8169   24.0927 O   0  0  0  0  0  0  0  0  0  0  0  0
   13.3660   -1.3614   21.7679 Cl  0  0  0  0  0  0  0  0  0  0  0  0
    5.0966   -2.9078   21.5151 H   0  0  0  0  0  0  0  0  0  0  0  0
    4.0775   -4.4837   23.1374 H   0  0  0  0  0  0  0  0  0  0  0  0
    7.3209   -1.9306   21.9631 H   0  0  0  0  0  0  0  0  0  0  0  0
    5.2820   -5.0840   25.2092 H   0  0  0  0  0  0  0  0  0  0  0  0
    9.3783   -6.2345   27.8432 H   0  0  0  0  0  0  0  0  0  0  0  0
    7.8235   -5.5948   28.4091 H   0  0  0  0  0  0  0  0  0  0  0  0
    9.2829   -3.7124   28.7534 H   0  0  0  0  0  0  0  0  0  0  0  0
   10.1743   -4.0437   27.2508 H   0  0  0  0  0  0  0  0  0  0  0  0
    8.7855   -5.9403   25.5538 H   0  0  0  0  0  0  0  0  0  0  0  0
    7.1580   -6.2355   26.2176 H   0  0  0  0  0  0  0  0  0  0  0  0
    8.0132   -0.5319   24.6587 H   0  0  0  0  0  0  0  0  0  0  0  0
    8.9700   -0.4992   23.1703 H   0  0  0  0  0  0  0  0  0  0  0  0
   10.1700   -2.8608   22.5447 H   0  0  0  0  0  0  0  0  0  0  0  0
    9.9261   -4.1678   23.7046 H   0  0  0  0  0  0  0  0  0  0  0  0
   10.3116    0.5599   24.8941 H   0  0  0  0  0  0  0  0  0  0  0  0
   10.0192   -0.7749   26.0122 H   0  0  0  0  0  0  0  0  0  0  0  0
   11.1940   -2.9774   25.4391 H   0  0  0  0  0  0  0  0  0  0  0  0
   12.1612   -3.0506   23.9668 H   0  0  0  0  0  0  0  0  0  0  0  0
    8.7099   -2.3785   26.4318 H   0  0  0  0  0  0  0  0  0  0  0  0
   13.6635   -2.1501   23.9753 H   0  0  0  0  0  0  0  0  0  0  0  0
   14.5280   -0.6017   23.6801 H   0  0  0  0  0  0  0  0  0  0  0  0
    6.2542   -1.8683   26.0806 H   0  0  0  0  0  0  0  0  0  0  0  0
    5.3418   -1.5794   27.5407 H   0  0  0  0  0  0  0  0  0  0  0  0
  1  2  1  0  0  0  0
  1  3  2  0  0  0  0
  2  4  2  0  0  0  0
  3  5  1  0  0  0  0
  4  6  1  0  0  0  0
  5  6  2  0  0  0  0
  5 18  1  0  0  0  0
  6 19  1  6  0  0  0
  7 16  1  6  0  0  0
  7 21  1  0  0  0  0
  7 22  2  0  0  0  0
  8 17  1  0  0  0  0
  8 20  1  0  0  0  0
  8 23  2  0  0  0  0
  9 10  1  0  0  0  0
  9 11  1  0  0  0  0
 10 16  1  0  0  0  0
 11 19  1  0  0  0  0
 12 14  1  0  0  0  0
 12 18  1  0  0  0  0
 13 15  1  0  0  0  0
 13 18  1  0  0  0  0
 14 20  1  0  0  0  0
 15 20  1  0  0  0  0
 16 19  1  0  0  0  0
 17 24  1  0  0  0  0
  1 25  1  0  0  0  0
  2 26  1  0  0  0  0
  3 27  1  0  0  0  0
  4 28  1  0  0  0  0
  9 29  1  0  0  0  0
  9 30  1  0  0  0  0
 10 31  1  0  0  0  0
 10 32  1  0  0  0  0
 11 33  1  0  0  0  0
 11 34  1  0  0  0  0
 12 35  1  0  0  0  0
 12 36  1  0  0  0  0
 13 37  1  0  0  0  0
 13 38  1  0  0  0  0
 14 39  1  0  0  0  0
 14 40  1  0  0  0  0
 15 41  1  0  0  0  0
 15 42  1  0  0  0  0
 16 43  1  0  0  0  0
 17 44  1  0  0  0  0
 17 45  1  0  0  0  0
 21 46  1  0  0  0  0
 21 47  1  0  0  0  0
M  END
> <Chemgauss4 Score>
-4.67653322219849

> <Number of Confs>
137

$$$$
DAR-DIA-842-16
  -OEChem-03242005443D

 27 28  0     0  0  0  0  0  0999 V2000
   11.7964   -5.8213   26.5798 C   0  0  0  0  0  0  0  0  0  0  0  0
   11.4786   -4.7355   25.7715 C   0  0  0  0  0  0  0  0  0  0  0  0
   10.8171   -6.7774   26.7961 C   0  0  0  0  0  0  0  0  0  0  0  0
    9.3011   -5.6493   25.4895 C   0  0  0  0  0  0  0  0  0  0  0  0
   11.7533   -0.0477   23.0534 C   0  0  0  0  0  0  0  0  0  0  0  0
   10.2092   -4.6403   25.2121 C   0  0  0  0  0  0  0  0  0  0  0  0
   12.2484   -1.1162   22.3478 C   0  0  0  0  0  0  0  0  0  0  0  0
   10.1686   -1.3990   22.7609 C   0  0  0  0  0  0  0  0  0  0  0  0
    8.9438   -3.5380   23.3336 C   0  0  0  0  0  0  0  0  0  0  0  0
   13.5602   -1.4758   21.8004 C   0  0  0  0  0  0  0  0  0  0  0  0
    8.8656   -2.1531   22.7106 C   0  0  0  0  0  0  0  0  0  0  0  0
    9.5732   -6.7191   26.2699 N   0  0  0  0  0  0  0  0  0  0  0  0
   10.4200   -0.2345   23.3149 N   0  0  0  0  0  0  0  0  0  0  0  0
    9.8619   -3.5644   24.3988 N   0  0  0  0  0  0  0  0  0  0  0  0
    8.2736   -4.4802   22.9235 O   0  0  0  0  0  0  0  0  0  0  0  0
   11.2288   -1.9983   22.1529 O   0  0  0  0  0  0  0  0  0  0  0  0
   12.7796   -5.9161   27.0263 H   0  0  0  0  0  0  0  0  0  0  0  0
   12.2270   -3.9700   25.5842 H   0  0  0  0  0  0  0  0  0  0  0  0
   11.0149   -7.6430   27.4197 H   0  0  0  0  0  0  0  0  0  0  0  0
    8.2948   -5.6308   25.0817 H   0  0  0  0  0  0  0  0  0  0  0  0
   12.2775    0.8367   23.3841 H   0  0  0  0  0  0  0  0  0  0  0  0
   14.1631   -2.0473   22.5304 H   0  0  0  0  0  0  0  0  0  0  0  0
   13.4824   -2.0941   20.8854 H   0  0  0  0  0  0  0  0  0  0  0  0
   14.1550   -0.5886   21.5086 H   0  0  0  0  0  0  0  0  0  0  0  0
    8.0872   -1.5782   23.2282 H   0  0  0  0  0  0  0  0  0  0  0  0
    8.5397   -2.2532   21.6675 H   0  0  0  0  0  0  0  0  0  0  0  0
   10.3372   -2.6763   24.6030 H   0  0  0  0  0  0  0  0  0  0  0  0
  1  2  2  0  0  0  0
  1  3  1  0  0  0  0
  2  6  1  0  0  0  0
  3 12  2  0  0  0  0
  4  6  2  0  0  0  0
  4 12  1  0  0  0  0
  5  7  2  0  0  0  0
  5 13  1  0  0  0  0
  6 14  1  0  0  0  0
  7 10  1  0  0  0  0
  7 16  1  0  0  0  0
  8 11  1  0  0  0  0
  8 13  2  0  0  0  0
  8 16  1  0  0  0  0
  9 11  1  0  0  0  0
  9 14  1  0  0  0  0
  9 15  2  0  0  0  0
  1 17  1  0  0  0  0
  2 18  1  0  0  0  0
  3 19  1  0  0  0  0
  4 20  1  0  0  0  0
  5 21  1  0  0  0  0
 10 22  1  0  0  0  0
 10 23  1  0  0  0  0
 10 24  1  0  0  0  0
 11 25  1  0  0  0  0
 11 26  1  0  0  0  0
 14 27  1  0  0  0  0
M  END
> <Chemgauss4 Score>
-4.675537109375

> <Number of Confs>
89

$$$$
JOR-UNI-2fc-5
  -OEChem-03242005443D

 47 49  0     0  0  0  0  0  0999 V2000
   10.2827   -4.2376   26.3812 C   0  0  0  0  0  0  0  0  0  0  0  0
   13.1815   -0.8096   21.9846 C   0  0  0  0  0  0  0  0  0  0  0  0
    9.8519   -3.5513   25.2458 C   0  0  0  0  0  0  0  0  0  0  0  0
   11.8643   -1.0768   22.3409 C   0  0  0  0  0  0  0  0  0  0  0  0
    9.4104   -4.4306   27.4524 C   0  0  0  0  0  0  0  0  0  0  0  0
    7.6765   -3.2508   26.2530 C   0  0  0  0  0  0  0  0  0  0  0  0
   14.0113   -0.2488   22.9421 C   0  0  0  0  0  0  0  0  0  0  0  0
   12.3320   -0.2200   24.5096 C   0  0  0  0  0  0  0  0  0  0  0  0
    8.5488   -3.0579   25.1818 C   0  0  0  0  0  0  0  0  0  0  0  0
   11.4234   -0.7793   23.6256 C   0  0  0  0  0  0  0  0  0  0  0  0
    8.1073   -3.9371   27.3884 C   0  0  0  0  0  0  0  0  0  0  0  0
    9.0620   -1.5977   23.2406 C   0  0  0  0  0  0  0  0  0  0  0  0
    4.4044   -5.4013   23.2277 C   0  0  0  0  0  0  0  0  0  0  0  0
    6.3427   -5.7130   21.8272 C   0  0  0  0  0  0  0  0  0  0  0  0
    4.8203   -3.9479   23.4794 C   0  0  0  0  0  0  0  0  0  0  0  0
    6.7575   -4.2591   22.0781 C   0  0  0  0  0  0  0  0  0  0  0  0
    4.4914   -7.2517   21.6837 C   0  0  0  0  0  0  0  0  0  0  0  0
    6.6728   -2.4109   23.6247 C   0  0  0  0  0  0  0  0  0  0  0  0
   13.6191    0.0540   24.1999 N   0  0  0  0  0  0  0  0  0  0  0  0
    4.8854   -5.8643   21.9203 N   0  0  0  0  0  0  0  0  0  0  0  0
    6.2776   -3.7976   23.3864 N   0  0  0  0  0  0  0  0  0  0  0  0
   10.0865   -1.0400   24.0181 N   0  0  0  0  0  0  0  0  0  0  0  0
    8.1024   -2.3437   24.0012 N   0  0  0  0  0  0  0  0  0  0  0  0
    8.9713   -1.4140   22.0252 O   0  0  0  0  0  0  0  0  0  0  0  0
    7.0309   -4.1751   28.7101 Cl  0  0  0  0  0  0  0  0  0  0  0  0
   11.2975   -4.6218   26.4310 H   0  0  0  0  0  0  0  0  0  0  0  0
   13.5469   -1.0333   20.9889 H   0  0  0  0  0  0  0  0  0  0  0  0
   10.5407   -3.4069   24.4171 H   0  0  0  0  0  0  0  0  0  0  0  0
   11.1905   -1.5166   21.6104 H   0  0  0  0  0  0  0  0  0  0  0  0
    9.7603   -4.9675   28.3303 H   0  0  0  0  0  0  0  0  0  0  0  0
    6.6608   -2.8650   26.1995 H   0  0  0  0  0  0  0  0  0  0  0  0
   15.0472   -0.0205   22.7136 H   0  0  0  0  0  0  0  0  0  0  0  0
   12.0472    0.0340   25.5264 H   0  0  0  0  0  0  0  0  0  0  0  0
    4.7881   -6.0399   24.0350 H   0  0  0  0  0  0  0  0  0  0  0  0
    3.3095   -5.4572   23.2607 H   0  0  0  0  0  0  0  0  0  0  0  0
    6.6815   -5.9998   20.8242 H   0  0  0  0  0  0  0  0  0  0  0  0
    6.8518   -6.3712   22.5443 H   0  0  0  0  0  0  0  0  0  0  0  0
    4.3117   -3.2889   22.7624 H   0  0  0  0  0  0  0  0  0  0  0  0
    4.4815   -3.6612   24.4824 H   0  0  0  0  0  0  0  0  0  0  0  0
    7.8523   -4.2026   22.0441 H   0  0  0  0  0  0  0  0  0  0  0  0
    6.3722   -3.6206   21.2714 H   0  0  0  0  0  0  0  0  0  0  0  0
    4.8621   -7.5761   20.7002 H   0  0  0  0  0  0  0  0  0  0  0  0
    4.9208   -7.8934   22.4672 H   0  0  0  0  0  0  0  0  0  0  0  0
    3.3944   -7.3301   21.7060 H   0  0  0  0  0  0  0  0  0  0  0  0
    6.5186   -1.8180   22.7165 H   0  0  0  0  0  0  0  0  0  0  0  0
    6.0376   -1.9450   24.3853 H   0  0  0  0  0  0  0  0  0  0  0  0
    9.8430   -0.7946   24.9719 H   0  0  0  0  0  0  0  0  0  0  0  0
  1  3  2  0  0  0  0
  1  5  1  0  0  0  0
  2  4  2  0  0  0  0
  2  7  1  0  0  0  0
  3  9  1  0  0  0  0
  4 10  1  0  0  0  0
  5 11  2  0  0  0  0
  6  9  2  0  0  0  0
  6 11  1  0  0  0  0
  7 19  2  0  0  0  0
  8 10  2  0  0  0  0
  8 19  1  0  0  0  0
  9 23  1  0  0  0  0
 10 22  1  0  0  0  0
 11 25  1  0  0  0  0
 12 22  1  0  0  0  0
 12 23  1  0  0  0  0
 12 24  2  0  0  0  0
 13 15  1  0  0  0  0
 13 20  1  0  0  0  0
 14 16  1  0  0  0  0
 14 20  1  0  0  0  0
 15 21  1  0  0  0  0
 16 21  1  0  0  0  0
 17 20  1  0  0  0  0
 18 21  1  0  0  0  0
 18 23  1  0  0  0  0
  1 26  1  0  0  0  0
  2 27  1  0  0  0  0
  3 28  1  0  0  0  0
  4 29  1  0  0  0  0
  5 30  1  0  0  0  0
  6 31  1  0  0  0  0
  7 32  1  0  0  0  0
  8 33  1  0  0  0  0
 13 34  1  0  0  0  0
 13 35  1  0  0  0  0
 14 36  1  0  0  0  0
 14 37  1  0  0  0  0
 15 38  1  0  0  0  0
 15 39  1  0  0  0  0
 16 40  1  0  0  0  0
 16 41  1  0  0  0  0
 17 42  1  0  0  0  0
 17 43  1  0  0  0  0
 17 44  1  0  0  0  0
 18 45  1  0  0  0  0
 18 46  1  0  0  0  0
 22 47  1  0  0  0  0
M  END
> <Chemgauss4 Score>
-4.66671085357666

> <Number of Confs>
200

$$$$
DAR-DIA-23a-16
  -OEChem-03242005443D

 27 28  0     0  0  0  0  0  0999 V2000
   13.0741   -0.5072   22.5707 C   0  0  0  0  0  0  0  0  0  0  0  0
   12.1462   -1.5258   22.7568 C   0  0  0  0  0  0  0  0  0  0  0  0
    8.0822   -3.6020   27.1058 C   0  0  0  0  0  0  0  0  0  0  0  0
   12.8882    0.6751   23.2688 C   0  0  0  0  0  0  0  0  0  0  0  0
    8.0065   -5.6961   25.9808 C   0  0  0  0  0  0  0  0  0  0  0  0
   10.9794   -0.1145   24.2744 C   0  0  0  0  0  0  0  0  0  0  0  0
    7.8848   -5.6637   28.2748 C   0  0  0  0  0  0  0  0  0  0  0  0
    8.1000   -4.3154   25.9125 C   0  0  0  0  0  0  0  0  0  0  0  0
   11.0757   -1.3337   23.6232 C   0  0  0  0  0  0  0  0  0  0  0  0
    7.9729   -4.2815   28.3140 C   0  0  0  0  0  0  0  0  0  0  0  0
    8.9979   -2.3064   24.6631 C   0  0  0  0  0  0  0  0  0  0  0  0
    8.2157   -3.6178   24.6038 C   0  0  0  0  0  0  0  0  0  0  0  0
   11.8611    0.8985   24.1189 N   0  0  0  0  0  0  0  0  0  0  0  0
    7.8990   -6.3911   27.1354 N   0  0  0  0  0  0  0  0  0  0  0  0
   10.1151   -2.3515   23.8330 N   0  0  0  0  0  0  0  0  0  0  0  0
    8.6365   -1.3726   25.3721 O   0  0  0  0  0  0  0  0  0  0  0  0
    7.9455   -3.4358   29.8053 Cl  0  0  0  0  0  0  0  0  0  0  0  0
   13.9163   -0.6349   21.9002 H   0  0  0  0  0  0  0  0  0  0  0  0
   12.2665   -2.4644   22.2223 H   0  0  0  0  0  0  0  0  0  0  0  0
    8.1541   -2.5169   27.0893 H   0  0  0  0  0  0  0  0  0  0  0  0
   13.5838    1.5004   23.1576 H   0  0  0  0  0  0  0  0  0  0  0  0
    8.0157   -6.3059   25.0825 H   0  0  0  0  0  0  0  0  0  0  0  0
   10.1663    0.0950   24.9631 H   0  0  0  0  0  0  0  0  0  0  0  0
    7.7973   -6.2519   29.1835 H   0  0  0  0  0  0  0  0  0  0  0  0
    8.7055   -4.2697   23.8597 H   0  0  0  0  0  0  0  0  0  0  0  0
    7.2145   -3.3972   24.1945 H   0  0  0  0  0  0  0  0  0  0  0  0
   10.2573   -3.2174   23.3170 H   0  0  0  0  0  0  0  0  0  0  0  0
  1  2  2  0  0  0  0
  1  4  1  0  0  0  0
  2  9  1  0  0  0  0
  3  8  2  0  0  0  0
  3 10  1  0  0  0  0
  4 13  2  0  0  0  0
  5  8  1  0  0  0  0
  5 14  2  0  0  0  0
  6  9  2  0  0  0  0
  6 13  1  0  0  0  0
  7 10  2  0  0  0  0
  7 14  1  0  0  0  0
  8 12  1  0  0  0  0
  9 15  1  0  0  0  0
 10 17  1  0  0  0  0
 11 12  1  0  0  0  0
 11 15  1  0  0  0  0
 11 16  2  0  0  0  0
  1 18  1  0  0  0  0
  2 19  1  0  0  0  0
  3 20  1  0  0  0  0
  4 21  1  0  0  0  0
  5 22  1  0  0  0  0
  6 23  1  0  0  0  0
  7 24  1  0  0  0  0
 12 25  1  0  0  0  0
 12 26  1  0  0  0  0
 15 27  1  0  0  0  0
M  END
> <Chemgauss4 Score>
-4.65907859802246

> <Number of Confs>
40

$$$$
GIA-UNK-995-13
  -OEChem-03242005443D

 38 39  0     0  0  0  0  0  0999 V2000
   10.4358   -1.2591   25.1193 C   0  0  0  0  0  0  0  0  0  0  0  0
    7.8199   -5.5311   26.1024 C   0  0  0  0  0  0  0  0  0  0  0  0
   11.7770    0.3605   22.6491 C   0  0  0  0  0  0  0  0  0  0  0  0
   11.9215   -0.9767   21.9449 C   0  0  0  0  0  0  0  0  0  0  0  0
   12.2436    0.0546   24.0656 C   0  0  0  0  0  0  0  0  0  0  0  0
   11.4626   -1.9966   22.9824 C   0  0  0  0  0  0  0  0  0  0  0  0
    7.4494   -3.1739   25.3971 C   0  0  0  0  0  0  0  0  0  0  0  0
    9.2586   -4.5767   24.2916 C   0  0  0  0  0  0  0  0  0  0  0  0
    8.5458   -2.4529   26.1792 C   0  0  0  0  0  0  0  0  0  0  0  0
   10.3012   -3.7983   25.0952 C   0  0  0  0  0  0  0  0  0  0  0  0
   11.7365   -1.3572   24.3433 C   0  0  0  0  0  0  0  0  0  0  0  0
    7.8734   -4.5753   24.9463 C   0  0  0  0  0  0  0  0  0  0  0  0
    6.6530   -5.1044   28.5474 C   0  0  0  0  0  0  0  0  0  0  0  0
    9.8046   -2.4615   25.4352 N   0  0  0  0  0  0  0  0  0  0  0  0
   10.0010   -0.1467   25.4287 O   0  0  0  0  0  0  0  0  0  0  0  0
    8.7878   -6.1824   26.4765 O   0  0  0  0  0  0  0  0  0  0  0  0
    6.7678   -3.7501   28.5869 F   0  0  0  0  0  0  0  0  0  0  0  0
    6.2358   -5.6258   26.8712 S   0  0  0  0  0  0  0  0  0  0  0  0
   12.3717    1.1472   22.1763 H   0  0  0  0  0  0  0  0  0  0  0  0
   10.7275    0.6771   22.6537 H   0  0  0  0  0  0  0  0  0  0  0  0
   11.3345   -1.0296   21.0235 H   0  0  0  0  0  0  0  0  0  0  0  0
   12.9726   -1.1540   21.6873 H   0  0  0  0  0  0  0  0  0  0  0  0
   13.3401    0.0551   24.0949 H   0  0  0  0  0  0  0  0  0  0  0  0
   11.8897    0.8050   24.7795 H   0  0  0  0  0  0  0  0  0  0  0  0
   10.3993   -2.2258   22.8401 H   0  0  0  0  0  0  0  0  0  0  0  0
   12.0130   -2.9371   22.8674 H   0  0  0  0  0  0  0  0  0  0  0  0
    6.5436   -3.2277   26.0131 H   0  0  0  0  0  0  0  0  0  0  0  0
    7.1964   -2.5766   24.5117 H   0  0  0  0  0  0  0  0  0  0  0  0
    9.1784   -4.1262   23.2939 H   0  0  0  0  0  0  0  0  0  0  0  0
    9.6104   -5.6055   24.1478 H   0  0  0  0  0  0  0  0  0  0  0  0
    8.2277   -1.4282   26.3966 H   0  0  0  0  0  0  0  0  0  0  0  0
    8.7275   -2.9464   27.1410 H   0  0  0  0  0  0  0  0  0  0  0  0
   10.5262   -4.3096   26.0381 H   0  0  0  0  0  0  0  0  0  0  0  0
   11.2332   -3.7570   24.5286 H   0  0  0  0  0  0  0  0  0  0  0  0
   12.4253   -1.9246   24.9417 H   0  0  0  0  0  0  0  0  0  0  0  0
    7.1389   -4.9473   24.2211 H   0  0  0  0  0  0  0  0  0  0  0  0
    7.6088   -5.5323   28.8608 H   0  0  0  0  0  0  0  0  0  0  0  0
    5.8693   -5.3961   29.2513 H   0  0  0  0  0  0  0  0  0  0  0  0
  1 11  1  0  0  0  0
  1 14  1  0  0  0  0
  1 15  2  0  0  0  0
  2 12  1  0  0  0  0
  2 16  2  0  0  0  0
  2 18  1  0  0  0  0
  3  4  1  0  0  0  0
  3  5  1  0  0  0  0
  4  6  1  0  0  0  0
  5 11  1  0  0  0  0
  6 11  1  0  0  0  0
  7  9  1  0  0  0  0
  7 12  1  0  0  0  0
  8 10  1  0  0  0  0
  8 12  1  0  0  0  0
  9 14  1  0  0  0  0
 10 14  1  0  0  0  0
 13 17  1  0  0  0  0
 13 18  1  0  0  0  0
  3 19  1  0  0  0  0
  3 20  1  0  0  0  0
  4 21  1  0  0  0  0
  4 22  1  0  0  0  0
  5 23  1  0  0  0  0
  5 24  1  0  0  0  0
  6 25  1  0  0  0  0
  6 26  1  0  0  0  0
  7 27  1  0  0  0  0
  7 28  1  0  0  0  0
  8 29  1  0  0  0  0
  8 30  1  0  0  0  0
  9 31  1  0  0  0  0
  9 32  1  0  0  0  0
 10 33  1  0  0  0  0
 10 34  1  0  0  0  0
 11 35  1  0  0  0  0
 12 36  1  0  0  0  0
 13 37  1  0  0  0  0
 13 38  1  0  0  0  0
M  END
> <Chemgauss4 Score>
-4.65887403488159

> <Number of Confs>
200

$$$$
TRY-UNI-1fd-7
  -OEChem-03242005443D

 35 37  0     0  0  0  0  0  0999 V2000
   10.5061   -3.3743   26.9089 C   0  0  0  0  0  0  0  0  0  0  0  0
    9.7174   -4.2125   26.1229 C   0  0  0  0  0  0  0  0  0  0  0  0
    8.8298   -1.1549   23.7279 C   0  0  0  0  0  0  0  0  0  0  0  0
   10.3757   -2.8168   22.8999 C   0  0  0  0  0  0  0  0  0  0  0  0
    9.9012   -0.3750   24.1631 C   0  0  0  0  0  0  0  0  0  0  0  0
   11.4472   -2.0368   23.3351 C   0  0  0  0  0  0  0  0  0  0  0  0
   10.0710   -3.0539   28.1878 C   0  0  0  0  0  0  0  0  0  0  0  0
    6.5446   -5.6181   27.2621 C   0  0  0  0  0  0  0  0  0  0  0  0
    8.5170   -4.6896   26.6735 C   0  0  0  0  0  0  0  0  0  0  0  0
    9.0670   -2.3758   23.0963 C   0  0  0  0  0  0  0  0  0  0  0  0
    7.4603   -5.5312   26.2357 C   0  0  0  0  0  0  0  0  0  0  0  0
   11.2099   -0.8159   23.9667 C   0  0  0  0  0  0  0  0  0  0  0  0
    8.2025   -4.2885   27.9687 C   0  0  0  0  0  0  0  0  0  0  0  0
    7.9852   -5.4197   23.7680 C   0  0  0  0  0  0  0  0  0  0  0  0
    7.3519   -6.1965   24.9220 C   0  0  0  0  0  0  0  0  0  0  0  0
    7.9141   -3.2149   22.6263 C   0  0  0  0  0  0  0  0  0  0  0  0
    8.9265   -3.4831   28.7687 N   0  0  0  0  0  0  0  0  0  0  0  0
    7.0046   -4.8604   28.3078 N   0  0  0  0  0  0  0  0  0  0  0  0
    7.4678   -4.1382   23.6430 N   0  0  0  0  0  0  0  0  0  0  0  0
    8.8569   -5.9007   23.0485 O   0  0  0  0  0  0  0  0  0  0  0  0
   12.5314    0.1464   24.5035 Cl  0  0  0  0  0  0  0  0  0  0  0  0
   11.4420   -2.9803   26.5274 H   0  0  0  0  0  0  0  0  0  0  0  0
   10.0289   -4.4830   25.1192 H   0  0  0  0  0  0  0  0  0  0  0  0
    7.8130   -0.8046   23.8848 H   0  0  0  0  0  0  0  0  0  0  0  0
   10.5691   -3.7667   22.4085 H   0  0  0  0  0  0  0  0  0  0  0  0
    9.7010    0.5742   24.6533 H   0  0  0  0  0  0  0  0  0  0  0  0
   12.4615   -2.3932   23.1753 H   0  0  0  0  0  0  0  0  0  0  0  0
   10.6736   -2.4024   28.8153 H   0  0  0  0  0  0  0  0  0  0  0  0
    5.6073   -6.1510   27.3436 H   0  0  0  0  0  0  0  0  0  0  0  0
    7.8224   -7.1990   24.9449 H   0  0  0  0  0  0  0  0  0  0  0  0
    6.2934   -6.3800   24.6528 H   0  0  0  0  0  0  0  0  0  0  0  0
    7.0641   -2.5821   22.3487 H   0  0  0  0  0  0  0  0  0  0  0  0
    8.1880   -3.7984   21.7411 H   0  0  0  0  0  0  0  0  0  0  0  0
    6.5323   -4.7404   29.1931 H   0  0  0  0  0  0  0  0  0  0  0  0
    6.7466   -3.8378   24.2923 H   0  0  0  0  0  0  0  0  0  0  0  0
  1  2  2  0  0  0  0
  1  7  1  0  0  0  0
  2  9  1  0  0  0  0
  3  5  2  0  0  0  0
  3 10  1  0  0  0  0
  4  6  1  0  0  0  0
  4 10  2  0  0  0  0
  5 12  1  0  0  0  0
  6 12  2  0  0  0  0
  7 17  2  0  0  0  0
  8 11  2  0  0  0  0
  8 18  1  0  0  0  0
  9 11  1  0  0  0  0
  9 13  2  0  0  0  0
 10 16  1  0  0  0  0
 11 15  1  0  0  0  0
 12 21  1  0  0  0  0
 13 17  1  0  0  0  0
 13 18  1  0  0  0  0
 14 15  1  0  0  0  0
 14 19  1  0  0  0  0
 14 20  2  0  0  0  0
 16 19  1  0  0  0  0
  1 22  1  0  0  0  0
  2 23  1  0  0  0  0
  3 24  1  0  0  0  0
  4 25  1  0  0  0  0
  5 26  1  0  0  0  0
  6 27  1  0  0  0  0
  7 28  1  0  0  0  0
  8 29  1  0  0  0  0
 15 30  1  0  0  0  0
 15 31  1  0  0  0  0
 16 32  1  0  0  0  0
 16 33  1  0  0  0  0
 18 34  1  0  0  0  0
 19 35  1  0  0  0  0
M  END
> <Chemgauss4 Score>
-4.65786695480347

> <Number of Confs>
200

$$$$
HAN-NEW-5f5-1
  -OEChem-03242005443D

 29 30  0     0  0  0  0  0  0999 V2000
   12.6887   -0.0867   23.0076 C   0  0  0  0  0  0  0  0  0  0  0  0
   12.0917   -1.0255   22.1662 C   0  0  0  0  0  0  0  0  0  0  0  0
   12.3067   -0.0079   24.3469 C   0  0  0  0  0  0  0  0  0  0  0  0
   11.1127   -1.8853   22.6640 C   0  0  0  0  0  0  0  0  0  0  0  0
   11.3277   -0.8677   24.8447 C   0  0  0  0  0  0  0  0  0  0  0  0
    7.6524   -3.5440   28.2352 C   0  0  0  0  0  0  0  0  0  0  0  0
    6.0717   -4.8879   29.1641 C   0  0  0  0  0  0  0  0  0  0  0  0
   10.7307   -1.8065   24.0033 C   0  0  0  0  0  0  0  0  0  0  0  0
    7.4956   -4.1561   27.0084 C   0  0  0  0  0  0  0  0  0  0  0  0
    6.5594   -5.1688   26.9617 C   0  0  0  0  0  0  0  0  0  0  0  0
    9.2295   -2.7457   25.8152 C   0  0  0  0  0  0  0  0  0  0  0  0
    6.3014   -5.9052   25.6876 C   0  0  0  0  0  0  0  0  0  0  0  0
    6.9545   -3.8859   29.3381 N   0  0  0  0  0  0  0  0  0  0  0  0
    5.8270   -5.5622   28.0244 N   0  0  0  0  0  0  0  0  0  0  0  0
    9.7515   -2.6667   24.5010 N   0  0  0  0  0  0  0  0  0  0  0  0
    8.2559   -3.7551   25.8845 N   0  0  0  0  0  0  0  0  0  0  0  0
    9.5810   -2.0336   26.7503 O   0  0  0  0  0  0  0  0  0  0  0  0
   13.4516    0.5825   22.6206 H   0  0  0  0  0  0  0  0  0  0  0  0
   12.3895   -1.0877   21.1237 H   0  0  0  0  0  0  0  0  0  0  0  0
   12.7725    0.7226   25.0021 H   0  0  0  0  0  0  0  0  0  0  0  0
   10.6545   -2.6130   21.9989 H   0  0  0  0  0  0  0  0  0  0  0  0
   11.0381   -0.7972   25.8902 H   0  0  0  0  0  0  0  0  0  0  0  0
    8.3634   -2.7363   28.3798 H   0  0  0  0  0  0  0  0  0  0  0  0
    5.4955   -5.1814   30.0332 H   0  0  0  0  0  0  0  0  0  0  0  0
    6.9629   -6.7756   25.6119 H   0  0  0  0  0  0  0  0  0  0  0  0
    5.2616   -6.2499   25.6333 H   0  0  0  0  0  0  0  0  0  0  0  0
    6.4702   -5.2602   24.8166 H   0  0  0  0  0  0  0  0  0  0  0  0
    9.3574   -3.3300   23.8255 H   0  0  0  0  0  0  0  0  0  0  0  0
    8.0699   -4.2651   25.0246 H   0  0  0  0  0  0  0  0  0  0  0  0
  1  2  1  0  0  0  0
  1  3  2  0  0  0  0
  2  4  2  0  0  0  0
  3  5  1  0  0  0  0
  4  8  1  0  0  0  0
  5  8  2  0  0  0  0
  6  9  1  0  0  0  0
  6 13  2  0  0  0  0
  7 13  1  0  0  0  0
  7 14  2  0  0  0  0
  8 15  1  0  0  0  0
  9 10  2  0  0  0  0
  9 16  1  0  0  0  0
 10 12  1  0  0  0  0
 10 14  1  0  0  0  0
 11 15  1  0  0  0  0
 11 16  1  0  0  0  0
 11 17  2  0  0  0  0
  1 18  1  0  0  0  0
  2 19  1  0  0  0  0
  3 20  1  0  0  0  0
  4 21  1  0  0  0  0
  5 22  1  0  0  0  0
  6 23  1  0  0  0  0
  7 24  1  0  0  0  0
 12 25  1  0  0  0  0
 12 26  1  0  0  0  0
 12 27  1  0  0  0  0
 15 28  1  0  0  0  0
 16 29  1  0  0  0  0
M  END
> <Chemgauss4 Score>
-4.65530109405518

> <Number of Confs>
1

$$$$
PAT-UNK-b2d-1
  -OEChem-03242005443D

 35 36  0     0  0  0  0  0  0999 V2000
    5.6678   -5.9192   26.7832 C   0  0  0  0  0  0  0  0  0  0  0  0
    8.7743   -5.0434   28.6376 C   0  0  0  0  0  0  0  0  0  0  0  0
    7.4769   -5.4789   28.3682 C   0  0  0  0  0  0  0  0  0  0  0  0
    9.5921   -4.6022   27.5973 C   0  0  0  0  0  0  0  0  0  0  0  0
    7.8151   -5.0321   26.0180 C   0  0  0  0  0  0  0  0  0  0  0  0
    6.9973   -5.4733   27.0583 C   0  0  0  0  0  0  0  0  0  0  0  0
    9.1125   -4.5966   26.2875 C   0  0  0  0  0  0  0  0  0  0  0  0
   12.2062    0.1253   23.6053 C   0  0  0  0  0  0  0  0  0  0  0  0
   11.4101   -2.2373   23.1234 C   0  0  0  0  0  0  0  0  0  0  0  0
   10.9208   -1.1498   25.2860 C   0  0  0  0  0  0  0  0  0  0  0  0
    9.9886   -2.8055   23.1219 C   0  0  0  0  0  0  0  0  0  0  0  0
    9.5099   -1.7376   25.2343 C   0  0  0  0  0  0  0  0  0  0  0  0
   12.9221    0.1085   22.2781 C   0  0  0  0  0  0  0  0  0  0  0  0
    9.9930   -4.1218   25.1680 C   0  0  0  0  0  0  0  0  0  0  0  0
    4.5881   -6.2813   26.5598 N   0  0  0  0  0  0  0  0  0  0  0  0
   11.4999   -1.0279   23.9483 N   0  0  0  0  0  0  0  0  0  0  0  0
    9.4123   -2.9827   24.4613 N   0  0  0  0  0  0  0  0  0  0  0  0
   12.2703    1.1338   24.3129 O   0  0  0  0  0  0  0  0  0  0  0  0
    9.1484   -5.0486   29.6572 H   0  0  0  0  0  0  0  0  0  0  0  0
    6.8511   -5.8195   29.1897 H   0  0  0  0  0  0  0  0  0  0  0  0
   10.6013   -4.2642   27.8174 H   0  0  0  0  0  0  0  0  0  0  0  0
    7.4469   -5.0265   24.9941 H   0  0  0  0  0  0  0  0  0  0  0  0
   12.1133   -2.9659   23.5471 H   0  0  0  0  0  0  0  0  0  0  0  0
   11.7226   -2.0498   22.0936 H   0  0  0  0  0  0  0  0  0  0  0  0
   10.8970   -0.1762   25.7878 H   0  0  0  0  0  0  0  0  0  0  0  0
   11.5872   -1.7990   25.8686 H   0  0  0  0  0  0  0  0  0  0  0  0
    9.3368   -2.1546   22.4986 H   0  0  0  0  0  0  0  0  0  0  0  0
   10.0144   -3.7845   22.6000 H   0  0  0  0  0  0  0  0  0  0  0  0
    9.1813   -1.9251   26.2778 H   0  0  0  0  0  0  0  0  0  0  0  0
    8.8083   -0.9721   24.8358 H   0  0  0  0  0  0  0  0  0  0  0  0
   12.2534    0.4815   21.5095 H   0  0  0  0  0  0  0  0  0  0  0  0
   13.2205   -0.9094   22.0481 H   0  0  0  0  0  0  0  0  0  0  0  0
   13.8029    0.7393   22.3418 H   0  0  0  0  0  0  0  0  0  0  0  0
   10.9733   -3.8173   25.5503 H   0  0  0  0  0  0  0  0  0  0  0  0
   10.1624   -4.9187   24.4363 H   0  0  0  0  0  0  0  0  0  0  0  0
  1  6  1  0  0  0  0
  1 15  3  0  0  0  0
  2  3  1  0  0  0  0
  2  4  2  0  0  0  0
  3  6  2  0  0  0  0
  4  7  1  0  0  0  0
  5  6  1  0  0  0  0
  5  7  2  0  0  0  0
  7 14  1  0  0  0  0
  8 13  1  0  0  0  0
  8 16  1  0  0  0  0
  8 18  2  0  0  0  0
  9 11  1  0  0  0  0
  9 16  1  0  0  0  0
 10 12  1  0  0  0  0
 10 16  1  0  0  0  0
 11 17  1  0  0  0  0
 12 17  1  0  0  0  0
 14 17  1  0  0  0  0
  2 19  1  0  0  0  0
  3 20  1  0  0  0  0
  4 21  1  0  0  0  0
  5 22  1  0  0  0  0
  9 23  1  0  0  0  0
  9 24  1  0  0  0  0
 10 25  1  0  0  0  0
 10 26  1  0  0  0  0
 11 27  1  0  0  0  0
 11 28  1  0  0  0  0
 12 29  1  0  0  0  0
 12 30  1  0  0  0  0
 13 31  1  0  0  0  0
 13 32  1  0  0  0  0
 13 33  1  0  0  0  0
 14 34  1  0  0  0  0
 14 35  1  0  0  0  0
M  END
> <Chemgauss4 Score>
-4.65229272842407

> <Number of Confs>
36

$$$$
SAL-INS-1c7-11
  -OEChem-03242005443D

 41 43  0     1  0  0  0  0  0999 V2000
    7.1687   -0.4543   22.8562 C   0  0  0  0  0  0  0  0  0  0  0  0
    7.5750   -1.3707   21.8863 C   0  0  0  0  0  0  0  0  0  0  0  0
    7.3576   -0.7401   24.2084 C   0  0  0  0  0  0  0  0  0  0  0  0
    8.1702   -2.5729   22.2686 C   0  0  0  0  0  0  0  0  0  0  0  0
    7.9528   -1.9423   24.5906 C   0  0  0  0  0  0  0  0  0  0  0  0
   10.9260   -1.0041   25.0598 C   0  0  0  0  0  0  0  0  0  0  0  0
   11.1079    0.1720   24.2764 C   0  0  0  0  0  0  0  0  0  0  0  0
    8.3591   -2.8587   23.6207 C   0  0  0  0  0  0  0  0  0  0  0  0
   11.2774   -2.1441   24.3711 C   0  0  0  0  0  0  0  0  0  0  0  0
   11.5918   -0.1140   23.0186 C   0  0  0  0  0  0  0  0  0  0  0  0
    6.1341   -5.4560   26.0251 C   0  0  0  0  0  0  0  0  0  0  0  0
    8.5096   -5.4268   26.6388 C   0  0  0  0  0  0  0  0  0  0  0  0
    9.9094   -5.1533   26.0914 C   0  0  0  0  0  0  0  0  0  0  0  0
    7.9264   -5.2627   24.2341 C   0  0  0  0  0  0  0  0  0  0  0  0
    9.0090   -4.1720   24.0391 C   0  0  2  0  0  0  0  0  0  0  0  0
   11.2323   -3.5700   24.8392 C   0  0  0  0  0  0  0  0  0  0  0  0
    5.8870   -5.6504   27.4993 C   0  0  0  0  0  0  0  0  0  0  0  0
    7.4644   -5.3492   25.6212 N   0  0  0  0  0  0  0  0  0  0  0  0
    9.8808   -3.9785   25.2202 N   0  0  2  0  0  0  0  0  0  0  0  0
    5.1765   -5.4037   25.2488 O   0  0  0  0  0  0  0  0  0  0  0  0
   11.8243   -1.7946   22.7865 S   0  0  0  0  0  0  0  0  0  0  0  0
    4.1411   -5.7143   27.7132 Cl  0  0  0  0  0  0  0  0  0  0  0  0
   11.9624    1.1892   21.6875 Br  0  0  0  0  0  0  0  0  0  0  0  0
    6.7065    0.4823   22.5583 H   0  0  0  0  0  0  0  0  0  0  0  0
    7.4290   -1.1479   20.8334 H   0  0  0  0  0  0  0  0  0  0  0  0
    7.0424   -0.0263   24.9637 H   0  0  0  0  0  0  0  0  0  0  0  0
    8.4835   -3.2811   21.5059 H   0  0  0  0  0  0  0  0  0  0  0  0
    8.0958   -2.1564   25.6465 H   0  0  0  0  0  0  0  0  0  0  0  0
   10.5556   -1.0091   26.0771 H   0  0  0  0  0  0  0  0  0  0  0  0
   10.8917    1.1734   24.6273 H   0  0  0  0  0  0  0  0  0  0  0  0
    8.4952   -6.4151   27.1342 H   0  0  0  0  0  0  0  0  0  0  0  0
    8.2522   -4.6908   27.4246 H   0  0  0  0  0  0  0  0  0  0  0  0
   10.5716   -4.9743   26.9372 H   0  0  0  0  0  0  0  0  0  0  0  0
   10.2650   -6.0341   25.5567 H   0  0  0  0  0  0  0  0  0  0  0  0
    7.0368   -5.0433   23.6230 H   0  0  0  0  0  0  0  0  0  0  0  0
    8.3107   -6.2261   23.8789 H   0  0  0  0  0  0  0  0  0  0  0  0
    9.6567   -4.4771   23.1711 H   0  0  0  0  0  0  0  0  0  0  0  0
   11.5794   -4.2464   24.0505 H   0  0  0  0  0  0  0  0  0  0  0  0
   11.8843   -3.7198   25.7062 H   0  0  0  0  0  0  0  0  0  0  0  0
    6.2974   -4.8045   28.0389 H   0  0  0  0  0  0  0  0  0  0  0  0
    6.3348   -6.5873   27.8099 H   0  0  0  0  0  0  0  0  0  0  0  0
  1  2  1  0  0  0  0
  1  3  2  0  0  0  0
  2  4  2  0  0  0  0
  3  5  1  0  0  0  0
  4  8  1  0  0  0  0
  5  8  2  0  0  0  0
  6  7  1  0  0  0  0
  6  9  2  0  0  0  0
  7 10  2  0  0  0  0
  8 15  1  6  0  0  0
  9 16  1  0  0  0  0
  9 21  1  0  0  0  0
 10 21  1  0  0  0  0
 10 23  1  0  0  0  0
 11 17  1  0  0  0  0
 11 18  1  0  0  0  0
 11 20  2  0  0  0  0
 12 13  1  0  0  0  0
 12 18  1  0  0  0  0
 13 19  1  0  0  0  0
 14 15  1  0  0  0  0
 14 18  1  0  0  0  0
 15 19  1  0  0  0  0
 16 19  1  1  0  0  0
 17 22  1  0  0  0  0
  1 24  1  0  0  0  0
  2 25  1  0  0  0  0
  3 26  1  0  0  0  0
  4 27  1  0  0  0  0
  5 28  1  0  0  0  0
  6 29  1  0  0  0  0
  7 30  1  0  0  0  0
 12 31  1  0  0  0  0
 12 32  1  0  0  0  0
 13 33  1  0  0  0  0
 13 34  1  0  0  0  0
 14 35  1  0  0  0  0
 14 36  1  0  0  0  0
 15 37  1  0  0  0  0
 16 38  1  0  0  0  0
 16 39  1  0  0  0  0
 17 40  1  0  0  0  0
 17 41  1  0  0  0  0
M  END
> <Chemgauss4 Score>
-4.64848136901855

> <Number of Confs>
90

$$$$
ADA-UNI-f8e-12
  -OEChem-03242005443D

 40 42  0     1  0  0  0  0  0999 V2000
   12.7646   -2.4000   22.3368 C   0  0  0  0  0  0  0  0  0  0  0  0
    8.2550   -4.5402   28.9209 C   0  0  0  0  0  0  0  0  0  0  0  0
   11.4059   -2.6359   22.5461 C   0  0  0  0  0  0  0  0  0  0  0  0
    8.5313   -3.5861   27.9479 C   0  0  0  0  0  0  0  0  0  0  0  0
   13.3610   -1.2507   22.8556 C   0  0  0  0  0  0  0  0  0  0  0  0
   11.2398   -0.5731   23.7929 C   0  0  0  0  0  0  0  0  0  0  0  0
    8.0009   -5.8369   28.5041 C   0  0  0  0  0  0  0  0  0  0  0  0
    8.2781   -5.2758   26.2935 C   0  0  0  0  0  0  0  0  0  0  0  0
   10.6435   -1.7225   23.2741 C   0  0  0  0  0  0  0  0  0  0  0  0
    8.5450   -3.9528   26.6068 C   0  0  0  0  0  0  0  0  0  0  0  0
   12.5986   -0.3373   23.5836 C   0  0  0  0  0  0  0  0  0  0  0  0
    8.8701   -3.2213   24.2227 C   0  0  0  0  0  0  0  0  0  0  0  0
    8.2975   -0.7692   23.7601 C   0  0  0  0  0  0  0  0  0  0  0  0
    8.1732   -1.5015   22.4600 C   0  0  2  0  0  0  0  0  0  0  0  0
    9.1931   -1.9748   23.4973 C   0  0  1  0  0  0  0  0  0  0  0  0
    6.4725    0.0357   20.4179 C   0  0  0  0  0  0  0  0  0  0  0  0
    8.5728   -0.8344   21.1873 C   0  0  0  0  0  0  0  0  0  0  0  0
    8.0053   -6.2307   27.2108 N   0  0  0  0  0  0  0  0  0  0  0  0
    8.8227   -3.0043   25.5939 N   0  0  0  0  0  0  0  0  0  0  0  0
    7.7957    0.3519   20.9583 N   0  0  0  0  0  0  0  0  0  0  0  0
    8.6793   -4.2700   23.6155 O   0  0  0  0  0  0  0  0  0  0  0  0
   13.3350    1.0806   24.2235 Cl  0  0  0  0  0  0  0  0  0  0  0  0
   13.3582   -3.1112   21.7699 H   0  0  0  0  0  0  0  0  0  0  0  0
    8.2390   -4.2769   29.9724 H   0  0  0  0  0  0  0  0  0  0  0  0
   10.9507   -3.5344   22.1377 H   0  0  0  0  0  0  0  0  0  0  0  0
    8.7345   -2.5608   28.2455 H   0  0  0  0  0  0  0  0  0  0  0  0
   14.4208   -1.0801   22.6846 H   0  0  0  0  0  0  0  0  0  0  0  0
   10.6415    0.1365   24.3601 H   0  0  0  0  0  0  0  0  0  0  0  0
    7.7791   -6.6178   29.2240 H   0  0  0  0  0  0  0  0  0  0  0  0
    8.2745   -5.6227   25.2644 H   0  0  0  0  0  0  0  0  0  0  0  0
    8.7435    0.2192   23.7569 H   0  0  0  0  0  0  0  0  0  0  0  0
    7.4874   -0.8736   24.4736 H   0  0  0  0  0  0  0  0  0  0  0  0
    7.2872   -2.1113   22.3151 H   0  0  0  0  0  0  0  0  0  0  0  0
    5.9391   -0.6259   21.1164 H   0  0  0  0  0  0  0  0  0  0  0  0
    5.8997    0.9651   20.2835 H   0  0  0  0  0  0  0  0  0  0  0  0
    6.5842   -0.4697   19.4473 H   0  0  0  0  0  0  0  0  0  0  0  0
    9.6368   -0.5618   21.2443 H   0  0  0  0  0  0  0  0  0  0  0  0
    8.4170   -1.5330   20.3523 H   0  0  0  0  0  0  0  0  0  0  0  0
    9.0063   -2.0582   25.9213 H   0  0  0  0  0  0  0  0  0  0  0  0
    8.2760    0.9687   20.2932 H   0  0  0  0  0  0  0  0  0  0  0  0
  1  3  2  0  0  0  0
  1  5  1  0  0  0  0
  2  4  2  0  0  0  0
  2  7  1  0  0  0  0
  3  9  1  0  0  0  0
  4 10  1  0  0  0  0
  5 11  2  0  0  0  0
  6  9  2  0  0  0  0
  6 11  1  0  0  0  0
  7 18  2  0  0  0  0
  8 10  2  0  0  0  0
  8 18  1  0  0  0  0
  9 15  1  0  0  0  0
 10 19  1  0  0  0  0
 11 22  1  0  0  0  0
 12 15  1  1  0  0  0
 12 19  1  0  0  0  0
 12 21  2  0  0  0  0
 13 14  1  0  0  0  0
 13 15  1  0  0  0  0
 14 15  1  0  0  0  0
 14 17  1  1  0  0  0
 16 20  1  0  0  0  0
 17 20  1  0  0  0  0
  1 23  1  0  0  0  0
  2 24  1  0  0  0  0
  3 25  1  0  0  0  0
  4 26  1  0  0  0  0
  5 27  1  0  0  0  0
  6 28  1  0  0  0  0
  7 29  1  0  0  0  0
  8 30  1  0  0  0  0
 13 31  1  0  0  0  0
 13 32  1  0  0  0  0
 14 33  1  0  0  0  0
 16 34  1  0  0  0  0
 16 35  1  0  0  0  0
 16 36  1  0  0  0  0
 17 37  1  0  0  0  0
 17 38  1  0  0  0  0
 19 39  1  0  0  0  0
 20 40  1  0  0  0  0
M  END
> <Chemgauss4 Score>
-4.64248466491699

> <Number of Confs>
104

$$$$
DAN-LON-a5f-6
  -OEChem-03242005443D

 44 46  0     1  0  0  0  0  0999 V2000
    6.7197   -3.7868   22.0661 C   0  0  0  0  0  0  0  0  0  0  0  0
    7.0587   -4.9407   22.7726 C   0  0  0  0  0  0  0  0  0  0  0  0
    7.4121   -2.5983   22.2980 C   0  0  0  0  0  0  0  0  0  0  0  0
   14.3437   -1.2808   22.1400 C   0  0  0  0  0  0  0  0  0  0  0  0
    8.0900   -4.9061   23.7112 C   0  0  0  0  0  0  0  0  0  0  0  0
    8.4434   -2.5637   23.2366 C   0  0  0  0  0  0  0  0  0  0  0  0
   13.7634   -0.9910   23.3748 C   0  0  0  0  0  0  0  0  0  0  0  0
   13.5666   -1.2594   20.9818 C   0  0  0  0  0  0  0  0  0  0  0  0
   11.6286   -0.6584   22.2934 C   0  0  0  0  0  0  0  0  0  0  0  0
    8.7824   -3.7176   23.9432 C   0  0  0  0  0  0  0  0  0  0  0  0
   12.4058   -0.6798   23.4515 C   0  0  0  0  0  0  0  0  0  0  0  0
   12.2090   -0.9483   21.0586 C   0  0  0  0  0  0  0  0  0  0  0  0
    8.9576   -4.7036   27.0162 C   0  0  0  0  0  0  0  0  0  0  0  0
    9.2405   -2.1925   26.8811 C   0  0  0  0  0  0  0  0  0  0  0  0
   10.4251   -1.2910   26.5438 C   0  0  0  0  0  0  0  0  0  0  0  0
   11.0144   -2.6495   24.6461 C   0  0  0  0  0  0  0  0  0  0  0  0
    9.9101   -3.6789   24.9696 C   0  0  1  0  0  0  0  0  0  0  0  0
   11.7816   -0.3691   24.7811 C   0  0  0  0  0  0  0  0  0  0  0  0
    8.2941   -4.5001   28.3556 C   0  0  0  0  0  0  0  0  0  0  0  0
    9.3959   -3.5522   26.3491 N   0  0  0  0  0  0  0  0  0  0  0  0
   10.6957   -1.2930   25.1050 N   0  0  2  0  0  0  0  0  0  0  0  0
    9.0845   -5.8492   26.5758 O   0  0  0  0  0  0  0  0  0  0  0  0
   11.2504   -0.9232   19.6295 Cl  0  0  0  0  0  0  0  0  0  0  0  0
    7.1095   -5.7897   28.5314 Cl  0  0  0  0  0  0  0  0  0  0  0  0
    5.9176   -3.8143   21.3343 H   0  0  0  0  0  0  0  0  0  0  0  0
    6.5205   -5.8665   22.5914 H   0  0  0  0  0  0  0  0  0  0  0  0
    7.1492   -1.7000   21.7473 H   0  0  0  0  0  0  0  0  0  0  0  0
   15.4009   -1.5232   22.0807 H   0  0  0  0  0  0  0  0  0  0  0  0
    8.3471   -5.8100   24.2572 H   0  0  0  0  0  0  0  0  0  0  0  0
    8.9772   -1.6332   23.4108 H   0  0  0  0  0  0  0  0  0  0  0  0
   14.3765   -1.0101   24.2720 H   0  0  0  0  0  0  0  0  0  0  0  0
   14.0323   -1.4877   20.0263 H   0  0  0  0  0  0  0  0  0  0  0  0
   10.5707   -0.4147   22.3584 H   0  0  0  0  0  0  0  0  0  0  0  0
    9.1068   -2.2050   27.9652 H   0  0  0  0  0  0  0  0  0  0  0  0
    8.3178   -1.7870   26.4479 H   0  0  0  0  0  0  0  0  0  0  0  0
   10.1812   -0.2739   26.8742 H   0  0  0  0  0  0  0  0  0  0  0  0
   11.3074   -1.6132   27.1129 H   0  0  0  0  0  0  0  0  0  0  0  0
   11.9462   -2.9896   25.1199 H   0  0  0  0  0  0  0  0  0  0  0  0
   11.1962   -2.6399   23.5632 H   0  0  0  0  0  0  0  0  0  0  0  0
   10.3905   -4.7039   24.8976 H   0  0  0  0  0  0  0  0  0  0  0  0
   12.5270   -0.4308   25.5815 H   0  0  0  0  0  0  0  0  0  0  0  0
   11.3724    0.6466   24.7954 H   0  0  0  0  0  0  0  0  0  0  0  0
    7.7986   -3.5361   28.3589 H   0  0  0  0  0  0  0  0  0  0  0  0
    9.0447   -4.5748   29.1338 H   0  0  0  0  0  0  0  0  0  0  0  0
  1  2  1  0  0  0  0
  1  3  2  0  0  0  0
  2  5  2  0  0  0  0
  3  6  1  0  0  0  0
  4  7  2  0  0  0  0
  4  8  1  0  0  0  0
  5 10  1  0  0  0  0
  6 10  2  0  0  0  0
  7 11  1  0  0  0  0
  8 12  2  0  0  0  0
  9 11  2  0  0  0  0
  9 12  1  0  0  0  0
 10 17  1  6  0  0  0
 11 18  1  0  0  0  0
 12 23  1  0  0  0  0
 13 19  1  0  0  0  0
 13 20  1  0  0  0  0
 13 22  2  0  0  0  0
 14 15  1  0  0  0  0
 14 20  1  0  0  0  0
 15 21  1  0  0  0  0
 16 17  1  0  0  0  0
 16 21  1  0  0  0  0
 17 20  1  0  0  0  0
 18 21  1  1  0  0  0
 19 24  1  0  0  0  0
  1 25  1  0  0  0  0
  2 26  1  0  0  0  0
  3 27  1  0  0  0  0
  4 28  1  0  0  0  0
  5 29  1  0  0  0  0
  6 30  1  0  0  0  0
  7 31  1  0  0  0  0
  8 32  1  0  0  0  0
  9 33  1  0  0  0  0
 14 34  1  0  0  0  0
 14 35  1  0  0  0  0
 15 36  1  0  0  0  0
 15 37  1  0  0  0  0
 16 38  1  0  0  0  0
 16 39  1  0  0  0  0
 17 40  1  0  0  0  0
 18 41  1  0  0  0  0
 18 42  1  0  0  0  0
 19 43  1  0  0  0  0
 19 44  1  0  0  0  0
M  END
> <Chemgauss4 Score>
-4.64026832580566

> <Number of Confs>
114

$$$$
ELE-IMP-dfb-1
  -OEChem-03242005443D

 43 44  0     0  0  0  0  0  0999 V2000
    6.1189   -3.3297   25.4889 C   0  0  0  0  0  0  0  0  0  0  0  0
    6.6701   -2.0056   23.5294 C   0  0  0  0  0  0  0  0  0  0  0  0
    8.9997   -5.5683   25.2655 C   0  0  0  0  0  0  0  0  0  0  0  0
    7.2717   -4.1111   25.2747 C   0  0  0  0  0  0  0  0  0  0  0  0
    7.8191   -2.7670   23.2969 C   0  0  0  0  0  0  0  0  0  0  0  0
    7.8560   -5.2210   25.9468 C   0  0  0  0  0  0  0  0  0  0  0  0
    8.0935   -3.8124   24.1859 C   0  0  0  0  0  0  0  0  0  0  0  0
    5.8318   -2.2808   24.6079 C   0  0  0  0  0  0  0  0  0  0  0  0
    8.9666   -3.2039   28.2759 C   0  0  0  0  0  0  0  0  0  0  0  0
    8.7046   -1.7963   28.6982 C   0  0  0  0  0  0  0  0  0  0  0  0
   12.8918   -0.3993   22.8062 C   0  0  0  0  0  0  0  0  0  0  0  0
    8.6943   -2.4444   22.1322 C   0  0  0  0  0  0  0  0  0  0  0  0
    7.3370   -5.8876   27.1583 C   0  0  0  0  0  0  0  0  0  0  0  0
    9.5747   -1.2083   22.3516 C   0  0  0  0  0  0  0  0  0  0  0  0
    8.0975   -5.5272   28.4474 C   0  0  0  0  0  0  0  0  0  0  0  0
    9.1347   -4.7128   24.2051 N   0  0  0  0  0  0  0  0  0  0  0  0
    8.0353   -4.1199   28.7381 N   0  0  0  0  0  0  0  0  0  0  0  0
   10.4734   -1.3674   23.4633 N   0  0  0  0  0  0  0  0  0  0  0  0
    9.9423   -3.4536   27.5777 O   0  0  0  0  0  0  0  0  0  0  0  0
   12.0036   -0.3084   25.2665 O   0  0  0  0  0  0  0  0  0  0  0  0
   10.9505    1.1858   23.5302 O   0  0  0  0  0  0  0  0  0  0  0  0
    4.7374   -1.5329   24.8050 F   0  0  0  0  0  0  0  0  0  0  0  0
   11.5357   -0.0850   23.9126 S   0  0  0  0  0  0  0  0  0  0  0  0
    5.4554   -3.5312   26.3250 H   0  0  0  0  0  0  0  0  0  0  0  0
    6.4189   -1.1834   22.8629 H   0  0  0  0  0  0  0  0  0  0  0  0
    9.7307   -6.3459   25.4389 H   0  0  0  0  0  0  0  0  0  0  0  0
    9.1911   -1.5468   29.6548 H   0  0  0  0  0  0  0  0  0  0  0  0
    9.0916   -1.0612   27.9743 H   0  0  0  0  0  0  0  0  0  0  0  0
    7.6431   -1.5355   28.8362 H   0  0  0  0  0  0  0  0  0  0  0  0
   13.6609    0.3546   22.9812 H   0  0  0  0  0  0  0  0  0  0  0  0
   13.2807   -1.3975   23.0131 H   0  0  0  0  0  0  0  0  0  0  0  0
   12.5218   -0.3375   21.7818 H   0  0  0  0  0  0  0  0  0  0  0  0
    8.0675   -2.2746   21.2409 H   0  0  0  0  0  0  0  0  0  0  0  0
    9.3330   -3.3070   21.8764 H   0  0  0  0  0  0  0  0  0  0  0  0
    7.3807   -6.9878   27.0350 H   0  0  0  0  0  0  0  0  0  0  0  0
    6.2607   -5.6681   27.3094 H   0  0  0  0  0  0  0  0  0  0  0  0
   10.1942   -1.0177   21.4696 H   0  0  0  0  0  0  0  0  0  0  0  0
    8.9683   -0.3167   22.5421 H   0  0  0  0  0  0  0  0  0  0  0  0
    7.6728   -6.0471   29.3120 H   0  0  0  0  0  0  0  0  0  0  0  0
    9.1545   -5.8019   28.3692 H   0  0  0  0  0  0  0  0  0  0  0  0
    9.8902   -4.7384   23.5343 H   0  0  0  0  0  0  0  0  0  0  0  0
    7.2668   -3.7789   29.3136 H   0  0  0  0  0  0  0  0  0  0  0  0
   10.8690   -2.3241   23.5925 H   0  0  0  0  0  0  0  0  0  0  0  0
  1  4  1  0  0  0  0
  1  8  2  0  0  0  0
  2  5  2  0  0  0  0
  2  8  1  0  0  0  0
  3  6  2  0  0  0  0
  3 16  1  0  0  0  0
  4  6  1  0  0  0  0
  4  7  2  0  0  0  0
  5  7  1  0  0  0  0
  5 12  1  0  0  0  0
  6 13  1  0  0  0  0
  7 16  1  0  0  0  0
  8 22  1  0  0  0  0
  9 10  1  0  0  0  0
  9 17  1  0  0  0  0
  9 19  2  0  0  0  0
 11 23  1  0  0  0  0
 12 14  1  0  0  0  0
 13 15  1  0  0  0  0
 14 18  1  0  0  0  0
 15 17  1  0  0  0  0
 18 23  1  0  0  0  0
 20 23  2  0  0  0  0
 21 23  2  0  0  0  0
  1 24  1  0  0  0  0
  2 25  1  0  0  0  0
  3 26  1  0  0  0  0
 10 27  1  0  0  0  0
 10 28  1  0  0  0  0
 10 29  1  0  0  0  0
 11 30  1  0  0  0  0
 11 31  1  0  0  0  0
 11 32  1  0  0  0  0
 12 33  1  0  0  0  0
 12 34  1  0  0  0  0
 13 35  1  0  0  0  0
 13 36  1  0  0  0  0
 14 37  1  0  0  0  0
 14 38  1  0  0  0  0
 15 39  1  0  0  0  0
 15 40  1  0  0  0  0
 16 41  1  0  0  0  0
 17 42  1  0  0  0  0
 18 43  1  0  0  0  0
M  END
> <Chemgauss4 Score>
-4.63860845565796

> <Number of Confs>
200

$$$$
SAM-UNK-903-2
  -OEChem-03242005443D

 43 44  0     0  0  0  0  0  0999 V2000
    6.1189   -3.3297   25.4889 C   0  0  0  0  0  0  0  0  0  0  0  0
    6.6701   -2.0056   23.5294 C   0  0  0  0  0  0  0  0  0  0  0  0
    8.9997   -5.5683   25.2655 C   0  0  0  0  0  0  0  0  0  0  0  0
    7.2717   -4.1111   25.2747 C   0  0  0  0  0  0  0  0  0  0  0  0
    7.8191   -2.7670   23.2969 C   0  0  0  0  0  0  0  0  0  0  0  0
    7.8560   -5.2210   25.9468 C   0  0  0  0  0  0  0  0  0  0  0  0
    8.0935   -3.8124   24.1859 C   0  0  0  0  0  0  0  0  0  0  0  0
    5.8318   -2.2808   24.6079 C   0  0  0  0  0  0  0  0  0  0  0  0
    8.9666   -3.2039   28.2759 C   0  0  0  0  0  0  0  0  0  0  0  0
    8.7046   -1.7963   28.6982 C   0  0  0  0  0  0  0  0  0  0  0  0
   12.8918   -0.3993   22.8062 C   0  0  0  0  0  0  0  0  0  0  0  0
    8.6943   -2.4444   22.1322 C   0  0  0  0  0  0  0  0  0  0  0  0
    7.3370   -5.8876   27.1583 C   0  0  0  0  0  0  0  0  0  0  0  0
    9.5747   -1.2083   22.3516 C   0  0  0  0  0  0  0  0  0  0  0  0
    8.0975   -5.5272   28.4474 C   0  0  0  0  0  0  0  0  0  0  0  0
    9.1347   -4.7128   24.2051 N   0  0  0  0  0  0  0  0  0  0  0  0
    8.0353   -4.1199   28.7381 N   0  0  0  0  0  0  0  0  0  0  0  0
   10.4734   -1.3674   23.4633 N   0  0  0  0  0  0  0  0  0  0  0  0
    9.9423   -3.4536   27.5777 O   0  0  0  0  0  0  0  0  0  0  0  0
   12.0036   -0.3084   25.2665 O   0  0  0  0  0  0  0  0  0  0  0  0
   10.9505    1.1858   23.5302 O   0  0  0  0  0  0  0  0  0  0  0  0
    4.7374   -1.5329   24.8050 F   0  0  0  0  0  0  0  0  0  0  0  0
   11.5357   -0.0850   23.9126 S   0  0  0  0  0  0  0  0  0  0  0  0
    5.4554   -3.5312   26.3250 H   0  0  0  0  0  0  0  0  0  0  0  0
    6.4189   -1.1834   22.8629 H   0  0  0  0  0  0  0  0  0  0  0  0
    9.7307   -6.3459   25.4389 H   0  0  0  0  0  0  0  0  0  0  0  0
    9.1911   -1.5468   29.6548 H   0  0  0  0  0  0  0  0  0  0  0  0
    9.0916   -1.0612   27.9743 H   0  0  0  0  0  0  0  0  0  0  0  0
    7.6431   -1.5355   28.8362 H   0  0  0  0  0  0  0  0  0  0  0  0
   13.6609    0.3546   22.9812 H   0  0  0  0  0  0  0  0  0  0  0  0
   13.2807   -1.3975   23.0131 H   0  0  0  0  0  0  0  0  0  0  0  0
   12.5218   -0.3375   21.7818 H   0  0  0  0  0  0  0  0  0  0  0  0
    8.0675   -2.2746   21.2409 H   0  0  0  0  0  0  0  0  0  0  0  0
    9.3330   -3.3070   21.8764 H   0  0  0  0  0  0  0  0  0  0  0  0
    7.3807   -6.9878   27.0350 H   0  0  0  0  0  0  0  0  0  0  0  0
    6.2607   -5.6681   27.3094 H   0  0  0  0  0  0  0  0  0  0  0  0
   10.1942   -1.0177   21.4696 H   0  0  0  0  0  0  0  0  0  0  0  0
    8.9683   -0.3167   22.5421 H   0  0  0  0  0  0  0  0  0  0  0  0
    7.6728   -6.0471   29.3120 H   0  0  0  0  0  0  0  0  0  0  0  0
    9.1545   -5.8019   28.3692 H   0  0  0  0  0  0  0  0  0  0  0  0
    9.8902   -4.7384   23.5343 H   0  0  0  0  0  0  0  0  0  0  0  0
    7.2668   -3.7789   29.3136 H   0  0  0  0  0  0  0  0  0  0  0  0
   10.8690   -2.3241   23.5925 H   0  0  0  0  0  0  0  0  0  0  0  0
  1  4  1  0  0  0  0
  1  8  2  0  0  0  0
  2  5  2  0  0  0  0
  2  8  1  0  0  0  0
  3  6  2  0  0  0  0
  3 16  1  0  0  0  0
  4  6  1  0  0  0  0
  4  7  2  0  0  0  0
  5  7  1  0  0  0  0
  5 12  1  0  0  0  0
  6 13  1  0  0  0  0
  7 16  1  0  0  0  0
  8 22  1  0  0  0  0
  9 10  1  0  0  0  0
  9 17  1  0  0  0  0
  9 19  2  0  0  0  0
 11 23  1  0  0  0  0
 12 14  1  0  0  0  0
 13 15  1  0  0  0  0
 14 18  1  0  0  0  0
 15 17  1  0  0  0  0
 18 23  1  0  0  0  0
 20 23  2  0  0  0  0
 21 23  2  0  0  0  0
  1 24  1  0  0  0  0
  2 25  1  0  0  0  0
  3 26  1  0  0  0  0
 10 27  1  0  0  0  0
 10 28  1  0  0  0  0
 10 29  1  0  0  0  0
 11 30  1  0  0  0  0
 11 31  1  0  0  0  0
 11 32  1  0  0  0  0
 12 33  1  0  0  0  0
 12 34  1  0  0  0  0
 13 35  1  0  0  0  0
 13 36  1  0  0  0  0
 14 37  1  0  0  0  0
 14 38  1  0  0  0  0
 15 39  1  0  0  0  0
 15 40  1  0  0  0  0
 16 41  1  0  0  0  0
 17 42  1  0  0  0  0
 18 43  1  0  0  0  0
M  END
> <Chemgauss4 Score>
-4.63860845565796

> <Number of Confs>
200

$$$$
AGN-NEW-63f-1
  -OEChem-03242005443D

 48 50  0     1  0  0  0  0  0999 V2000
   13.8169   -1.3959   22.2052 C   0  0  0  0  0  0  0  0  0  0  0  0
    8.5141   -4.2531   26.1907 C   0  0  0  0  0  0  0  0  0  0  0  0
    6.9450   -5.9700   26.8440 C   0  0  0  0  0  0  0  0  0  0  0  0
    6.8589   -5.0392   24.6161 C   0  0  0  0  0  0  0  0  0  0  0  0
   14.0270   -0.2768   22.9948 C   0  0  0  0  0  0  0  0  0  0  0  0
   11.8439   -0.2613   23.7101 C   0  0  0  0  0  0  0  0  0  0  0  0
   12.5425   -1.9517   22.1900 C   0  0  0  0  0  0  0  0  0  0  0  0
    8.0197   -5.1356   27.1511 C   0  0  0  0  0  0  0  0  0  0  0  0
    7.9336   -4.2048   24.9233 C   0  0  0  0  0  0  0  0  0  0  0  0
   11.5314   -1.3795   22.9539 C   0  0  0  0  0  0  0  0  0  0  0  0
    6.3645   -5.9218   25.5765 C   0  0  0  0  0  0  0  0  0  0  0  0
    9.8171   -2.9118   23.9212 C   0  0  0  0  0  0  0  0  0  0  0  0
    6.4135    0.3930   18.2520 C   0  0  0  0  0  0  0  0  0  0  0  0
    6.0368    0.2071   19.5207 C   0  0  0  0  0  0  0  0  0  0  0  0
    7.0549    0.0783   20.5971 C   0  0  0  0  0  0  0  0  0  0  0  0
    7.5199   -2.8835   22.8611 C   0  0  0  0  0  0  0  0  0  0  0  0
    9.2894   -1.4965   21.8916 C   0  0  0  0  0  0  0  0  0  0  0  0
    7.8442   -1.5011   22.3390 C   0  0  1  0  0  0  0  0  0  0  0  0
   12.2878   -3.1581   21.3471 C   0  0  0  0  0  0  0  0  0  0  0  0
    8.6399   -5.1866   28.5065 C   0  0  0  0  0  0  0  0  0  0  0  0
   13.0699    0.3069   23.7503 N   0  0  0  0  0  0  0  0  0  0  0  0
    8.4461   -3.2881   23.9269 N   0  0  0  0  0  0  0  0  0  0  0  0
   10.1888   -1.9203   22.9726 N   0  0  0  0  0  0  0  0  0  0  0  0
    6.9658   -1.1398   21.2527 N   0  0  0  0  0  0  0  0  0  0  0  0
   10.6473   -3.4534   24.6605 O   0  0  0  0  0  0  0  0  0  0  0  0
    7.8626    0.9660   20.8515 O   0  0  0  0  0  0  0  0  0  0  0  0
    5.0371   -6.9498   25.1980 Cl  0  0  0  0  0  0  0  0  0  0  0  0
   14.6273   -1.8179   21.6206 H   0  0  0  0  0  0  0  0  0  0  0  0
    9.3523   -3.6032   26.4327 H   0  0  0  0  0  0  0  0  0  0  0  0
    6.5635   -6.6565   27.5965 H   0  0  0  0  0  0  0  0  0  0  0  0
    6.4080   -4.9997   23.6266 H   0  0  0  0  0  0  0  0  0  0  0  0
   15.0032    0.1946   23.0413 H   0  0  0  0  0  0  0  0  0  0  0  0
   11.0976    0.2300   24.3274 H   0  0  0  0  0  0  0  0  0  0  0  0
    5.6649    0.4850   17.4720 H   0  0  0  0  0  0  0  0  0  0  0  0
    7.4544    0.4591   17.9551 H   0  0  0  0  0  0  0  0  0  0  0  0
    4.9842    0.1471   19.7753 H   0  0  0  0  0  0  0  0  0  0  0  0
    6.4972   -2.9079   23.2580 H   0  0  0  0  0  0  0  0  0  0  0  0
    7.5981   -3.6363   22.0661 H   0  0  0  0  0  0  0  0  0  0  0  0
    9.4485   -2.1881   21.0543 H   0  0  0  0  0  0  0  0  0  0  0  0
    9.5820   -0.4902   21.5665 H   0  0  0  0  0  0  0  0  0  0  0  0
    7.6892   -0.7511   23.1236 H   0  0  0  0  0  0  0  0  0  0  0  0
   12.4778   -4.0710   21.9233 H   0  0  0  0  0  0  0  0  0  0  0  0
   11.2510   -3.1799   20.9894 H   0  0  0  0  0  0  0  0  0  0  0  0
   12.9321   -3.1644   20.4592 H   0  0  0  0  0  0  0  0  0  0  0  0
    8.1440   -4.4774   29.1803 H   0  0  0  0  0  0  0  0  0  0  0  0
    8.5639   -6.1915   28.9418 H   0  0  0  0  0  0  0  0  0  0  0  0
    9.7085   -4.9384   28.4652 H   0  0  0  0  0  0  0  0  0  0  0  0
    6.2401   -1.8031   20.9909 H   0  0  0  0  0  0  0  0  0  0  0  0
  1  5  2  0  0  0  0
  1  7  1  0  0  0  0
  2  8  2  0  0  0  0
  2  9  1  0  0  0  0
  3  8  1  0  0  0  0
  3 11  2  0  0  0  0
  4  9  2  0  0  0  0
  4 11  1  0  0  0  0
  5 21  1  0  0  0  0
  6 10  1  0  0  0  0
  6 21  2  0  0  0  0
  7 10  2  0  0  0  0
  7 19  1  0  0  0  0
  8 20  1  0  0  0  0
  9 22  1  0  0  0  0
 10 23  1  0  0  0  0
 11 27  1  0  0  0  0
 12 22  1  0  0  0  0
 12 23  1  0  0  0  0
 12 25  2  0  0  0  0
 13 14  2  0  0  0  0
 14 15  1  0  0  0  0
 15 24  1  0  0  0  0
 15 26  2  0  0  0  0
 16 18  1  0  0  0  0
 16 22  1  0  0  0  0
 17 18  1  0  0  0  0
 17 23  1  0  0  0  0
 18 24  1  6  0  0  0
  1 28  1  0  0  0  0
  2 29  1  0  0  0  0
  3 30  1  0  0  0  0
  4 31  1  0  0  0  0
  5 32  1  0  0  0  0
  6 33  1  0  0  0  0
 13 34  1  0  0  0  0
 13 35  1  0  0  0  0
 14 36  1  0  0  0  0
 16 37  1  0  0  0  0
 16 38  1  0  0  0  0
 17 39  1  0  0  0  0
 17 40  1  0  0  0  0
 18 41  1  0  0  0  0
 19 42  1  0  0  0  0
 19 43  1  0  0  0  0
 19 44  1  0  0  0  0
 20 45  1  0  0  0  0
 20 46  1  0  0  0  0
 20 47  1  0  0  0  0
 24 48  1  0  0  0  0
M  END
> <Chemgauss4 Score>
-4.63797521591187

> <Number of Confs>
180

$$$$
CHR-SOS-363-7
  -OEChem-03242005443D

 41 43  0     0  0  0  0  0  0999 V2000
    9.7431   -2.8414   27.1808 C   0  0  0  0  0  0  0  0  0  0  0  0
   12.3692   -0.5559   22.8528 C   0  0  0  0  0  0  0  0  0  0  0  0
   12.1154   -1.9018   23.1167 C   0  0  0  0  0  0  0  0  0  0  0  0
   11.4397    0.4152   23.2253 C   0  0  0  0  0  0  0  0  0  0  0  0
   10.9321   -2.2767   23.7531 C   0  0  0  0  0  0  0  0  0  0  0  0
   10.2565    0.0404   23.8617 C   0  0  0  0  0  0  0  0  0  0  0  0
    5.4304    0.4316   18.5626 C   0  0  0  0  0  0  0  0  0  0  0  0
    5.2935    1.5740   19.3345 C   0  0  0  0  0  0  0  0  0  0  0  0
    8.8452   -4.9528   26.3534 C   0  0  0  0  0  0  0  0  0  0  0  0
    6.0659    0.5041   21.2151 C   0  0  0  0  0  0  0  0  0  0  0  0
    7.8155   -5.1454   24.3086 C   0  0  0  0  0  0  0  0  0  0  0  0
    9.0770   -3.5992   26.1695 C   0  0  0  0  0  0  0  0  0  0  0  0
    5.9128   -0.7171   19.1800 C   0  0  0  0  0  0  0  0  0  0  0  0
    6.2388   -0.6886   20.5314 C   0  0  0  0  0  0  0  0  0  0  0  0
    7.9989   -3.8007   24.0291 C   0  0  0  0  0  0  0  0  0  0  0  0
   10.0026   -1.3055   24.1256 C   0  0  0  0  0  0  0  0  0  0  0  0
    8.6427   -3.0198   24.9825 C   0  0  0  0  0  0  0  0  0  0  0  0
    7.1012   -1.9462   22.5547 C   0  0  0  0  0  0  0  0  0  0  0  0
    6.0698   -1.9632   18.3717 C   0  0  0  0  0  0  0  0  0  0  0  0
   10.2842   -2.2258   28.0024 N   0  0  0  0  0  0  0  0  0  0  0  0
    5.5998    1.6401   20.6495 N   0  0  0  0  0  0  0  0  0  0  0  0
    8.2234   -5.7436   25.4503 N   0  0  0  0  0  0  0  0  0  0  0  0
    6.7335   -1.8306   21.2046 N   0  0  0  0  0  0  0  0  0  0  0  0
    7.5462   -3.2639   22.8241 N   0  0  0  0  0  0  0  0  0  0  0  0
    7.0477   -1.0440   23.3843 O   0  0  0  0  0  0  0  0  0  0  0  0
    8.8472   -1.6709   24.7451 O   0  0  0  0  0  0  0  0  0  0  0  0
   13.2907   -0.2637   22.3578 H   0  0  0  0  0  0  0  0  0  0  0  0
   12.8389   -2.6582   22.8266 H   0  0  0  0  0  0  0  0  0  0  0  0
   11.6382    1.4631   23.0196 H   0  0  0  0  0  0  0  0  0  0  0  0
   10.7397   -3.3270   23.9545 H   0  0  0  0  0  0  0  0  0  0  0  0
    9.5352    0.8011   24.1480 H   0  0  0  0  0  0  0  0  0  0  0  0
    5.1668    0.4425   17.5105 H   0  0  0  0  0  0  0  0  0  0  0  0
    4.9213    2.4962   18.9004 H   0  0  0  0  0  0  0  0  0  0  0  0
    9.1593   -5.4659   27.2579 H   0  0  0  0  0  0  0  0  0  0  0  0
    6.3031    0.5894   22.2714 H   0  0  0  0  0  0  0  0  0  0  0  0
    7.3202   -5.8065   23.6037 H   0  0  0  0  0  0  0  0  0  0  0  0
    7.0713   -2.0043   17.9280 H   0  0  0  0  0  0  0  0  0  0  0  0
    5.9243   -2.8575   18.9900 H   0  0  0  0  0  0  0  0  0  0  0  0
    5.3277   -2.0084   17.5651 H   0  0  0  0  0  0  0  0  0  0  0  0
    6.8351   -2.6710   20.6412 H   0  0  0  0  0  0  0  0  0  0  0  0
    7.5289   -3.8972   22.0174 H   0  0  0  0  0  0  0  0  0  0  0  0
  1 12  1  0  0  0  0
  1 20  3  0  0  0  0
  2  3  1  0  0  0  0
  2  4  2  0  0  0  0
  3  5  2  0  0  0  0
  4  6  1  0  0  0  0
  5 16  1  0  0  0  0
  6 16  2  0  0  0  0
  7  8  2  0  0  0  0
  7 13  1  0  0  0  0
  8 21  1  0  0  0  0
  9 12  2  0  0  0  0
  9 22  1  0  0  0  0
 10 14  1  0  0  0  0
 10 21  2  0  0  0  0
 11 15  1  0  0  0  0
 11 22  2  0  0  0  0
 12 17  1  0  0  0  0
 13 14  2  0  0  0  0
 13 19  1  0  0  0  0
 14 23  1  0  0  0  0
 15 17  2  0  0  0  0
 15 24  1  0  0  0  0
 16 26  1  0  0  0  0
 17 26  1  0  0  0  0
 18 23  1  0  0  0  0
 18 24  1  0  0  0  0
 18 25  2  0  0  0  0
  2 27  1  0  0  0  0
  3 28  1  0  0  0  0
  4 29  1  0  0  0  0
  5 30  1  0  0  0  0
  6 31  1  0  0  0  0
  7 32  1  0  0  0  0
  8 33  1  0  0  0  0
  9 34  1  0  0  0  0
 10 35  1  0  0  0  0
 11 36  1  0  0  0  0
 19 37  1  0  0  0  0
 19 38  1  0  0  0  0
 19 39  1  0  0  0  0
 23 40  1  0  0  0  0
 24 41  1  0  0  0  0
M  END
> <Chemgauss4 Score>
-4.6288948059082

> <Number of Confs>
26

$$$$
DAR-DIA-fc9-1
  -OEChem-03242005443D

 31 33  0     0  0  0  0  0  0999 V2000
   13.1659   -0.1260   22.5998 C   0  0  0  0  0  0  0  0  0  0  0  0
   12.4895    0.3830   23.7083 C   0  0  0  0  0  0  0  0  0  0  0  0
   12.7881   -1.3534   22.0553 C   0  0  0  0  0  0  0  0  0  0  0  0
    6.6174   -5.2839   28.1862 C   0  0  0  0  0  0  0  0  0  0  0  0
   11.4352   -0.3353   24.2725 C   0  0  0  0  0  0  0  0  0  0  0  0
   11.7339   -2.0718   22.6194 C   0  0  0  0  0  0  0  0  0  0  0  0
    7.0319   -4.6756   27.0067 C   0  0  0  0  0  0  0  0  0  0  0  0
    7.4707   -5.2332   29.2767 C   0  0  0  0  0  0  0  0  0  0  0  0
    9.0488   -4.0487   28.1000 C   0  0  0  0  0  0  0  0  0  0  0  0
   11.0574   -1.5627   23.7280 C   0  0  0  0  0  0  0  0  0  0  0  0
    8.2695   -4.0441   26.9543 C   0  0  0  0  0  0  0  0  0  0  0  0
    9.9593   -2.7556   25.6338 C   0  0  0  0  0  0  0  0  0  0  0  0
    8.7992   -2.6277   23.5717 C   0  0  0  0  0  0  0  0  0  0  0  0
    7.9466   -3.3962   24.5600 C   0  0  0  0  0  0  0  0  0  0  0  0
    8.6800   -4.6291   29.2640 N   0  0  0  0  0  0  0  0  0  0  0  0
   10.0028   -2.2810   24.2923 N   0  0  0  0  0  0  0  0  0  0  0  0
    8.7105   -3.4282   25.7900 N   0  0  0  0  0  0  0  0  0  0  0  0
   10.8251   -2.6152   26.4899 O   0  0  0  0  0  0  0  0  0  0  0  0
   13.9864    0.4334   22.1598 H   0  0  0  0  0  0  0  0  0  0  0  0
   12.7828    1.3390   24.1320 H   0  0  0  0  0  0  0  0  0  0  0  0
   13.3144   -1.7491   21.1915 H   0  0  0  0  0  0  0  0  0  0  0  0
    5.6567   -5.7820   28.2499 H   0  0  0  0  0  0  0  0  0  0  0  0
   10.9153    0.0715   25.1362 H   0  0  0  0  0  0  0  0  0  0  0  0
   11.4482   -3.0273   22.1865 H   0  0  0  0  0  0  0  0  0  0  0  0
    6.3833   -4.6996   26.1350 H   0  0  0  0  0  0  0  0  0  0  0  0
    7.1941   -5.6933   30.2196 H   0  0  0  0  0  0  0  0  0  0  0  0
   10.0243   -3.5719   28.1211 H   0  0  0  0  0  0  0  0  0  0  0  0
    9.0637   -3.2389   22.7026 H   0  0  0  0  0  0  0  0  0  0  0  0
    8.3044   -1.7095   23.2383 H   0  0  0  0  0  0  0  0  0  0  0  0
    6.9902   -2.8964   24.7454 H   0  0  0  0  0  0  0  0  0  0  0  0
    7.7658   -4.4232   24.2260 H   0  0  0  0  0  0  0  0  0  0  0  0
  1  2  1  0  0  0  0
  1  3  2  0  0  0  0
  2  5  2  0  0  0  0
  3  6  1  0  0  0  0
  4  7  2  0  0  0  0
  4  8  1  0  0  0  0
  5 10  1  0  0  0  0
  6 10  2  0  0  0  0
  7 11  1  0  0  0  0
  8 15  2  0  0  0  0
  9 11  2  0  0  0  0
  9 15  1  0  0  0  0
 10 16  1  0  0  0  0
 11 17  1  0  0  0  0
 12 16  1  0  0  0  0
 12 17  1  0  0  0  0
 12 18  2  0  0  0  0
 13 14  1  0  0  0  0
 13 16  1  0  0  0  0
 14 17  1  0  0  0  0
  1 19  1  0  0  0  0
  2 20  1  0  0  0  0
  3 21  1  0  0  0  0
  4 22  1  0  0  0  0
  5 23  1  0  0  0  0
  6 24  1  0  0  0  0
  7 25  1  0  0  0  0
  8 26  1  0  0  0  0
  9 27  1  0  0  0  0
 13 28  1  0  0  0  0
 13 29  1  0  0  0  0
 14 30  1  0  0  0  0
 14 31  1  0  0  0  0
M  END
> <Chemgauss4 Score>
-4.62701082229614

> <Number of Confs>
10

$$$$
DAR-DIA-43a-14
  -OEChem-03242005443D

 54 56  0     1  0  0  0  0  0999 V2000
    9.1472   -5.5955   26.6083 C   0  0  0  0  0  0  0  0  0  0  0  0
    8.2217    2.7686   23.0213 C   0  0  0  0  0  0  0  0  0  0  0  0
    9.9962   -4.9496   25.7097 C   0  0  0  0  0  0  0  0  0  0  0  0
    9.2584    2.0584   23.6165 C   0  0  0  0  0  0  0  0  0  0  0  0
    8.1298   -4.8824   27.2423 C   0  0  0  0  0  0  0  0  0  0  0  0
    8.8104   -2.8772   26.0791 C   0  0  0  0  0  0  0  0  0  0  0  0
    8.2206    2.8793   21.6402 C   0  0  0  0  0  0  0  0  0  0  0  0
   10.1564    1.6565   21.4512 C   0  0  0  0  0  0  0  0  0  0  0  0
    9.8278   -3.5904   25.4451 C   0  0  0  0  0  0  0  0  0  0  0  0
   10.2483    1.4887   22.8235 C   0  0  0  0  0  0  0  0  0  0  0  0
    7.9614   -3.5233   26.9778 C   0  0  0  0  0  0  0  0  0  0  0  0
   11.0215   -1.4341   24.7236 C   0  0  0  0  0  0  0  0  0  0  0  0
   11.0857   -0.7357   23.5834 C   0  0  0  0  0  0  0  0  0  0  0  0
    8.7831   -2.8913   22.8391 C   0  0  0  0  0  0  0  0  0  0  0  0
   10.8540   -1.6049   22.3845 C   0  0  0  0  0  0  0  0  0  0  0  0
   10.7499   -2.8901   24.4712 C   0  0  2  0  0  0  0  0  0  0  0  0
   10.2806   -2.8916   22.9974 C   0  0  1  0  0  0  0  0  0  0  0  0
    3.9817   -4.9410   25.2099 C   0  0  0  0  0  0  0  0  0  0  0  0
    4.2653   -6.0669   22.9933 C   0  0  0  0  0  0  0  0  0  0  0  0
   11.3855    0.7119   23.4388 C   0  0  0  0  0  0  0  0  0  0  0  0
    6.0912   -4.5341   23.9067 C   0  0  0  0  0  0  0  0  0  0  0  0
    6.8106   -4.3809   22.5687 C   0  0  0  0  0  0  0  0  0  0  0  0
    4.5775   -4.8093   23.8055 C   0  0  0  0  0  0  0  0  0  0  0  0
    9.1646    2.3396   20.8369 N   0  0  0  0  0  0  0  0  0  0  0  0
    8.2201   -4.1536   22.7256 N   0  0  0  0  0  0  0  0  0  0  0  0
    8.1775   -1.8261   22.8221 O   0  0  0  0  0  0  0  0  0  0  0  0
    6.7066   -2.6437   27.7611 Cl  0  0  0  0  0  0  0  0  0  0  0  0
    9.2788   -6.6539   26.8142 H   0  0  0  0  0  0  0  0  0  0  0  0
    7.4391    3.2210   23.6196 H   0  0  0  0  0  0  0  0  0  0  0  0
   10.7863   -5.5131   25.2204 H   0  0  0  0  0  0  0  0  0  0  0  0
    9.2867    1.9540   24.6977 H   0  0  0  0  0  0  0  0  0  0  0  0
    7.4757   -5.3989   27.9406 H   0  0  0  0  0  0  0  0  0  0  0  0
    8.6829   -1.8178   25.8691 H   0  0  0  0  0  0  0  0  0  0  0  0
    7.4340    3.4235   21.1279 H   0  0  0  0  0  0  0  0  0  0  0  0
   10.8996    1.2346   20.7817 H   0  0  0  0  0  0  0  0  0  0  0  0
   11.1904   -1.0136   25.7058 H   0  0  0  0  0  0  0  0  0  0  0  0
   10.1592   -1.1386   21.6777 H   0  0  0  0  0  0  0  0  0  0  0  0
   11.8055   -1.7917   21.8738 H   0  0  0  0  0  0  0  0  0  0  0  0
   11.7348   -3.4280   24.5335 H   0  0  0  0  0  0  0  0  0  0  0  0
   10.6568   -3.7784   22.4688 H   0  0  0  0  0  0  0  0  0  0  0  0
    4.4284   -5.7796   25.7547 H   0  0  0  0  0  0  0  0  0  0  0  0
    4.1515   -4.0289   25.7918 H   0  0  0  0  0  0  0  0  0  0  0  0
    2.9003   -5.1068   25.1601 H   0  0  0  0  0  0  0  0  0  0  0  0
    4.7297   -6.9528   23.4361 H   0  0  0  0  0  0  0  0  0  0  0  0
    4.6524   -5.9758   21.9725 H   0  0  0  0  0  0  0  0  0  0  0  0
    3.1860   -6.2413   22.9304 H   0  0  0  0  0  0  0  0  0  0  0  0
   12.2864    0.8435   22.8237 H   0  0  0  0  0  0  0  0  0  0  0  0
   11.6352    1.1348   24.4212 H   0  0  0  0  0  0  0  0  0  0  0  0
    6.2443   -3.6176   24.4918 H   0  0  0  0  0  0  0  0  0  0  0  0
    6.5714   -5.3464   24.4671 H   0  0  0  0  0  0  0  0  0  0  0  0
    6.6997   -5.2996   21.9834 H   0  0  0  0  0  0  0  0  0  0  0  0
    6.3998   -3.5603   21.9742 H   0  0  0  0  0  0  0  0  0  0  0  0
    4.0894   -3.9563   23.3183 H   0  0  0  0  0  0  0  0  0  0  0  0
    8.8395   -4.9632   22.7551 H   0  0  0  0  0  0  0  0  0  0  0  0
  1  3  2  0  0  0  0
  1  5  1  0  0  0  0
  2  4  2  0  0  0  0
  2  7  1  0  0  0  0
  3  9  1  0  0  0  0
  4 10  1  0  0  0  0
  5 11  2  0  0  0  0
  6  9  2  0  0  0  0
  6 11  1  0  0  0  0
  7 24  2  0  0  0  0
  8 10  2  0  0  0  0
  8 24  1  0  0  0  0
  9 16  1  0  0  0  0
 10 20  1  0  0  0  0
 11 27  1  0  0  0  0
 12 13  2  0  0  0  0
 12 16  1  0  0  0  0
 13 15  1  0  0  0  0
 13 20  1  0  0  0  0
 14 17  1  0  0  0  0
 14 25  1  0  0  0  0
 14 26  2  0  0  0  0
 15 17  1  0  0  0  0
 16 17  1  0  0  0  0
 18 23  1  0  0  0  0
 19 23  1  0  0  0  0
 21 22  1  0  0  0  0
 21 23  1  0  0  0  0
 22 25  1  0  0  0  0
  1 28  1  0  0  0  0
  2 29  1  0  0  0  0
  3 30  1  0  0  0  0
  4 31  1  0  0  0  0
  5 32  1  0  0  0  0
  6 33  1  0  0  0  0
  7 34  1  0  0  0  0
  8 35  1  0  0  0  0
 12 36  1  0  0  0  0
 15 37  1  0  0  0  0
 15 38  1  0  0  0  0
 16 39  1  6  0  0  0
 17 40  1  1  0  0  0
 18 41  1  0  0  0  0
 18 42  1  0  0  0  0
 18 43  1  0  0  0  0
 19 44  1  0  0  0  0
 19 45  1  0  0  0  0
 19 46  1  0  0  0  0
 20 47  1  0  0  0  0
 20 48  1  0  0  0  0
 21 49  1  0  0  0  0
 21 50  1  0  0  0  0
 22 51  1  0  0  0  0
 22 52  1  0  0  0  0
 23 53  1  0  0  0  0
 25 54  1  0  0  0  0
M  END
> <Chemgauss4 Score>
-4.62428331375122

> <Number of Confs>
200

$$$$
CHR-SOS-363-4
  -OEChem-03242005443D

 43 45  0     0  0  0  0  0  0999 V2000
    8.3720   -4.4471   27.5443 C   0  0  0  0  0  0  0  0  0  0  0  0
    6.8841    1.3883   18.5184 C   0  0  0  0  0  0  0  0  0  0  0  0
    7.2628    0.8894   19.7597 C   0  0  0  0  0  0  0  0  0  0  0  0
   10.5688   -2.9839   24.5061 C   0  0  0  0  0  0  0  0  0  0  0  0
   10.0051   -0.6366   24.6021 C   0  0  0  0  0  0  0  0  0  0  0  0
   11.6573   -2.6890   23.6852 C   0  0  0  0  0  0  0  0  0  0  0  0
   11.0937   -0.3416   23.7813 C   0  0  0  0  0  0  0  0  0  0  0  0
    6.0292    0.6204   17.7441 C   0  0  0  0  0  0  0  0  0  0  0  0
    6.9058   -5.4385   25.8661 C   0  0  0  0  0  0  0  0  0  0  0  0
    5.9314   -1.0348   19.3344 C   0  0  0  0  0  0  0  0  0  0  0  0
    6.4296   -4.4052   23.8702 C   0  0  0  0  0  0  0  0  0  0  0  0
    7.7215   -4.3952   26.2735 C   0  0  0  0  0  0  0  0  0  0  0  0
    6.7818   -0.3446   20.1830 C   0  0  0  0  0  0  0  0  0  0  0  0
    7.2228   -3.3133   24.1842 C   0  0  0  0  0  0  0  0  0  0  0  0
    9.7427   -1.9577   24.9645 C   0  0  0  0  0  0  0  0  0  0  0  0
    7.8778   -3.3161   25.4107 C   0  0  0  0  0  0  0  0  0  0  0  0
   11.9197   -1.3679   23.3228 C   0  0  0  0  0  0  0  0  0  0  0  0
    6.7543   -2.0994   22.0102 C   0  0  0  0  0  0  0  0  0  0  0  0
    8.9004   -4.4891   28.5766 N   0  0  0  0  0  0  0  0  0  0  0  0
    5.5414   -0.5825   18.1215 N   0  0  0  0  0  0  0  0  0  0  0  0
    6.2535   -5.4714   24.6824 N   0  0  0  0  0  0  0  0  0  0  0  0
   13.9267   -2.5596   22.0357 N   0  0  0  0  0  0  0  0  0  0  0  0
    7.1495   -0.8784   21.4407 N   0  0  0  0  0  0  0  0  0  0  0  0
    7.3496   -2.2536   23.2864 N   0  0  0  0  0  0  0  0  0  0  0  0
    6.0047   -2.9171   21.4861 O   0  0  0  0  0  0  0  0  0  0  0  0
   12.7761   -0.4835   21.0299 O   0  0  0  0  0  0  0  0  0  0  0  0
   14.2420   -0.2176   23.0617 O   0  0  0  0  0  0  0  0  0  0  0  0
    8.6807   -2.2453   25.7660 O   0  0  0  0  0  0  0  0  0  0  0  0
   13.2819   -0.9986   22.2944 S   0  0  0  0  0  0  0  0  0  0  0  0
    7.2467    2.3479   18.1680 H   0  0  0  0  0  0  0  0  0  0  0  0
    7.9324    1.4700   20.3887 H   0  0  0  0  0  0  0  0  0  0  0  0
   10.3697   -4.0150   24.7857 H   0  0  0  0  0  0  0  0  0  0  0  0
    9.3652    0.1671   24.9560 H   0  0  0  0  0  0  0  0  0  0  0  0
   12.2942   -3.4962   23.3338 H   0  0  0  0  0  0  0  0  0  0  0  0
   11.2889    0.6909   23.5047 H   0  0  0  0  0  0  0  0  0  0  0  0
    5.7049    0.9648   16.7677 H   0  0  0  0  0  0  0  0  0  0  0  0
    6.7420   -6.3105   26.4930 H   0  0  0  0  0  0  0  0  0  0  0  0
    5.5231   -2.0029   19.6091 H   0  0  0  0  0  0  0  0  0  0  0  0
    5.8933   -4.4614   22.9275 H   0  0  0  0  0  0  0  0  0  0  0  0
   13.8155   -2.9786   21.1043 H   0  0  0  0  0  0  0  0  0  0  0  0
   14.8152   -2.7960   22.4938 H   0  0  0  0  0  0  0  0  0  0  0  0
    7.7771   -0.3075   22.0011 H   0  0  0  0  0  0  0  0  0  0  0  0
    7.9510   -1.4752   23.5774 H   0  0  0  0  0  0  0  0  0  0  0  0
  1 12  1  0  0  0  0
  1 19  3  0  0  0  0
  2  3  2  0  0  0  0
  2  8  1  0  0  0  0
  3 13  1  0  0  0  0
  4  6  2  0  0  0  0
  4 15  1  0  0  0  0
  5  7  1  0  0  0  0
  5 15  2  0  0  0  0
  6 17  1  0  0  0  0
  7 17  2  0  0  0  0
  8 20  2  0  0  0  0
  9 12  1  0  0  0  0
  9 21  2  0  0  0  0
 10 13  2  0  0  0  0
 10 20  1  0  0  0  0
 11 14  2  0  0  0  0
 11 21  1  0  0  0  0
 12 16  2  0  0  0  0
 13 23  1  0  0  0  0
 14 16  1  0  0  0  0
 14 24  1  0  0  0  0
 15 28  1  0  0  0  0
 16 28  1  0  0  0  0
 17 29  1  0  0  0  0
 18 23  1  0  0  0  0
 18 24  1  0  0  0  0
 18 25  2  0  0  0  0
 22 29  1  0  0  0  0
 26 29  2  0  0  0  0
 27 29  2  0  0  0  0
  2 30  1  0  0  0  0
  3 31  1  0  0  0  0
  4 32  1  0  0  0  0
  5 33  1  0  0  0  0
  6 34  1  0  0  0  0
  7 35  1  0  0  0  0
  8 36  1  0  0  0  0
  9 37  1  0  0  0  0
 10 38  1  0  0  0  0
 11 39  1  0  0  0  0
 22 40  1  0  0  0  0
 22 41  1  0  0  0  0
 23 42  1  0  0  0  0
 24 43  1  0  0  0  0
M  END
> <Chemgauss4 Score>
-4.6241340637207

> <Number of Confs>
200

$$$$
DUN-NEW-f8c-22
  -OEChem-03242005443D

 37 38  0     1  0  0  0  0  0999 V2000
    8.7590   -4.3450   28.6084 C   0  0  0  0  0  0  0  0  0  0  0  0
    7.7263   -3.4585   28.3033 C   0  0  0  0  0  0  0  0  0  0  0  0
    9.7762   -4.5763   27.6823 C   0  0  0  0  0  0  0  0  0  0  0  0
    7.7106   -2.8033   27.0720 C   0  0  0  0  0  0  0  0  0  0  0  0
    9.7604   -3.9210   26.4510 C   0  0  0  0  0  0  0  0  0  0  0  0
    8.7277   -3.0345   26.1458 C   0  0  0  0  0  0  0  0  0  0  0  0
   10.6807   -0.1255   22.6076 C   0  0  0  0  0  0  0  0  0  0  0  0
    9.0267   -1.8376   21.9437 C   0  0  0  0  0  0  0  0  0  0  0  0
    7.6696   -2.1449   22.5637 C   0  0  0  0  0  0  0  0  0  0  0  0
   10.0890   -2.0407   24.1756 C   0  0  0  0  0  0  0  0  0  0  0  0
    8.7111   -2.3213   24.8042 C   0  0  1  0  0  0  0  0  0  0  0  0
    6.6151   -5.2738   24.3929 C   0  0  0  0  0  0  0  0  0  0  0  0
   12.0274    0.0242   23.2693 C   0  0  0  0  0  0  0  0  0  0  0  0
    9.9483   -1.2684   22.9302 N   0  0  0  0  0  0  0  0  0  0  0  0
    7.8339   -2.9958   23.7794 N   0  0  2  0  0  0  0  0  0  0  0  0
   10.2913    0.7497   21.8300 O   0  0  0  0  0  0  0  0  0  0  0  0
    9.2161   -5.1254   24.1928 O   0  0  0  0  0  0  0  0  0  0  0  0
    7.8169   -4.9412   22.0966 O   0  0  0  0  0  0  0  0  0  0  0  0
    8.0280   -4.6760   23.5022 S   0  0  0  0  0  0  0  0  0  0  0  0
   12.9726   -1.3887   22.8132 Cl  0  0  0  0  0  0  0  0  0  0  0  0
    8.7718   -4.8541   29.5677 H   0  0  0  0  0  0  0  0  0  0  0  0
    6.9348   -3.2775   29.0247 H   0  0  0  0  0  0  0  0  0  0  0  0
   10.5809   -5.2656   27.9199 H   0  0  0  0  0  0  0  0  0  0  0  0
    6.9018   -2.1144   26.8428 H   0  0  0  0  0  0  0  0  0  0  0  0
   10.5570   -4.1075   25.7355 H   0  0  0  0  0  0  0  0  0  0  0  0
    9.4954   -2.7526   21.5627 H   0  0  0  0  0  0  0  0  0  0  0  0
    8.8997   -1.1601   21.0935 H   0  0  0  0  0  0  0  0  0  0  0  0
    7.1564   -1.2188   22.8495 H   0  0  0  0  0  0  0  0  0  0  0  0
    7.0202   -2.6519   21.8419 H   0  0  0  0  0  0  0  0  0  0  0  0
   10.7232   -1.5226   24.8987 H   0  0  0  0  0  0  0  0  0  0  0  0
   10.6051   -2.9730   23.9140 H   0  0  0  0  0  0  0  0  0  0  0  0
    8.2080   -1.3350   25.0214 H   0  0  0  0  0  0  0  0  0  0  0  0
    6.5924   -6.3617   24.3124 H   0  0  0  0  0  0  0  0  0  0  0  0
    6.7117   -4.9694   25.4361 H   0  0  0  0  0  0  0  0  0  0  0  0
    5.7187   -4.8386   23.9486 H   0  0  0  0  0  0  0  0  0  0  0  0
   11.8898    0.0488   24.3443 H   0  0  0  0  0  0  0  0  0  0  0  0
   12.5024    0.9254   22.8992 H   0  0  0  0  0  0  0  0  0  0  0  0
  1  2  1  0  0  0  0
  1  3  2  0  0  0  0
  2  4  2  0  0  0  0
  3  5  1  0  0  0  0
  4  6  1  0  0  0  0
  5  6  2  0  0  0  0
  6 11  1  6  0  0  0
  7 13  1  0  0  0  0
  7 14  1  0  0  0  0
  7 16  2  0  0  0  0
  8  9  1  0  0  0  0
  8 14  1  0  0  0  0
  9 15  1  0  0  0  0
 10 11  1  0  0  0  0
 10 14  1  0  0  0  0
 11 15  1  0  0  0  0
 12 19  1  0  0  0  0
 13 20  1  0  0  0  0
 15 19  1  1  0  0  0
 17 19  2  0  0  0  0
 18 19  2  0  0  0  0
  1 21  1  0  0  0  0
  2 22  1  0  0  0  0
  3 23  1  0  0  0  0
  4 24  1  0  0  0  0
  5 25  1  0  0  0  0
  8 26  1  0  0  0  0
  8 27  1  0  0  0  0
  9 28  1  0  0  0  0
  9 29  1  0  0  0  0
 10 30  1  0  0  0  0
 10 31  1  0  0  0  0
 11 32  1  0  0  0  0
 12 33  1  0  0  0  0
 12 34  1  0  0  0  0
 12 35  1  0  0  0  0
 13 36  1  0  0  0  0
 13 37  1  0  0  0  0
M  END
> <Chemgauss4 Score>
-4.62094497680664

> <Number of Confs>
21

$$$$
CHR-SOS-709-5
  -OEChem-03242005443D

 29 30  0     0  0  0  0  0  0999 V2000
   13.2517   -1.0572   22.2190 C   0  0  0  0  0  0  0  0  0  0  0  0
   13.5975   -0.1614   23.2307 C   0  0  0  0  0  0  0  0  0  0  0  0
   12.0353   -1.7375   22.2755 C   0  0  0  0  0  0  0  0  0  0  0  0
    7.5431   -3.9945   23.9341 C   0  0  0  0  0  0  0  0  0  0  0  0
    8.6288   -4.6605   25.9871 C   0  0  0  0  0  0  0  0  0  0  0  0
    6.4649   -4.8269   24.2342 C   0  0  0  0  0  0  0  0  0  0  0  0
    7.5505   -5.4929   26.2873 C   0  0  0  0  0  0  0  0  0  0  0  0
   12.7270    0.0541   24.2990 C   0  0  0  0  0  0  0  0  0  0  0  0
   11.1647   -1.5220   23.3439 C   0  0  0  0  0  0  0  0  0  0  0  0
    8.6251   -3.9113   24.8105 C   0  0  0  0  0  0  0  0  0  0  0  0
    6.4685   -5.5761   25.4108 C   0  0  0  0  0  0  0  0  0  0  0  0
   11.5105   -0.6262   24.3556 C   0  0  0  0  0  0  0  0  0  0  0  0
    9.8999   -2.2426   23.3835 C   0  0  0  0  0  0  0  0  0  0  0  0
    9.7210   -3.0653   24.5055 N   0  0  0  0  0  0  0  0  0  0  0  0
    5.3708   -6.4234   25.7164 N   0  3  0  0  0  0  0  0  0  0  0  0
    4.4075   -6.4837   24.9146 O   0  5  0  0  0  0  0  0  0  0  0  0
    9.0712   -2.1506   22.4686 O   0  0  0  0  0  0  0  0  0  0  0  0
    5.3938   -7.0885   26.7803 O   0  0  0  0  0  0  0  0  0  0  0  0
   10.6724   -0.4008   25.4066 O   0  0  0  0  0  0  0  0  0  0  0  0
   13.9300   -1.2248   21.3871 H   0  0  0  0  0  0  0  0  0  0  0  0
   14.5450    0.3675   23.1863 H   0  0  0  0  0  0  0  0  0  0  0  0
   11.7761   -2.4329   21.4812 H   0  0  0  0  0  0  0  0  0  0  0  0
    7.5296   -3.4152   23.0144 H   0  0  0  0  0  0  0  0  0  0  0  0
    9.4666   -4.6034   26.6774 H   0  0  0  0  0  0  0  0  0  0  0  0
    5.6280   -4.8825   23.5424 H   0  0  0  0  0  0  0  0  0  0  0  0
    7.5661   -6.0714   27.2078 H   0  0  0  0  0  0  0  0  0  0  0  0
   13.0024    0.7534   25.0838 H   0  0  0  0  0  0  0  0  0  0  0  0
   10.4748   -3.0534   25.1881 H   0  0  0  0  0  0  0  0  0  0  0  0
   11.0636    0.2468   26.0134 H   0  0  0  0  0  0  0  0  0  0  0  0
  1  2  1  0  0  0  0
  1  3  2  0  0  0  0
  2  8  2  0  0  0  0
  3  9  1  0  0  0  0
  4  6  2  0  0  0  0
  4 10  1  0  0  0  0
  5  7  1  0  0  0  0
  5 10  2  0  0  0  0
  6 11  1  0  0  0  0
  7 11  2  0  0  0  0
  8 12  1  0  0  0  0
  9 12  2  0  0  0  0
  9 13  1  0  0  0  0
 10 14  1  0  0  0  0
 11 15  1  0  0  0  0
 12 19  1  0  0  0  0
 13 14  1  0  0  0  0
 13 17  2  0  0  0  0
 15 16  1  0  0  0  0
 15 18  2  0  0  0  0
  1 20  1  0  0  0  0
  2 21  1  0  0  0  0
  3 22  1  0  0  0  0
  4 23  1  0  0  0  0
  5 24  1  0  0  0  0
  6 25  1  0  0  0  0
  7 26  1  0  0  0  0
  8 27  1  0  0  0  0
 14 28  1  0  0  0  0
 19 29  1  0  0  0  0
M  CHG  2  15   1  16  -1
M  END
> <Chemgauss4 Score>
-4.61848163604736

> <Number of Confs>
6

$$$$
DAN-LON-a5f-1
  -OEChem-03242005443D

 47 49  0     1  0  0  0  0  0999 V2000
    5.6059   -6.7769   22.7320 C   0  0  0  0  0  0  0  0  0  0  0  0
    6.7145   -6.5152   21.9271 C   0  0  0  0  0  0  0  0  0  0  0  0
    5.3461   -5.9749   23.8434 C   0  0  0  0  0  0  0  0  0  0  0  0
   12.7087    0.1399   21.5827 C   0  0  0  0  0  0  0  0  0  0  0  0
    7.5635   -5.4517   22.2335 C   0  0  0  0  0  0  0  0  0  0  0  0
    6.1950   -4.9115   24.1499 C   0  0  0  0  0  0  0  0  0  0  0  0
   12.6401   -0.4236   22.8568 C   0  0  0  0  0  0  0  0  0  0  0  0
   11.6534    0.9178   21.1063 C   0  0  0  0  0  0  0  0  0  0  0  0
   10.4608    0.5685   23.1782 C   0  0  0  0  0  0  0  0  0  0  0  0
    7.3037   -4.6498   23.3449 C   0  0  0  0  0  0  0  0  0  0  0  0
   11.5162   -0.2093   23.6546 C   0  0  0  0  0  0  0  0  0  0  0  0
   10.5294    1.1321   21.9041 C   0  0  0  0  0  0  0  0  0  0  0  0
    8.3645   -5.2969   26.4320 C   0  0  0  0  0  0  0  0  0  0  0  0
    8.7442   -2.8119   26.7509 C   0  0  0  0  0  0  0  0  0  0  0  0
    9.9670   -1.9108   26.5827 C   0  0  0  0  0  0  0  0  0  0  0  0
   10.5643   -3.0048   24.5273 C   0  0  0  0  0  0  0  0  0  0  0  0
    9.3509   -3.9445   24.6091 C   0  0  2  0  0  0  0  0  0  0  0  0
    8.2176   -3.5047   23.6756 C   0  0  0  0  0  0  0  0  0  0  0  0
   11.4425   -0.8172   25.0254 C   0  0  0  0  0  0  0  0  0  0  0  0
    7.6751   -5.3098   27.7732 C   0  0  0  0  0  0  0  0  0  0  0  0
    8.8607   -4.0649   25.9937 N   0  0  0  0  0  0  0  0  0  0  0  0
   10.2940   -1.7115   25.1665 N   0  0  2  0  0  0  0  0  0  0  0  0
    8.4635   -6.3485   25.7943 O   0  0  0  0  0  0  0  0  0  0  0  0
    9.2272    2.0909   21.3154 Cl  0  0  0  0  0  0  0  0  0  0  0  0
    6.3320   -4.1779   27.6598 Cl  0  0  0  0  0  0  0  0  0  0  0  0
    4.9441   -7.6041   22.4925 H   0  0  0  0  0  0  0  0  0  0  0  0
    6.9163   -7.1388   21.0610 H   0  0  0  0  0  0  0  0  0  0  0  0
    4.4824   -6.1777   24.4698 H   0  0  0  0  0  0  0  0  0  0  0  0
   13.5841   -0.0274   20.9617 H   0  0  0  0  0  0  0  0  0  0  0  0
    8.4251   -5.2554   21.6007 H   0  0  0  0  0  0  0  0  0  0  0  0
    5.9849   -4.2921   25.0178 H   0  0  0  0  0  0  0  0  0  0  0  0
   13.4670   -1.0284   23.2198 H   0  0  0  0  0  0  0  0  0  0  0  0
   11.7204    1.3505   20.1112 H   0  0  0  0  0  0  0  0  0  0  0  0
    9.5869    0.7331   23.8043 H   0  0  0  0  0  0  0  0  0  0  0  0
    8.5941   -3.0045   27.8156 H   0  0  0  0  0  0  0  0  0  0  0  0
    7.8428   -2.3034   26.3880 H   0  0  0  0  0  0  0  0  0  0  0  0
    9.7447   -0.9442   27.0511 H   0  0  0  0  0  0  0  0  0  0  0  0
   10.8174   -2.3456   27.1249 H   0  0  0  0  0  0  0  0  0  0  0  0
   11.4299   -3.4927   24.9964 H   0  0  0  0  0  0  0  0  0  0  0  0
   10.8213   -2.8513   23.4714 H   0  0  0  0  0  0  0  0  0  0  0  0
    9.6779   -4.9358   24.2713 H   0  0  0  0  0  0  0  0  0  0  0  0
    8.6474   -3.0885   22.7611 H   0  0  0  0  0  0  0  0  0  0  0  0
    7.6545   -2.6974   24.1507 H   0  0  0  0  0  0  0  0  0  0  0  0
   12.3481   -1.3946   25.2409 H   0  0  0  0  0  0  0  0  0  0  0  0
   11.3600   -0.0424   25.7949 H   0  0  0  0  0  0  0  0  0  0  0  0
    8.3761   -4.9808   28.5317 H   0  0  0  0  0  0  0  0  0  0  0  0
    7.3043   -6.3095   27.9678 H   0  0  0  0  0  0  0  0  0  0  0  0
  1  2  1  0  0  0  0
  1  3  2  0  0  0  0
  2  5  2  0  0  0  0
  3  6  1  0  0  0  0
  4  7  2  0  0  0  0
  4  8  1  0  0  0  0
  5 10  1  0  0  0  0
  6 10  2  0  0  0  0
  7 11  1  0  0  0  0
  8 12  2  0  0  0  0
  9 11  2  0  0  0  0
  9 12  1  0  0  0  0
 10 18  1  0  0  0  0
 11 19  1  0  0  0  0
 12 24  1  0  0  0  0
 13 20  1  0  0  0  0
 13 21  1  0  0  0  0
 13 23  2  0  0  0  0
 14 15  1  0  0  0  0
 14 21  1  0  0  0  0
 15 22  1  0  0  0  0
 16 17  1  0  0  0  0
 16 22  1  0  0  0  0
 17 18  1  0  0  0  0
 17 21  1  0  0  0  0
 19 22  1  1  0  0  0
 20 25  1  0  0  0  0
  1 26  1  0  0  0  0
  2 27  1  0  0  0  0
  3 28  1  0  0  0  0
  4 29  1  0  0  0  0
  5 30  1  0  0  0  0
  6 31  1  0  0  0  0
  7 32  1  0  0  0  0
  8 33  1  0  0  0  0
  9 34  1  0  0  0  0
 14 35  1  0  0  0  0
 14 36  1  0  0  0  0
 15 37  1  0  0  0  0
 15 38  1  0  0  0  0
 16 39  1  0  0  0  0
 16 40  1  0  0  0  0
 17 41  1  1  0  0  0
 18 42  1  0  0  0  0
 18 43  1  0  0  0  0
 19 44  1  0  0  0  0
 19 45  1  0  0  0  0
 20 46  1  0  0  0  0
 20 47  1  0  0  0  0
M  END
> <Chemgauss4 Score>
-4.61787986755371

> <Number of Confs>
106

$$$$
JOH-MSK-a63-6
  -OEChem-03242005443D

 49 51  0     1  0  0  0  0  0999 V2000
   10.7840   -4.7355   25.9623 C   0  0  0  0  0  0  0  0  0  0  0  0
   11.0231   -3.7330   25.0179 C   0  0  0  0  0  0  0  0  0  0  0  0
    8.6410   -3.3881   24.6956 C   0  0  0  0  0  0  0  0  0  0  0  0
    7.5555   -5.9288   27.0886 C   0  0  0  0  0  0  0  0  0  0  0  0
    8.3754   -4.3954   25.6444 C   0  0  0  0  0  0  0  0  0  0  0  0
    7.1860   -4.9636   26.1805 C   0  0  0  0  0  0  0  0  0  0  0  0
    9.4508   -5.0446   26.2546 C   0  0  0  0  0  0  0  0  0  0  0  0
    9.9697   -3.0684   24.3932 C   0  0  0  0  0  0  0  0  0  0  0  0
    8.5313    1.7388   24.3267 C   0  0  0  0  0  0  0  0  0  0  0  0
    6.7814   -2.3054   28.0508 C   0  0  0  0  0  0  0  0  0  0  0  0
    9.2681    0.6574   23.5613 C   0  0  1  0  0  0  0  0  0  0  0  0
   10.0493    1.3461   22.4467 C   0  0  1  0  0  0  0  0  0  0  0  0
   10.9938    0.3562   21.7539 C   0  0  1  0  0  0  0  0  0  0  0  0
   11.8355   -0.4030   22.7835 C   0  0  2  0  0  0  0  0  0  0  0  0
   10.9839   -0.9682   23.9295 C   0  0  1  0  0  0  0  0  0  0  0  0
    7.3490   -0.9256   28.1008 C   0  0  0  0  0  0  0  0  0  0  0  0
    5.7997   -4.5914   25.8333 C   0  0  0  0  0  0  0  0  0  0  0  0
    5.0982   -3.7237   26.8941 C   0  0  0  0  0  0  0  0  0  0  0  0
    8.9234   -5.9702   27.1266 N   0  0  0  0  0  0  0  0  0  0  0  0
    5.7789   -2.4749   27.1094 N   0  0  0  0  0  0  0  0  0  0  0  0
    9.2617    2.6397   24.8246 O   0  5  0  0  0  0  0  0  0  0  0  0
    7.2769    1.5977   24.3673 O   0  0  0  0  0  0  0  0  0  0  0  0
    7.2161   -3.1653   28.8079 O   0  0  0  0  0  0  0  0  0  0  0  0
   10.1457    0.0416   24.4979 O   0  0  0  0  0  0  0  0  0  0  0  0
    9.1666    1.9198   21.4872 O   0  0  0  0  0  0  0  0  0  0  0  0
   10.2410   -0.5967   21.0037 O   0  0  0  0  0  0  0  0  0  0  0  0
   12.8244    0.4716   23.3228 O   0  0  0  0  0  0  0  0  0  0  0  0
   10.2355   -2.0900   23.4728 O   0  0  0  0  0  0  0  0  0  0  0  0
   11.6049   -5.2527   26.4477 H   0  0  0  0  0  0  0  0  0  0  0  0
   12.0502   -3.4740   24.7713 H   0  0  0  0  0  0  0  0  0  0  0  0
    7.8262   -2.8639   24.2036 H   0  0  0  0  0  0  0  0  0  0  0  0
    6.9691   -6.5902   27.7113 H   0  0  0  0  0  0  0  0  0  0  0  0
    8.5289   -0.0573   23.1830 H   0  0  0  0  0  0  0  0  0  0  0  0
   10.6564    2.1643   22.8711 H   0  0  0  0  0  0  0  0  0  0  0  0
   11.6342    0.8965   21.0460 H   0  0  0  0  0  0  0  0  0  0  0  0
   12.3592   -1.2363   22.2811 H   0  0  0  0  0  0  0  0  0  0  0  0
   11.6455   -1.3139   24.7331 H   0  0  0  0  0  0  0  0  0  0  0  0
    6.8119   -0.2755   28.8101 H   0  0  0  0  0  0  0  0  0  0  0  0
    8.3992   -0.9148   28.4339 H   0  0  0  0  0  0  0  0  0  0  0  0
    7.3429   -0.3785   27.1446 H   0  0  0  0  0  0  0  0  0  0  0  0
    5.1879   -5.5027   25.6820 H   0  0  0  0  0  0  0  0  0  0  0  0
    5.7558   -4.0635   24.8592 H   0  0  0  0  0  0  0  0  0  0  0  0
    4.0768   -3.4776   26.5871 H   0  0  0  0  0  0  0  0  0  0  0  0
    5.0496   -4.2436   27.8565 H   0  0  0  0  0  0  0  0  0  0  0  0
    9.4682   -6.5905   27.7095 H   0  0  0  0  0  0  0  0  0  0  0  0
    5.5099   -1.6738   26.5404 H   0  0  0  0  0  0  0  0  0  0  0  0
    8.6216    2.5658   21.9633 H   0  0  0  0  0  0  0  0  0  0  0  0
   10.8859   -1.1911   20.5917 H   0  0  0  0  0  0  0  0  0  0  0  0
   13.3693    0.7641   22.5763 H   0  0  0  0  0  0  0  0  0  0  0  0
  1  2  2  0  0  0  0
  1  7  1  0  0  0  0
  2  8  1  0  0  0  0
  3  5  1  0  0  0  0
  3  8  2  0  0  0  0
  4  6  2  0  0  0  0
  4 19  1  0  0  0  0
  5  6  1  0  0  0  0
  5  7  2  0  0  0  0
  6 17  1  0  0  0  0
  7 19  1  0  0  0  0
  8 28  1  0  0  0  0
  9 11  1  1  0  0  0
  9 21  1  0  0  0  0
  9 22  2  0  0  0  0
 10 16  1  0  0  0  0
 10 20  1  0  0  0  0
 10 23  2  0  0  0  0
 11 12  1  0  0  0  0
 11 24  1  0  0  0  0
 12 13  1  0  0  0  0
 12 25  1  6  0  0  0
 13 14  1  0  0  0  0
 13 26  1  6  0  0  0
 14 15  1  0  0  0  0
 14 27  1  1  0  0  0
 15 24  1  0  0  0  0
 15 28  1  1  0  0  0
 17 18  1  0  0  0  0
 18 20  1  0  0  0  0
  1 29  1  0  0  0  0
  2 30  1  0  0  0  0
  3 31  1  0  0  0  0
  4 32  1  0  0  0  0
 11 33  1  0  0  0  0
 12 34  1  0  0  0  0
 13 35  1  0  0  0  0
 14 36  1  0  0  0  0
 15 37  1  0  0  0  0
 16 38  1  0  0  0  0
 16 39  1  0  0  0  0
 16 40  1  0  0  0  0
 17 41  1  0  0  0  0
 17 42  1  0  0  0  0
 18 43  1  0  0  0  0
 18 44  1  0  0  0  0
 19 45  1  0  0  0  0
 20 46  1  0  0  0  0
 25 47  1  0  0  0  0
 26 48  1  0  0  0  0
 27 49  1  0  0  0  0
M  CHG  1  21  -1
M  END
> <Chemgauss4 Score>
-4.61638259887695

> <Number of Confs>
200

$$$$
CHR-SOS-709-6
  -OEChem-03242005443D

 28 29  0     0  0  0  0  0  0999 V2000
   13.2196   -0.4090   22.2268 C   0  0  0  0  0  0  0  0  0  0  0  0
   12.6119    0.2305   23.3073 C   0  0  0  0  0  0  0  0  0  0  0  0
   12.8344   -1.7027   21.8755 C   0  0  0  0  0  0  0  0  0  0  0  0
   11.6191   -0.4238   24.0365 C   0  0  0  0  0  0  0  0  0  0  0  0
   11.8416   -2.3571   22.6047 C   0  0  0  0  0  0  0  0  0  0  0  0
    8.3057   -4.5331   25.5222 C   0  0  0  0  0  0  0  0  0  0  0  0
    7.4220   -4.5936   23.2745 C   0  0  0  0  0  0  0  0  0  0  0  0
    7.2414   -5.3203   25.9618 C   0  0  0  0  0  0  0  0  0  0  0  0
    6.3577   -5.3808   23.7140 C   0  0  0  0  0  0  0  0  0  0  0  0
   11.2339   -1.7177   23.6852 C   0  0  0  0  0  0  0  0  0  0  0  0
    8.3960   -4.1697   24.1785 C   0  0  0  0  0  0  0  0  0  0  0  0
    6.2674   -5.7442   25.0577 C   0  0  0  0  0  0  0  0  0  0  0  0
   10.1988   -2.3998   24.4455 C   0  0  0  0  0  0  0  0  0  0  0  0
    9.4777   -3.3696   23.7318 N   0  0  0  0  0  0  0  0  0  0  0  0
    5.1840   -6.5456   25.5052 N   0  3  0  0  0  0  0  0  0  0  0  0
    5.1215   -6.8614   26.7181 O   0  5  0  0  0  0  0  0  0  0  0  0
    9.9598   -2.1098   25.6261 O   0  0  0  0  0  0  0  0  0  0  0  0
    4.3188   -6.9166   24.6755 O   0  0  0  0  0  0  0  0  0  0  0  0
   13.9927    0.1005   21.6591 H   0  0  0  0  0  0  0  0  0  0  0  0
   12.9122    1.2378   23.5808 H   0  0  0  0  0  0  0  0  0  0  0  0
   13.3074   -2.2005   21.0340 H   0  0  0  0  0  0  0  0  0  0  0  0
   11.1521    0.0838   24.8766 H   0  0  0  0  0  0  0  0  0  0  0  0
   11.5495   -3.3652   22.3220 H   0  0  0  0  0  0  0  0  0  0  0  0
    9.0590   -4.2085   26.2356 H   0  0  0  0  0  0  0  0  0  0  0  0
    7.4824   -4.3164   22.2250 H   0  0  0  0  0  0  0  0  0  0  0  0
    7.1830   -5.5963   27.0119 H   0  0  0  0  0  0  0  0  0  0  0  0
    5.6054   -5.7044   22.9989 H   0  0  0  0  0  0  0  0  0  0  0  0
    9.7692   -3.5177   22.7687 H   0  0  0  0  0  0  0  0  0  0  0  0
  1  2  1  0  0  0  0
  1  3  2  0  0  0  0
  2  4  2  0  0  0  0
  3  5  1  0  0  0  0
  4 10  1  0  0  0  0
  5 10  2  0  0  0  0
  6  8  2  0  0  0  0
  6 11  1  0  0  0  0
  7  9  1  0  0  0  0
  7 11  2  0  0  0  0
  8 12  1  0  0  0  0
  9 12  2  0  0  0  0
 10 13  1  0  0  0  0
 11 14  1  0  0  0  0
 12 15  1  0  0  0  0
 13 14  1  0  0  0  0
 13 17  2  0  0  0  0
 15 16  1  0  0  0  0
 15 18  2  0  0  0  0
  1 19  1  0  0  0  0
  2 20  1  0  0  0  0
  3 21  1  0  0  0  0
  4 22  1  0  0  0  0
  5 23  1  0  0  0  0
  6 24  1  0  0  0  0
  7 25  1  0  0  0  0
  8 26  1  0  0  0  0
  9 27  1  0  0  0  0
 14 28  1  0  0  0  0
M  CHG  2  15   1  16  -1
M  END
> <Chemgauss4 Score>
-4.60802936553955

> <Number of Confs>
2

$$$$
ANT-DIA-3c7-3
  -OEChem-03242005443D

 41 43  0     0  0  0  0  0  0999 V2000
    6.8286   -2.1498   24.4171 C   0  0  0  0  0  0  0  0  0  0  0  0
    6.1493   -6.6263   25.7249 C   0  0  0  0  0  0  0  0  0  0  0  0
    8.1100   -1.3516   22.5102 C   0  0  0  0  0  0  0  0  0  0  0  0
    7.3824   -6.0860   26.0852 C   0  0  0  0  0  0  0  0  0  0  0  0
    9.3222   -1.1616   21.8468 C   0  0  0  0  0  0  0  0  0  0  0  0
   10.4914   -2.2085   23.6837 C   0  0  0  0  0  0  0  0  0  0  0  0
    5.0203   -6.2485   26.4393 C   0  0  0  0  0  0  0  0  0  0  0  0
    7.7990   -3.7122   28.8295 C   0  0  0  0  0  0  0  0  0  0  0  0
    8.0885   -1.9700   23.7603 C   0  0  0  0  0  0  0  0  0  0  0  0
    7.4137   -5.1823   27.1595 C   0  0  0  0  0  0  0  0  0  0  0  0
    8.4157   -4.4299   27.8274 C   0  0  0  0  0  0  0  0  0  0  0  0
   10.5129   -1.5901   22.4335 C   0  0  0  0  0  0  0  0  0  0  0  0
    9.2792   -2.3985   24.3470 C   0  0  0  0  0  0  0  0  0  0  0  0
    6.2059   -4.8920   27.7876 C   0  0  0  0  0  0  0  0  0  0  0  0
   10.1918   -3.9803   26.0820 C   0  0  0  0  0  0  0  0  0  0  0  0
   14.1166   -1.4779   21.3826 C   0  0  0  0  0  0  0  0  0  0  0  0
    9.8586   -4.4126   27.5142 C   0  0  0  0  0  0  0  0  0  0  0  0
   12.9947   -1.8131   22.3055 C   0  0  0  0  0  0  0  0  0  0  0  0
    5.8077   -2.2956   24.9494 N   0  0  0  0  0  0  0  0  0  0  0  0
    4.9910   -5.3845   27.4805 N   0  0  0  0  0  0  0  0  0  0  0  0
    6.4593   -4.0004   28.7964 N   0  0  0  0  0  0  0  0  0  0  0  0
    9.2903   -3.0272   25.6149 N   0  0  0  0  0  0  0  0  0  0  0  0
   11.7382   -1.3986   21.7623 N   0  0  0  0  0  0  0  0  0  0  0  0
   11.1483   -4.4565   25.4790 O   0  0  0  0  0  0  0  0  0  0  0  0
    6.0743   -7.3288   24.9018 H   0  0  0  0  0  0  0  0  0  0  0  0
    7.1906   -1.0115   22.0388 H   0  0  0  0  0  0  0  0  0  0  0  0
    8.2840   -6.3598   25.5469 H   0  0  0  0  0  0  0  0  0  0  0  0
    9.3271   -0.6782   20.8732 H   0  0  0  0  0  0  0  0  0  0  0  0
   11.4218   -2.5406   24.1399 H   0  0  0  0  0  0  0  0  0  0  0  0
    4.0501   -6.6591   26.1719 H   0  0  0  0  0  0  0  0  0  0  0  0
    8.1920   -3.0219   29.5632 H   0  0  0  0  0  0  0  0  0  0  0  0
   14.1431   -0.3908   21.2165 H   0  0  0  0  0  0  0  0  0  0  0  0
   15.0679   -1.8039   21.8284 H   0  0  0  0  0  0  0  0  0  0  0  0
   13.9667   -1.9919   20.4217 H   0  0  0  0  0  0  0  0  0  0  0  0
   10.4063   -3.7351   28.1985 H   0  0  0  0  0  0  0  0  0  0  0  0
   10.3107   -5.4114   27.6719 H   0  0  0  0  0  0  0  0  0  0  0  0
   12.9750   -2.9011   22.4663 H   0  0  0  0  0  0  0  0  0  0  0  0
   13.1560   -1.3032   23.2667 H   0  0  0  0  0  0  0  0  0  0  0  0
    5.7644   -3.6156   29.4211 H   0  0  0  0  0  0  0  0  0  0  0  0
    8.5535   -2.7505   26.2605 H   0  0  0  0  0  0  0  0  0  0  0  0
   11.7006   -0.9487   20.8670 H   0  0  0  0  0  0  0  0  0  0  0  0
  1  9  1  0  0  0  0
  1 19  3  0  0  0  0
  2  4  2  0  0  0  0
  2  7  1  0  0  0  0
  3  5  2  0  0  0  0
  3  9  1  0  0  0  0
  4 10  1  0  0  0  0
  5 12  1  0  0  0  0
  6 12  2  0  0  0  0
  6 13  1  0  0  0  0
  7 20  2  0  0  0  0
  8 11  2  0  0  0  0
  8 21  1  0  0  0  0
  9 13  2  0  0  0  0
 10 11  1  0  0  0  0
 10 14  2  0  0  0  0
 11 17  1  0  0  0  0
 12 23  1  0  0  0  0
 13 22  1  0  0  0  0
 14 20  1  0  0  0  0
 14 21  1  0  0  0  0
 15 17  1  0  0  0  0
 15 22  1  0  0  0  0
 15 24  2  0  0  0  0
 16 18  1  0  0  0  0
 18 23  1  0  0  0  0
  2 25  1  0  0  0  0
  3 26  1  0  0  0  0
  4 27  1  0  0  0  0
  5 28  1  0  0  0  0
  6 29  1  0  0  0  0
  7 30  1  0  0  0  0
  8 31  1  0  0  0  0
 16 32  1  0  0  0  0
 16 33  1  0  0  0  0
 16 34  1  0  0  0  0
 17 35  1  0  0  0  0
 17 36  1  0  0  0  0
 18 37  1  0  0  0  0
 18 38  1  0  0  0  0
 21 39  1  0  0  0  0
 22 40  1  0  0  0  0
 23 41  1  0  0  0  0
M  END
> <Chemgauss4 Score>
-4.6068377494812

> <Number of Confs>
200

$$$$
TRY-UNI-714-11
  -OEChem-03242005443D

 30 31  0     0  0  0  0  0  0999 V2000
   12.2654    0.0551   22.9336 C   0  0  0  0  0  0  0  0  0  0  0  0
   11.8080   -0.9958   22.1386 C   0  0  0  0  0  0  0  0  0  0  0  0
   11.9606    0.0839   24.2945 C   0  0  0  0  0  0  0  0  0  0  0  0
   11.0458   -2.0178   22.7044 C   0  0  0  0  0  0  0  0  0  0  0  0
   11.1984   -0.9381   24.8603 C   0  0  0  0  0  0  0  0  0  0  0  0
    6.9196   -6.5134   28.4606 C   0  0  0  0  0  0  0  0  0  0  0  0
    7.1053   -5.7655   29.6121 C   0  0  0  0  0  0  0  0  0  0  0  0
    8.3414   -4.1848   28.4933 C   0  0  0  0  0  0  0  0  0  0  0  0
    7.4876   -6.0445   27.2813 C   0  0  0  0  0  0  0  0  0  0  0  0
   10.7410   -1.9890   24.0653 C   0  0  0  0  0  0  0  0  0  0  0  0
    8.2138   -4.8587   27.2894 C   0  0  0  0  0  0  0  0  0  0  0  0
    9.5656   -3.1648   25.9770 C   0  0  0  0  0  0  0  0  0  0  0  0
    7.3036   -6.8311   26.0251 C   0  0  0  0  0  0  0  0  0  0  0  0
    7.8041   -4.6091   29.6590 N   0  0  0  0  0  0  0  0  0  0  0  0
    9.9787   -3.0115   24.6311 N   0  0  0  0  0  0  0  0  0  0  0  0
    8.8104   -4.3403   26.1158 N   0  0  0  0  0  0  0  0  0  0  0  0
    9.8321   -2.3816   26.8830 O   0  0  0  0  0  0  0  0  0  0  0  0
   12.8596    0.8507   22.4935 H   0  0  0  0  0  0  0  0  0  0  0  0
   12.0458   -1.0190   21.0792 H   0  0  0  0  0  0  0  0  0  0  0  0
   12.3178    0.9019   24.9135 H   0  0  0  0  0  0  0  0  0  0  0  0
   10.6949   -2.8318   22.0750 H   0  0  0  0  0  0  0  0  0  0  0  0
   10.9672   -0.9051   25.9221 H   0  0  0  0  0  0  0  0  0  0  0  0
    6.3476   -7.4346   28.4881 H   0  0  0  0  0  0  0  0  0  0  0  0
    6.6828   -6.0881   30.5580 H   0  0  0  0  0  0  0  0  0  0  0  0
    8.8960   -3.2537   28.5636 H   0  0  0  0  0  0  0  0  0  0  0  0
    6.3978   -6.5042   25.5015 H   0  0  0  0  0  0  0  0  0  0  0  0
    8.1606   -6.7083   25.3514 H   0  0  0  0  0  0  0  0  0  0  0  0
    7.2164   -7.9037   26.2385 H   0  0  0  0  0  0  0  0  0  0  0  0
    9.6776   -3.7502   23.9867 H   0  0  0  0  0  0  0  0  0  0  0  0
    8.6720   -4.8921   25.2729 H   0  0  0  0  0  0  0  0  0  0  0  0
  1  2  1  0  0  0  0
  1  3  2  0  0  0  0
  2  4  2  0  0  0  0
  3  5  1  0  0  0  0
  4 10  1  0  0  0  0
  5 10  2  0  0  0  0
  6  7  2  0  0  0  0
  6  9  1  0  0  0  0
  7 14  1  0  0  0  0
  8 11  1  0  0  0  0
  8 14  2  0  0  0  0
  9 11  2  0  0  0  0
  9 13  1  0  0  0  0
 10 15  1  0  0  0  0
 11 16  1  0  0  0  0
 12 15  1  0  0  0  0
 12 16  1  0  0  0  0
 12 17  2  0  0  0  0
  1 18  1  0  0  0  0
  2 19  1  0  0  0  0
  3 20  1  0  0  0  0
  4 21  1  0  0  0  0
  5 22  1  0  0  0  0
  6 23  1  0  0  0  0
  7 24  1  0  0  0  0
  8 25  1  0  0  0  0
 13 26  1  0  0  0  0
 13 27  1  0  0  0  0
 13 28  1  0  0  0  0
 15 29  1  0  0  0  0
 16 30  1  0  0  0  0
M  END
> <Chemgauss4 Score>
-4.60560417175293

> <Number of Confs>
1

$$$$
CHR-SOS-1f3-9
  -OEChem-03242005443D

 46 48  0     0  0  0  0  0  0999 V2000
    8.0781   -2.2733   22.6861 C   0  0  0  0  0  0  0  0  0  0  0  0
    9.5806   -3.8463   21.6347 C   0  0  0  0  0  0  0  0  0  0  0  0
    7.1106   -3.2718   22.7974 C   0  0  0  0  0  0  0  0  0  0  0  0
    8.6130   -4.8448   21.7460 C   0  0  0  0  0  0  0  0  0  0  0  0
    7.8108   -4.3307   29.0103 C   0  0  0  0  0  0  0  0  0  0  0  0
    7.7990   -5.6189   28.5002 C   0  0  0  0  0  0  0  0  0  0  0  0
    8.8452   -4.9578   26.5646 C   0  0  0  0  0  0  0  0  0  0  0  0
    8.3766   -3.3274   28.2315 C   0  0  0  0  0  0  0  0  0  0  0  0
    8.9059   -3.6386   26.9839 C   0  0  0  0  0  0  0  0  0  0  0  0
    9.3131   -2.5605   22.1047 C   0  0  0  0  0  0  0  0  0  0  0  0
    7.3780   -4.5576   22.3274 C   0  0  0  0  0  0  0  0  0  0  0  0
   10.0577   -2.8248   24.8883 C   0  0  0  0  0  0  0  0  0  0  0  0
   13.1480   -1.1142   22.3483 C   0  0  0  0  0  0  0  0  0  0  0  0
   12.4542   -2.3290   22.9906 C   0  0  0  0  0  0  0  0  0  0  0  0
   12.1061   -0.2221   23.0471 C   0  0  0  0  0  0  0  0  0  0  0  0
   11.1674   -1.4623   23.1103 C   0  0  0  0  0  0  0  0  0  0  0  0
    8.4023   -1.9295   28.7566 C   0  0  0  0  0  0  0  0  0  0  0  0
    8.3034   -5.9595   27.2931 N   0  0  0  0  0  0  0  0  0  0  0  0
    6.5496   -6.4638   23.9962 N   0  0  0  0  0  0  0  0  0  0  0  0
    9.4922   -2.6539   26.1549 N   0  0  0  0  0  0  0  0  0  0  0  0
   10.5212   -1.6045   24.4170 N   0  0  0  0  0  0  0  0  0  0  0  0
   10.1462   -3.8780   24.2616 O   0  0  0  0  0  0  0  0  0  0  0  0
    4.8582   -5.1727   22.5409 O   0  0  0  0  0  0  0  0  0  0  0  0
    6.4240   -6.8159   21.4473 O   0  0  0  0  0  0  0  0  0  0  0  0
   10.2571   -1.5867   21.9965 O   0  0  0  0  0  0  0  0  0  0  0  0
    6.1665   -5.8076   22.4659 S   0  0  0  0  0  0  0  0  0  0  0  0
    7.8643   -1.2737   23.0547 H   0  0  0  0  0  0  0  0  0  0  0  0
   10.5407   -4.0760   21.1808 H   0  0  0  0  0  0  0  0  0  0  0  0
    6.1519   -3.0371   23.2519 H   0  0  0  0  0  0  0  0  0  0  0  0
    8.8316   -5.8430   21.3763 H   0  0  0  0  0  0  0  0  0  0  0  0
    7.3893   -4.1211   29.9875 H   0  0  0  0  0  0  0  0  0  0  0  0
    7.3691   -6.4372   29.0683 H   0  0  0  0  0  0  0  0  0  0  0  0
    9.2418   -5.2632   25.6008 H   0  0  0  0  0  0  0  0  0  0  0  0
   14.1876   -0.9499   22.6423 H   0  0  0  0  0  0  0  0  0  0  0  0
   13.0794   -1.0964   21.2546 H   0  0  0  0  0  0  0  0  0  0  0  0
   12.3783   -3.2082   22.3442 H   0  0  0  0  0  0  0  0  0  0  0  0
   12.8953   -2.6350   23.9468 H   0  0  0  0  0  0  0  0  0  0  0  0
   12.4328    0.1602   24.0216 H   0  0  0  0  0  0  0  0  0  0  0  0
   11.7456    0.6177   22.4460 H   0  0  0  0  0  0  0  0  0  0  0  0
    9.3238   -1.7536   29.3235 H   0  0  0  0  0  0  0  0  0  0  0  0
    8.3489   -1.1985   27.9404 H   0  0  0  0  0  0  0  0  0  0  0  0
    7.5451   -1.7374   29.4139 H   0  0  0  0  0  0  0  0  0  0  0  0
    5.9071   -6.2760   24.7756 H   0  0  0  0  0  0  0  0  0  0  0  0
    6.9779   -7.3970   24.0270 H   0  0  0  0  0  0  0  0  0  0  0  0
    9.5002   -1.7087   26.5301 H   0  0  0  0  0  0  0  0  0  0  0  0
   10.4093   -0.7880   24.9938 H   0  0  0  0  0  0  0  0  0  0  0  0
  1  3  2  0  0  0  0
  1 10  1  0  0  0  0
  2  4  1  0  0  0  0
  2 10  2  0  0  0  0
  3 11  1  0  0  0  0
  4 11  2  0  0  0  0
  5  6  2  0  0  0  0
  5  8  1  0  0  0  0
  6 18  1  0  0  0  0
  7  9  1  0  0  0  0
  7 18  2  0  0  0  0
  8  9  2  0  0  0  0
  8 17  1  0  0  0  0
  9 20  1  0  0  0  0
 10 25  1  0  0  0  0
 11 26  1  0  0  0  0
 12 20  1  0  0  0  0
 12 21  1  0  0  0  0
 12 22  2  0  0  0  0
 13 14  1  0  0  0  0
 13 15  1  0  0  0  0
 14 16  1  0  0  0  0
 15 16  1  0  0  0  0
 16 21  1  0  0  0  0
 16 25  1  0  0  0  0
 19 26  1  0  0  0  0
 23 26  2  0  0  0  0
 24 26  2  0  0  0  0
  1 27  1  0  0  0  0
  2 28  1  0  0  0  0
  3 29  1  0  0  0  0
  4 30  1  0  0  0  0
  5 31  1  0  0  0  0
  6 32  1  0  0  0  0
  7 33  1  0  0  0  0
 13 34  1  0  0  0  0
 13 35  1  0  0  0  0
 14 36  1  0  0  0  0
 14 37  1  0  0  0  0
 15 38  1  0  0  0  0
 15 39  1  0  0  0  0
 17 40  1  0  0  0  0
 17 41  1  0  0  0  0
 17 42  1  0  0  0  0
 19 43  1  0  0  0  0
 19 44  1  0  0  0  0
 20 45  1  0  0  0  0
 21 46  1  0  0  0  0
M  END
> <Chemgauss4 Score>
-4.60027694702148

> <Number of Confs>
65

$$$$
CHR-SOS-e96-5
  -OEChem-03242005443D

 49 51  0     0  0  0  0  0  0999 V2000
    9.9533   -2.7061   27.5362 C   0  0  0  0  0  0  0  0  0  0  0  0
   10.3835   -1.9156   26.4705 C   0  0  0  0  0  0  0  0  0  0  0  0
    9.4081   -3.9669   27.2938 C   0  0  0  0  0  0  0  0  0  0  0  0
    4.4630   -3.6679   25.1467 C   0  0  0  0  0  0  0  0  0  0  0  0
    9.7232   -3.6468   24.9200 C   0  0  0  0  0  0  0  0  0  0  0  0
    4.1323   -4.2289   23.9237 C   0  0  0  0  0  0  0  0  0  0  0  0
    5.9562   -3.2830   22.8957 C   0  0  0  0  0  0  0  0  0  0  0  0
   10.2684   -2.3859   25.1624 C   0  0  0  0  0  0  0  0  0  0  0  0
    5.6059   -2.8788   25.2130 C   0  0  0  0  0  0  0  0  0  0  0  0
    6.3723   -2.6775   24.0705 C   0  0  0  0  0  0  0  0  0  0  0  0
    9.2931   -4.4373   25.9857 C   0  0  0  0  0  0  0  0  0  0  0  0
    8.3945   -1.6042   23.0214 C   0  0  0  0  0  0  0  0  0  0  0  0
   12.5747   -0.2080   23.0340 C   0  0  0  0  0  0  0  0  0  0  0  0
   12.2347   -1.3316   22.0618 C   0  0  0  0  0  0  0  0  0  0  0  0
   11.9108   -0.5782   24.3575 C   0  0  0  0  0  0  0  0  0  0  0  0
   11.3845   -2.3269   22.8464 C   0  0  0  0  0  0  0  0  0  0  0  0
   10.7400   -1.5193   23.9954 C   0  0  0  0  0  0  0  0  0  0  0  0
    5.9856   -2.2612   26.5188 C   0  0  0  0  0  0  0  0  0  0  0  0
    9.5309   -0.7111   23.4815 C   0  0  0  0  0  0  0  0  0  0  0  0
    4.8520   -4.0561   22.7924 N   0  0  0  0  0  0  0  0  0  0  0  0
    8.2626   -6.5305   27.2746 N   0  0  0  0  0  0  0  0  0  0  0  0
    7.5435   -1.8834   24.0870 N   0  0  0  0  0  0  0  0  0  0  0  0
    8.2910   -1.9934   21.8628 O   0  0  0  0  0  0  0  0  0  0  0  0
    7.3561   -5.8419   24.9617 O   0  0  0  0  0  0  0  0  0  0  0  0
    9.6494   -6.8716   25.1304 O   0  0  0  0  0  0  0  0  0  0  0  0
    8.6094   -6.0148   25.6830 S   0  0  0  0  0  0  0  0  0  0  0  0
   10.0435   -2.3402   28.5549 H   0  0  0  0  0  0  0  0  0  0  0  0
   10.8080   -0.9350   26.6690 H   0  0  0  0  0  0  0  0  0  0  0  0
    9.0758   -4.5739   28.1317 H   0  0  0  0  0  0  0  0  0  0  0  0
    3.8435   -3.8444   26.0194 H   0  0  0  0  0  0  0  0  0  0  0  0
    9.6344   -4.0123   23.8997 H   0  0  0  0  0  0  0  0  0  0  0  0
    3.2505   -4.8524   23.8190 H   0  0  0  0  0  0  0  0  0  0  0  0
    6.5126   -3.1638   21.9707 H   0  0  0  0  0  0  0  0  0  0  0  0
   13.6563   -0.0867   23.1533 H   0  0  0  0  0  0  0  0  0  0  0  0
   12.1794    0.7432   22.6598 H   0  0  0  0  0  0  0  0  0  0  0  0
   11.6702   -0.9324   21.2115 H   0  0  0  0  0  0  0  0  0  0  0  0
   13.1347   -1.8085   21.6602 H   0  0  0  0  0  0  0  0  0  0  0  0
   12.6428   -1.0997   24.9894 H   0  0  0  0  0  0  0  0  0  0  0  0
   11.5842    0.3089   24.9116 H   0  0  0  0  0  0  0  0  0  0  0  0
   10.6426   -2.8200   22.2088 H   0  0  0  0  0  0  0  0  0  0  0  0
   12.0370   -3.1142   23.2475 H   0  0  0  0  0  0  0  0  0  0  0  0
    6.6425   -2.9350   27.0809 H   0  0  0  0  0  0  0  0  0  0  0  0
    6.5076   -1.3080   26.3695 H   0  0  0  0  0  0  0  0  0  0  0  0
    5.0991   -2.0476   27.1288 H   0  0  0  0  0  0  0  0  0  0  0  0
    9.8531   -0.0860   22.6460 H   0  0  0  0  0  0  0  0  0  0  0  0
    9.1720   -0.0629   24.2839 H   0  0  0  0  0  0  0  0  0  0  0  0
    7.2778   -6.5722   27.5640 H   0  0  0  0  0  0  0  0  0  0  0  0
    8.8457   -7.2737   27.6783 H   0  0  0  0  0  0  0  0  0  0  0  0
    7.7794   -1.4750   24.9890 H   0  0  0  0  0  0  0  0  0  0  0  0
  1  2  2  0  0  0  0
  1  3  1  0  0  0  0
  2  8  1  0  0  0  0
  3 11  2  0  0  0  0
  4  6  2  0  0  0  0
  4  9  1  0  0  0  0
  5  8  2  0  0  0  0
  5 11  1  0  0  0  0
  6 20  1  0  0  0  0
  7 10  1  0  0  0  0
  7 20  2  0  0  0  0
  8 17  1  0  0  0  0
  9 10  2  0  0  0  0
  9 18  1  0  0  0  0
 10 22  1  0  0  0  0
 11 26  1  0  0  0  0
 12 19  1  0  0  0  0
 12 22  1  0  0  0  0
 12 23  2  0  0  0  0
 13 14  1  0  0  0  0
 13 15  1  0  0  0  0
 14 16  1  0  0  0  0
 15 17  1  0  0  0  0
 16 17  1  0  0  0  0
 17 19  1  0  0  0  0
 21 26  1  0  0  0  0
 24 26  2  0  0  0  0
 25 26  2  0  0  0  0
  1 27  1  0  0  0  0
  2 28  1  0  0  0  0
  3 29  1  0  0  0  0
  4 30  1  0  0  0  0
  5 31  1  0  0  0  0
  6 32  1  0  0  0  0
  7 33  1  0  0  0  0
 13 34  1  0  0  0  0
 13 35  1  0  0  0  0
 14 36  1  0  0  0  0
 14 37  1  0  0  0  0
 15 38  1  0  0  0  0
 15 39  1  0  0  0  0
 16 40  1  0  0  0  0
 16 41  1  0  0  0  0
 18 42  1  0  0  0  0
 18 43  1  0  0  0  0
 18 44  1  0  0  0  0
 19 45  1  0  0  0  0
 19 46  1  0  0  0  0
 21 47  1  0  0  0  0
 21 48  1  0  0  0  0
 22 49  1  0  0  0  0
M  END
> <Chemgauss4 Score>
-4.59993743896484

> <Number of Confs>
200

$$$$
AGN-NEW-c7b-5
  -OEChem-03242005443D

 30 31  0     0  0  0  0  0  0999 V2000
    8.6907    0.1162   26.3085 C   0  0  0  0  0  0  0  0  0  0  0  0
    9.5752   -0.1183   25.5311 C   0  0  0  0  0  0  0  0  0  0  0  0
    9.0971   -5.5001   26.8308 C   0  0  0  0  0  0  0  0  0  0  0  0
   12.7259   -0.7698   22.9017 C   0  0  0  0  0  0  0  0  0  0  0  0
    9.1922   -5.0922   25.5003 C   0  0  0  0  0  0  0  0  0  0  0  0
   11.6886   -1.6956   22.9190 C   0  0  0  0  0  0  0  0  0  0  0  0
    7.8473   -5.5993   27.4422 C   0  0  0  0  0  0  0  0  0  0  0  0
    6.7877   -4.8827   25.3926 C   0  0  0  0  0  0  0  0  0  0  0  0
   12.6435    0.3126   23.7627 C   0  0  0  0  0  0  0  0  0  0  0  0
   10.6280   -0.3977   24.6062 C   0  0  0  0  0  0  0  0  0  0  0  0
    8.0375   -4.7835   24.7812 C   0  0  0  0  0  0  0  0  0  0  0  0
   10.6158   -1.5133   23.7846 C   0  0  0  0  0  0  0  0  0  0  0  0
    6.6926   -5.2906   26.7231 C   0  0  0  0  0  0  0  0  0  0  0  0
    9.4340   -3.6059   23.0301 C   0  0  0  0  0  0  0  0  0  0  0  0
    8.1401   -4.3462   23.3590 C   0  0  0  0  0  0  0  0  0  0  0  0
   11.6176    0.5233   24.6176 N   0  0  0  0  0  0  0  0  0  0  0  0
    9.5588   -2.4542   23.8029 N   0  0  0  0  0  0  0  0  0  0  0  0
   10.2193   -4.0216   22.1841 O   0  0  0  0  0  0  0  0  0  0  0  0
    5.1510   -5.4121   27.4783 Cl  0  0  0  0  0  0  0  0  0  0  0  0
    7.9063    0.3239   26.9983 H   0  0  0  0  0  0  0  0  0  0  0  0
    9.9965   -5.7403   27.3904 H   0  0  0  0  0  0  0  0  0  0  0  0
   13.5724   -0.8919   22.2358 H   0  0  0  0  0  0  0  0  0  0  0  0
   10.1702   -5.0176   25.0320 H   0  0  0  0  0  0  0  0  0  0  0  0
   11.7275   -2.5545   22.2541 H   0  0  0  0  0  0  0  0  0  0  0  0
    7.7883   -5.9183   28.4799 H   0  0  0  0  0  0  0  0  0  0  0  0
    5.8903   -4.6413   24.8275 H   0  0  0  0  0  0  0  0  0  0  0  0
   13.4271    1.0626   23.7883 H   0  0  0  0  0  0  0  0  0  0  0  0
    8.0641   -5.2152   22.6846 H   0  0  0  0  0  0  0  0  0  0  0  0
    7.2943   -3.6883   23.0999 H   0  0  0  0  0  0  0  0  0  0  0  0
    8.8017   -2.2673   24.4571 H   0  0  0  0  0  0  0  0  0  0  0  0
  1  2  3  0  0  0  0
  2 10  1  0  0  0  0
  3  5  2  0  0  0  0
  3  7  1  0  0  0  0
  4  6  2  0  0  0  0
  4  9  1  0  0  0  0
  5 11  1  0  0  0  0
  6 12  1  0  0  0  0
  7 13  2  0  0  0  0
  8 11  2  0  0  0  0
  8 13  1  0  0  0  0
  9 16  2  0  0  0  0
 10 12  2  0  0  0  0
 10 16  1  0  0  0  0
 11 15  1  0  0  0  0
 12 17  1  0  0  0  0
 13 19  1  0  0  0  0
 14 15  1  0  0  0  0
 14 17  1  0  0  0  0
 14 18  2  0  0  0  0
  1 20  1  0  0  0  0
  3 21  1  0  0  0  0
  4 22  1  0  0  0  0
  5 23  1  0  0  0  0
  6 24  1  0  0  0  0
  7 25  1  0  0  0  0
  8 26  1  0  0  0  0
  9 27  1  0  0  0  0
 15 28  1  0  0  0  0
 15 29  1  0  0  0  0
 17 30  1  0  0  0  0
M  END
> <Chemgauss4 Score>
-4.59582710266113

> <Number of Confs>
20

$$$$
CHR-SOS-709-10
  -OEChem-03242005443D

 26 27  0     0  0  0  0  0  0999 V2000
    7.2568   -5.7960   26.0080 C   0  0  0  0  0  0  0  0  0  0  0  0
    6.5609   -6.1048   24.8393 C   0  0  0  0  0  0  0  0  0  0  0  0
   12.9744   -0.7251   22.7218 C   0  0  0  0  0  0  0  0  0  0  0  0
    7.4814   -4.1421   23.7726 C   0  0  0  0  0  0  0  0  0  0  0  0
   12.8999    0.3587   23.5818 C   0  0  0  0  0  0  0  0  0  0  0  0
   11.0581   -0.5027   24.6513 C   0  0  0  0  0  0  0  0  0  0  0  0
    8.1772   -3.8332   24.9414 C   0  0  0  0  0  0  0  0  0  0  0  0
   11.0461   -1.6268   23.8412 C   0  0  0  0  0  0  0  0  0  0  0  0
    8.0649   -4.6601   26.0591 C   0  0  0  0  0  0  0  0  0  0  0  0
    6.6732   -5.2779   23.7216 C   0  0  0  0  0  0  0  0  0  0  0  0
   12.0261   -1.7325   22.8605 C   0  0  0  0  0  0  0  0  0  0  0  0
    9.0136   -2.6415   24.9748 C   0  0  0  0  0  0  0  0  0  0  0  0
   11.9628    0.4963   24.5464 N   0  0  0  0  0  0  0  0  0  0  0  0
   10.0525   -2.6197   24.0326 N   0  0  0  0  0  0  0  0  0  0  0  0
    8.8281   -1.7411   25.8037 O   0  0  0  0  0  0  0  0  0  0  0  0
    8.7351   -4.3742   27.2109 O   0  0  0  0  0  0  0  0  0  0  0  0
    5.8163   -5.6601   22.2788 Cl  0  0  0  0  0  0  0  0  0  0  0  0
   12.0998   -3.0922   21.8000 Cl  0  0  0  0  0  0  0  0  0  0  0  0
    7.1650   -6.4436   26.8758 H   0  0  0  0  0  0  0  0  0  0  0  0
    5.9361   -6.9937   24.8136 H   0  0  0  0  0  0  0  0  0  0  0  0
   13.7544   -0.7715   21.9690 H   0  0  0  0  0  0  0  0  0  0  0  0
    7.5697   -3.4951   22.9023 H   0  0  0  0  0  0  0  0  0  0  0  0
   13.6166    1.1709   23.5153 H   0  0  0  0  0  0  0  0  0  0  0  0
   10.3196   -0.3629   25.4350 H   0  0  0  0  0  0  0  0  0  0  0  0
   10.0988   -3.4193   23.4058 H   0  0  0  0  0  0  0  0  0  0  0  0
    9.2539   -3.5619   27.1032 H   0  0  0  0  0  0  0  0  0  0  0  0
  1  2  2  0  0  0  0
  1  9  1  0  0  0  0
  2 10  1  0  0  0  0
  3  5  2  0  0  0  0
  3 11  1  0  0  0  0
  4  7  1  0  0  0  0
  4 10  2  0  0  0  0
  5 13  1  0  0  0  0
  6  8  1  0  0  0  0
  6 13  2  0  0  0  0
  7  9  2  0  0  0  0
  7 12  1  0  0  0  0
  8 11  2  0  0  0  0
  8 14  1  0  0  0  0
  9 16  1  0  0  0  0
 10 17  1  0  0  0  0
 11 18  1  0  0  0  0
 12 14  1  0  0  0  0
 12 15  2  0  0  0  0
  1 19  1  0  0  0  0
  2 20  1  0  0  0  0
  3 21  1  0  0  0  0
  4 22  1  0  0  0  0
  5 23  1  0  0  0  0
  6 24  1  0  0  0  0
 14 25  1  0  0  0  0
 16 26  1  0  0  0  0
M  END
> <Chemgauss4 Score>
-4.59563255310059

> <Number of Confs>
5

$$$$
HAR-NEW-972-2
  -OEChem-03242005443D

 43 45  0     1  0  0  0  0  0999 V2000
   11.3882   -1.6294   23.2427 C   0  0  0  0  0  0  0  0  0  0  0  0
   10.7309   -0.9423   24.2438 C   0  0  0  0  0  0  0  0  0  0  0  0
   10.0842   -3.2331   23.9644 C   0  0  0  0  0  0  0  0  0  0  0  0
    9.0028   -4.6100   27.7438 C   0  0  0  0  0  0  0  0  0  0  0  0
   12.4114   -0.9996   22.3641 C   0  0  0  0  0  0  0  0  0  0  0  0
   10.9737    0.4802   24.6248 C   0  0  0  0  0  0  0  0  0  0  0  0
   12.9033    0.3363   22.9506 C   0  0  0  0  0  0  0  0  0  0  0  0
    7.1239   -5.5627   24.5499 C   0  0  0  0  0  0  0  0  0  0  0  0
    7.9137   -4.5139   23.7768 C   0  0  0  0  0  0  0  0  0  0  0  0
    7.2835   -5.3466   26.0526 C   0  0  0  0  0  0  0  0  0  0  0  0
    9.7082   -5.2598   25.4637 C   0  0  0  0  0  0  0  0  0  0  0  0
    9.4189   -4.5918   24.1031 C   0  0  2  0  0  0  0  0  0  0  0  0
   11.7643    1.2199   23.5168 C   0  0  1  0  0  0  0  0  0  0  0  0
    7.8667   -4.4988   28.7317 C   0  0  0  0  0  0  0  0  0  0  0  0
   10.8337    1.7180   22.4057 C   0  0  0  0  0  0  0  0  0  0  0  0
   11.0135   -2.9464   23.0775 N   0  0  0  0  0  0  0  0  0  0  0  0
    8.6574   -5.0209   26.4535 N   0  0  0  0  0  0  0  0  0  0  0  0
   10.1926    2.9213   22.8171 N   0  0  0  0  0  0  0  0  0  0  0  0
   10.1495   -4.3318   28.1019 O   0  0  0  0  0  0  0  0  0  0  0  0
    9.6135   -1.9624   25.0234 S   0  0  0  0  0  0  0  0  0  0  0  0
    7.2777   -2.8429   28.6375 Cl  0  0  0  0  0  0  0  0  0  0  0  0
   13.2589   -1.6879   22.2652 H   0  0  0  0  0  0  0  0  0  0  0  0
   12.0027   -0.8340   21.3615 H   0  0  0  0  0  0  0  0  0  0  0  0
   10.0025    0.9712   24.7848 H   0  0  0  0  0  0  0  0  0  0  0  0
   11.5274    0.5401   25.5723 H   0  0  0  0  0  0  0  0  0  0  0  0
   13.6497    0.1274   23.7358 H   0  0  0  0  0  0  0  0  0  0  0  0
   13.4393    0.9000   22.1657 H   0  0  0  0  0  0  0  0  0  0  0  0
    6.0682   -5.5051   24.2795 H   0  0  0  0  0  0  0  0  0  0  0  0
    7.4792   -6.5616   24.2857 H   0  0  0  0  0  0  0  0  0  0  0  0
    7.7541   -4.6509   22.6987 H   0  0  0  0  0  0  0  0  0  0  0  0
    7.5282   -3.5136   24.0223 H   0  0  0  0  0  0  0  0  0  0  0  0
    6.6438   -4.5095   26.3887 H   0  0  0  0  0  0  0  0  0  0  0  0
    6.9237   -6.2403   26.5927 H   0  0  0  0  0  0  0  0  0  0  0  0
    9.8877   -6.3379   25.3108 H   0  0  0  0  0  0  0  0  0  0  0  0
   10.6499   -4.8677   25.8956 H   0  0  0  0  0  0  0  0  0  0  0  0
    9.8982   -5.2361   23.3049 H   0  0  0  0  0  0  0  0  0  0  0  0
   12.2387    2.1116   23.9770 H   0  0  0  0  0  0  0  0  0  0  0  0
    8.2450   -4.7032   29.7268 H   0  0  0  0  0  0  0  0  0  0  0  0
    7.0826   -5.1899   28.4446 H   0  0  0  0  0  0  0  0  0  0  0  0
   11.4482    1.8927   21.5242 H   0  0  0  0  0  0  0  0  0  0  0  0
   10.0996    0.9348   22.2244 H   0  0  0  0  0  0  0  0  0  0  0  0
    9.1948    2.8078   22.7952 H   0  0  0  0  0  0  0  0  0  0  0  0
   10.4701    3.1591   23.7527 H   0  0  0  0  0  0  0  0  0  0  0  0
  1  2  2  0  0  0  0
  1  5  1  0  0  0  0
  1 16  1  0  0  0  0
  2  6  1  0  0  0  0
  2 20  1  0  0  0  0
  3 12  1  1  0  0  0
  3 16  2  0  0  0  0
  3 20  1  0  0  0  0
  4 14  1  0  0  0  0
  4 17  1  0  0  0  0
  4 19  2  0  0  0  0
  5  7  1  0  0  0  0
  6 13  1  0  0  0  0
  7 13  1  0  0  0  0
  8  9  1  0  0  0  0
  8 10  1  0  0  0  0
  9 12  1  0  0  0  0
 10 17  1  0  0  0  0
 11 12  1  0  0  0  0
 11 17  1  0  0  0  0
 13 15  1  1  0  0  0
 14 21  1  0  0  0  0
 15 18  1  0  0  0  0
  5 22  1  0  0  0  0
  5 23  1  0  0  0  0
  6 24  1  0  0  0  0
  6 25  1  0  0  0  0
  7 26  1  0  0  0  0
  7 27  1  0  0  0  0
  8 28  1  0  0  0  0
  8 29  1  0  0  0  0
  9 30  1  0  0  0  0
  9 31  1  0  0  0  0
 10 32  1  0  0  0  0
 10 33  1  0  0  0  0
 11 34  1  0  0  0  0
 11 35  1  0  0  0  0
 12 36  1  0  0  0  0
 13 37  1  0  0  0  0
 14 38  1  0  0  0  0
 14 39  1  0  0  0  0
 15 40  1  0  0  0  0
 15 41  1  0  0  0  0
 18 42  1  0  0  0  0
 18 43  1  0  0  0  0
M  END
> <Chemgauss4 Score>
-4.59216117858887

> <Number of Confs>
200

$$$$
DAR-DIA-fc9-9
  -OEChem-03242005443D

 32 33  0     0  0  0  0  0  0999 V2000
   12.7842   -0.3923   22.6615 C   0  0  0  0  0  0  0  0  0  0  0  0
   12.1727    0.0525   23.8336 C   0  0  0  0  0  0  0  0  0  0  0  0
   12.1848   -1.3950   21.8993 C   0  0  0  0  0  0  0  0  0  0  0  0
   10.0045   -4.0545   27.1051 C   0  0  0  0  0  0  0  0  0  0  0  0
   10.9619   -0.5055   24.2436 C   0  0  0  0  0  0  0  0  0  0  0  0
   10.9739   -1.9530   22.3092 C   0  0  0  0  0  0  0  0  0  0  0  0
    9.5360   -3.9422   25.8008 C   0  0  0  0  0  0  0  0  0  0  0  0
    9.0714   -4.2000   28.1190 C   0  0  0  0  0  0  0  0  0  0  0  0
    7.3173   -4.1273   26.6371 C   0  0  0  0  0  0  0  0  0  0  0  0
   10.3624   -1.5082   23.4814 C   0  0  0  0  0  0  0  0  0  0  0  0
    8.1682   -3.9782   25.5537 C   0  0  0  0  0  0  0  0  0  0  0  0
    6.4326   -4.5100   23.8917 C   0  0  0  0  0  0  0  0  0  0  0  0
    8.3936   -3.0798   23.2651 C   0  0  0  0  0  0  0  0  0  0  0  0
    5.9820   -4.3767   22.4538 C   0  0  0  0  0  0  0  0  0  0  0  0
    7.7351   -4.2394   27.9179 N   0  0  0  0  0  0  0  0  0  0  0  0
    9.1346   -2.0737   23.8972 N   0  0  0  0  0  0  0  0  0  0  0  0
    7.6491   -3.8634   24.2054 N   0  0  0  0  0  0  0  0  0  0  0  0
    5.7711   -5.1898   24.6792 O   0  0  0  0  0  0  0  0  0  0  0  0
    8.3808   -3.3096   22.0554 O   0  0  0  0  0  0  0  0  0  0  0  0
   13.7267    0.0425   22.3415 H   0  0  0  0  0  0  0  0  0  0  0  0
   12.6387    0.8337   24.4268 H   0  0  0  0  0  0  0  0  0  0  0  0
   12.6607   -1.7404   20.9861 H   0  0  0  0  0  0  0  0  0  0  0  0
   11.0664   -4.0290   27.3210 H   0  0  0  0  0  0  0  0  0  0  0  0
   10.4945   -0.1508   25.1588 H   0  0  0  0  0  0  0  0  0  0  0  0
   10.5159   -2.7338   21.7071 H   0  0  0  0  0  0  0  0  0  0  0  0
   10.2449   -3.8270   24.9851 H   0  0  0  0  0  0  0  0  0  0  0  0
    9.3857   -4.2908   29.1535 H   0  0  0  0  0  0  0  0  0  0  0  0
    6.2397   -4.1627   26.5078 H   0  0  0  0  0  0  0  0  0  0  0  0
    6.3992   -5.2086   21.8780 H   0  0  0  0  0  0  0  0  0  0  0  0
    6.3513   -3.4371   22.0355 H   0  0  0  0  0  0  0  0  0  0  0  0
    4.8939   -4.4233   22.3617 H   0  0  0  0  0  0  0  0  0  0  0  0
    8.7423   -1.7051   24.7597 H   0  0  0  0  0  0  0  0  0  0  0  0
  1  2  1  0  0  0  0
  1  3  2  0  0  0  0
  2  5  2  0  0  0  0
  3  6  1  0  0  0  0
  4  7  2  0  0  0  0
  4  8  1  0  0  0  0
  5 10  1  0  0  0  0
  6 10  2  0  0  0  0
  7 11  1  0  0  0  0
  8 15  2  0  0  0  0
  9 11  2  0  0  0  0
  9 15  1  0  0  0  0
 10 16  1  0  0  0  0
 11 17  1  0  0  0  0
 12 14  1  0  0  0  0
 12 17  1  0  0  0  0
 12 18  2  0  0  0  0
 13 16  1  0  0  0  0
 13 17  1  0  0  0  0
 13 19  2  0  0  0  0
  1 20  1  0  0  0  0
  2 21  1  0  0  0  0
  3 22  1  0  0  0  0
  4 23  1  0  0  0  0
  5 24  1  0  0  0  0
  6 25  1  0  0  0  0
  7 26  1  0  0  0  0
  8 27  1  0  0  0  0
  9 28  1  0  0  0  0
 14 29  1  0  0  0  0
 14 30  1  0  0  0  0
 14 31  1  0  0  0  0
 16 32  1  0  0  0  0
M  END
> <Chemgauss4 Score>
-4.58622646331787

> <Number of Confs>
14

$$$$
ADA-UNI-f8e-12
  -OEChem-03242005443D

 40 42  0     1  0  0  0  0  0999 V2000
   12.1295   -1.1659   22.3795 C   0  0  0  0  0  0  0  0  0  0  0  0
    8.8353   -6.3449   28.4176 C   0  0  0  0  0  0  0  0  0  0  0  0
   10.9734   -1.9401   22.4767 C   0  0  0  0  0  0  0  0  0  0  0  0
    8.9382   -5.6206   27.2352 C   0  0  0  0  0  0  0  0  0  0  0  0
   12.5995   -0.4712   23.4942 C   0  0  0  0  0  0  0  0  0  0  0  0
   10.7569   -1.3249   24.8030 C   0  0  0  0  0  0  0  0  0  0  0  0
    8.3604   -5.6879   29.5413 C   0  0  0  0  0  0  0  0  0  0  0  0
    8.1053   -3.7159   28.3905 C   0  0  0  0  0  0  0  0  0  0  0  0
   10.2870   -2.0196   23.6884 C   0  0  0  0  0  0  0  0  0  0  0  0
    8.5684   -4.2804   27.2129 C   0  0  0  0  0  0  0  0  0  0  0  0
   11.9132   -0.5507   24.7059 C   0  0  0  0  0  0  0  0  0  0  0  0
    9.1034   -3.9441   24.7788 C   0  0  0  0  0  0  0  0  0  0  0  0
    8.2639   -3.0996   22.5111 C   0  0  0  0  0  0  0  0  0  0  0  0
    7.7166   -2.1505   23.5315 C   0  0  2  0  0  0  0  0  0  0  0  0
    9.0520   -2.8468   23.7917 C   0  0  2  0  0  0  0  0  0  0  0  0
    5.8804   -0.3827   25.2430 C   0  0  0  0  0  0  0  0  0  0  0  0
    6.4774   -2.5004   24.2839 C   0  0  0  0  0  0  0  0  0  0  0  0
    7.9914   -4.3875   29.5583 N   0  0  0  0  0  0  0  0  0  0  0  0
    8.6622   -3.5173   26.0249 N   0  0  0  0  0  0  0  0  0  0  0  0
    6.3748   -1.7371   25.4966 N   0  0  0  0  0  0  0  0  0  0  0  0
    9.4954   -5.0610   24.4566 O   0  0  0  0  0  0  0  0  0  0  0  0
   12.4935    0.3066   26.0807 Cl  0  0  0  0  0  0  0  0  0  0  0  0
   12.6639   -1.1040   21.4360 H   0  0  0  0  0  0  0  0  0  0  0  0
    9.1178   -7.3906   28.4581 H   0  0  0  0  0  0  0  0  0  0  0  0
   10.6154   -2.4776   21.6025 H   0  0  0  0  0  0  0  0  0  0  0  0
    9.3075   -6.1098   26.3377 H   0  0  0  0  0  0  0  0  0  0  0  0
   13.5018    0.1280   23.4036 H   0  0  0  0  0  0  0  0  0  0  0  0
   10.2185   -1.3898   25.7460 H   0  0  0  0  0  0  0  0  0  0  0  0
    8.2622   -6.2084   30.4882 H   0  0  0  0  0  0  0  0  0  0  0  0
    7.8014   -2.6743   28.4359 H   0  0  0  0  0  0  0  0  0  0  0  0
    7.7794   -4.0617   22.3864 H   0  0  0  0  0  0  0  0  0  0  0  0
    8.6316   -2.6788   21.5815 H   0  0  0  0  0  0  0  0  0  0  0  0
    7.7363   -1.0930   23.2886 H   0  0  0  0  0  0  0  0  0  0  0  0
    6.5550    0.1289   24.5407 H   0  0  0  0  0  0  0  0  0  0  0  0
    4.8712   -0.4362   24.8088 H   0  0  0  0  0  0  0  0  0  0  0  0
    5.8433    0.1770   26.1892 H   0  0  0  0  0  0  0  0  0  0  0  0
    5.6025   -2.2897   23.6515 H   0  0  0  0  0  0  0  0  0  0  0  0
    6.5002   -3.5712   24.5340 H   0  0  0  0  0  0  0  0  0  0  0  0
    8.3689   -2.5460   26.1064 H   0  0  0  0  0  0  0  0  0  0  0  0
    5.7329   -2.1964   26.1527 H   0  0  0  0  0  0  0  0  0  0  0  0
  1  3  2  0  0  0  0
  1  5  1  0  0  0  0
  2  4  2  0  0  0  0
  2  7  1  0  0  0  0
  3  9  1  0  0  0  0
  4 10  1  0  0  0  0
  5 11  2  0  0  0  0
  6  9  2  0  0  0  0
  6 11  1  0  0  0  0
  7 18  2  0  0  0  0
  8 10  2  0  0  0  0
  8 18  1  0  0  0  0
  9 15  1  0  0  0  0
 10 19  1  0  0  0  0
 11 22  1  0  0  0  0
 12 15  1  6  0  0  0
 12 19  1  0  0  0  0
 12 21  2  0  0  0  0
 13 14  1  0  0  0  0
 13 15  1  0  0  0  0
 14 15  1  0  0  0  0
 14 17  1  1  0  0  0
 16 20  1  0  0  0  0
 17 20  1  0  0  0  0
  1 23  1  0  0  0  0
  2 24  1  0  0  0  0
  3 25  1  0  0  0  0
  4 26  1  0  0  0  0
  5 27  1  0  0  0  0
  6 28  1  0  0  0  0
  7 29  1  0  0  0  0
  8 30  1  0  0  0  0
 13 31  1  0  0  0  0
 13 32  1  0  0  0  0
 14 33  1  0  0  0  0
 16 34  1  0  0  0  0
 16 35  1  0  0  0  0
 16 36  1  0  0  0  0
 17 37  1  0  0  0  0
 17 38  1  0  0  0  0
 19 39  1  0  0  0  0
 20 40  1  0  0  0  0
M  END
> <Chemgauss4 Score>
-4.58408355712891

> <Number of Confs>
130

$$$$
GIA-UNK-995-4
  -OEChem-03242005443D

 35 36  0     0  0  0  0  0  0999 V2000
   10.7313   -1.1841   24.1279 C   0  0  0  0  0  0  0  0  0  0  0  0
    7.8643   -5.0157   25.9053 C   0  0  0  0  0  0  0  0  0  0  0  0
   13.4113   -1.3439   21.8450 C   0  0  0  0  0  0  0  0  0  0  0  0
   12.4651   -0.2496   22.3730 C   0  0  0  0  0  0  0  0  0  0  0  0
   12.7606   -2.2983   22.8637 C   0  0  0  0  0  0  0  0  0  0  0  0
    7.7997   -2.5452   25.6164 C   0  0  0  0  0  0  0  0  0  0  0  0
    8.5569   -4.0428   23.7068 C   0  0  0  0  0  0  0  0  0  0  0  0
    9.2638   -2.1789   25.8534 C   0  0  0  0  0  0  0  0  0  0  0  0
    9.9972   -3.6148   23.9914 C   0  0  0  0  0  0  0  0  0  0  0  0
   11.5079   -1.3839   22.8240 C   0  0  0  0  0  0  0  0  0  0  0  0
    7.6378   -3.9023   24.9244 C   0  0  0  0  0  0  0  0  0  0  0  0
    7.1462   -6.0432   28.3446 C   0  0  0  0  0  0  0  0  0  0  0  0
   10.0327   -2.2883   24.6144 N   0  0  0  0  0  0  0  0  0  0  0  0
   10.7535   -0.0808   24.6796 O   0  0  0  0  0  0  0  0  0  0  0  0
    8.9556   -5.5465   26.0734 O   0  0  0  0  0  0  0  0  0  0  0  0
    7.8510   -5.0254   28.9070 F   0  0  0  0  0  0  0  0  0  0  0  0
    6.4146   -5.4847   26.7926 S   0  0  0  0  0  0  0  0  0  0  0  0
   13.2260   -1.6207   20.8009 H   0  0  0  0  0  0  0  0  0  0  0  0
   14.4792   -1.1571   21.9816 H   0  0  0  0  0  0  0  0  0  0  0  0
   12.8867    0.3407   23.1954 H   0  0  0  0  0  0  0  0  0  0  0  0
   12.0665    0.4316   21.6163 H   0  0  0  0  0  0  0  0  0  0  0  0
   12.6081   -3.3235   22.5155 H   0  0  0  0  0  0  0  0  0  0  0  0
   13.2711   -2.3248   23.8338 H   0  0  0  0  0  0  0  0  0  0  0  0
    7.2670   -2.5384   26.5750 H   0  0  0  0  0  0  0  0  0  0  0  0
    7.3387   -1.7695   24.9914 H   0  0  0  0  0  0  0  0  0  0  0  0
    8.1623   -3.4216   22.8924 H   0  0  0  0  0  0  0  0  0  0  0  0
    8.5542   -5.0783   23.3456 H   0  0  0  0  0  0  0  0  0  0  0  0
    9.3266   -1.1661   26.2635 H   0  0  0  0  0  0  0  0  0  0  0  0
    9.7209   -2.8539   26.5863 H   0  0  0  0  0  0  0  0  0  0  0  0
   10.4801   -4.3123   24.6854 H   0  0  0  0  0  0  0  0  0  0  0  0
   10.5712   -3.6433   23.0635 H   0  0  0  0  0  0  0  0  0  0  0  0
   10.8116   -1.6749   22.0284 H   0  0  0  0  0  0  0  0  0  0  0  0
    6.5963   -4.0054   24.5952 H   0  0  0  0  0  0  0  0  0  0  0  0
    7.8348   -6.8744   28.1725 H   0  0  0  0  0  0  0  0  0  0  0  0
    6.3706   -6.3466   29.0526 H   0  0  0  0  0  0  0  0  0  0  0  0
  1 10  1  0  0  0  0
  1 13  1  0  0  0  0
  1 14  2  0  0  0  0
  2 11  1  0  0  0  0
  2 15  2  0  0  0  0
  2 17  1  0  0  0  0
  3  4  1  0  0  0  0
  3  5  1  0  0  0  0
  4 10  1  0  0  0  0
  5 10  1  0  0  0  0
  6  8  1  0  0  0  0
  6 11  1  0  0  0  0
  7  9  1  0  0  0  0
  7 11  1  0  0  0  0
  8 13  1  0  0  0  0
  9 13  1  0  0  0  0
 12 16  1  0  0  0  0
 12 17  1  0  0  0  0
  3 18  1  0  0  0  0
  3 19  1  0  0  0  0
  4 20  1  0  0  0  0
  4 21  1  0  0  0  0
  5 22  1  0  0  0  0
  5 23  1  0  0  0  0
  6 24  1  0  0  0  0
  6 25  1  0  0  0  0
  7 26  1  0  0  0  0
  7 27  1  0  0  0  0
  8 28  1  0  0  0  0
  8 29  1  0  0  0  0
  9 30  1  0  0  0  0
  9 31  1  0  0  0  0
 10 32  1  0  0  0  0
 11 33  1  0  0  0  0
 12 34  1  0  0  0  0
 12 35  1  0  0  0  0
M  END
> <Chemgauss4 Score>
-4.58378314971924

> <Number of Confs>
200

$$$$
DAN-LON-a5f-1
  -OEChem-03242005443D

 47 49  0     1  0  0  0  0  0999 V2000
   12.7330   -0.0590   22.8201 C   0  0  0  0  0  0  0  0  0  0  0  0
   12.9396   -1.3868   22.4463 C   0  0  0  0  0  0  0  0  0  0  0  0
   11.8870    0.2416   23.8876 C   0  0  0  0  0  0  0  0  0  0  0  0
    6.1498   -0.9040   20.2852 C   0  0  0  0  0  0  0  0  0  0  0  0
   12.3000   -2.4141   23.1400 C   0  0  0  0  0  0  0  0  0  0  0  0
   11.2474   -0.7857   24.5813 C   0  0  0  0  0  0  0  0  0  0  0  0
    6.5829   -2.0266   20.9906 C   0  0  0  0  0  0  0  0  0  0  0  0
    7.0307    0.1501   20.0428 C   0  0  0  0  0  0  0  0  0  0  0  0
    8.7778   -1.0412   21.2113 C   0  0  0  0  0  0  0  0  0  0  0  0
   11.4539   -2.1136   24.2075 C   0  0  0  0  0  0  0  0  0  0  0  0
    7.8969   -2.0953   21.4537 C   0  0  0  0  0  0  0  0  0  0  0  0
    8.3447    0.0815   20.5059 C   0  0  0  0  0  0  0  0  0  0  0  0
    9.0044   -4.0173   27.7028 C   0  0  0  0  0  0  0  0  0  0  0  0
    7.7708   -4.6467   25.6778 C   0  0  0  0  0  0  0  0  0  0  0  0
    7.8991   -4.6590   24.1589 C   0  0  0  0  0  0  0  0  0  0  0  0
    8.4569   -2.2749   24.4202 C   0  0  0  0  0  0  0  0  0  0  0  0
    9.4160   -2.7610   25.5223 C   0  0  2  0  0  0  0  0  0  0  0  0
   10.7642   -3.2201   24.9553 C   0  0  0  0  0  0  0  0  0  0  0  0
    8.3620   -3.3035   22.2139 C   0  0  0  0  0  0  0  0  0  0  0  0
   10.0307   -3.1340   28.3680 C   0  0  0  0  0  0  0  0  0  0  0  0
    8.7821   -3.8176   26.3370 N   0  0  0  0  0  0  0  0  0  0  0  0
    7.8563   -3.3157   23.5816 N   0  0  1  0  0  0  0  0  0  0  0  0
    8.3971   -4.8512   28.3809 O   0  0  0  0  0  0  0  0  0  0  0  0
    9.4307    1.3827   20.2075 Cl  0  0  0  0  0  0  0  0  0  0  0  0
    9.1774   -1.6964   28.9187 Cl  0  0  0  0  0  0  0  0  0  0  0  0
   13.2322    0.7408   22.2807 H   0  0  0  0  0  0  0  0  0  0  0  0
   13.5992   -1.6211   21.6159 H   0  0  0  0  0  0  0  0  0  0  0  0
   11.7268    1.2753   24.1795 H   0  0  0  0  0  0  0  0  0  0  0  0
    5.1265   -0.8508   19.9249 H   0  0  0  0  0  0  0  0  0  0  0  0
   12.4667   -3.4459   22.8417 H   0  0  0  0  0  0  0  0  0  0  0  0
   10.5899   -0.5420   25.4116 H   0  0  0  0  0  0  0  0  0  0  0  0
    5.8897   -2.8432   21.1750 H   0  0  0  0  0  0  0  0  0  0  0  0
    6.6792    1.0190   19.4919 H   0  0  0  0  0  0  0  0  0  0  0  0
    9.8014   -1.0998   21.5740 H   0  0  0  0  0  0  0  0  0  0  0  0
    6.7469   -4.3552   25.9599 H   0  0  0  0  0  0  0  0  0  0  0  0
    7.9083   -5.6688   26.0774 H   0  0  0  0  0  0  0  0  0  0  0  0
    8.8306   -5.1759   23.9047 H   0  0  0  0  0  0  0  0  0  0  0  0
    7.0747   -5.2376   23.7316 H   0  0  0  0  0  0  0  0  0  0  0  0
    7.6419   -1.6814   24.9206 H   0  0  0  0  0  0  0  0  0  0  0  0
    8.9634   -1.5081   23.7641 H   0  0  0  0  0  0  0  0  0  0  0  0
    9.6052   -1.9202   26.2110 H   0  0  0  0  0  0  0  0  0  0  0  0
   10.6058   -4.0776   24.2947 H   0  0  0  0  0  0  0  0  0  0  0  0
   11.3994   -3.5731   25.7730 H   0  0  0  0  0  0  0  0  0  0  0  0
    8.0256   -4.2225   21.7217 H   0  0  0  0  0  0  0  0  0  0  0  0
    9.4554   -3.3413   22.2610 H   0  0  0  0  0  0  0  0  0  0  0  0
   10.7859   -2.8620   27.6393 H   0  0  0  0  0  0  0  0  0  0  0  0
   10.4541   -3.6627   29.2144 H   0  0  0  0  0  0  0  0  0  0  0  0
  1  2  1  0  0  0  0
  1  3  2  0  0  0  0
  2  5  2  0  0  0  0
  3  6  1  0  0  0  0
  4  7  2  0  0  0  0
  4  8  1  0  0  0  0
  5 10  1  0  0  0  0
  6 10  2  0  0  0  0
  7 11  1  0  0  0  0
  8 12  2  0  0  0  0
  9 11  2  0  0  0  0
  9 12  1  0  0  0  0
 10 18  1  0  0  0  0
 11 19  1  0  0  0  0
 12 24  1  0  0  0  0
 13 20  1  0  0  0  0
 13 21  1  0  0  0  0
 13 23  2  0  0  0  0
 14 15  1  0  0  0  0
 14 21  1  0  0  0  0
 15 22  1  0  0  0  0
 16 17  1  0  0  0  0
 16 22  1  0  0  0  0
 17 18  1  0  0  0  0
 17 21  1  0  0  0  0
 19 22  1  6  0  0  0
 20 25  1  0  0  0  0
  1 26  1  0  0  0  0
  2 27  1  0  0  0  0
  3 28  1  0  0  0  0
  4 29  1  0  0  0  0
  5 30  1  0  0  0  0
  6 31  1  0  0  0  0
  7 32  1  0  0  0  0
  8 33  1  0  0  0  0
  9 34  1  0  0  0  0
 14 35  1  0  0  0  0
 14 36  1  0  0  0  0
 15 37  1  0  0  0  0
 15 38  1  0  0  0  0
 16 39  1  0  0  0  0
 16 40  1  0  0  0  0
 17 41  1  1  0  0  0
 18 42  1  0  0  0  0
 18 43  1  0  0  0  0
 19 44  1  0  0  0  0
 19 45  1  0  0  0  0
 20 46  1  0  0  0  0
 20 47  1  0  0  0  0
M  END
> <Chemgauss4 Score>
-4.58169937133789

> <Number of Confs>
200

$$$$
JOH-MSK-35a-1
  -OEChem-03242005443D

 33 34  0     0  0  0  0  0  0999 V2000
    9.6763   -4.8121   26.9425 C   0  0  0  0  0  0  0  0  0  0  0  0
    8.6805   -4.0553   27.5665 C   0  0  0  0  0  0  0  0  0  0  0  0
    7.9882   -3.1070   25.4408 C   0  0  0  0  0  0  0  0  0  0  0  0
   10.4440   -4.8906   23.4040 C   0  0  0  0  0  0  0  0  0  0  0  0
    8.9852   -3.8603   24.7897 C   0  0  0  0  0  0  0  0  0  0  0  0
    9.4001   -3.9950   23.4352 C   0  0  0  0  0  0  0  0  0  0  0  0
    9.8046   -4.6938   25.5540 C   0  0  0  0  0  0  0  0  0  0  0  0
    7.8483   -3.2153   26.8292 C   0  0  0  0  0  0  0  0  0  0  0  0
   11.5326   -1.5373   23.0615 C   0  0  0  0  0  0  0  0  0  0  0  0
   12.9690   -1.4051   22.6773 C   0  0  0  0  0  0  0  0  0  0  0  0
    6.0667   -1.6496   26.6559 C   0  0  0  0  0  0  0  0  0  0  0  0
    8.8212   -3.3040   22.2655 C   0  0  0  0  0  0  0  0  0  0  0  0
    9.2438   -1.8294   22.1348 C   0  0  0  0  0  0  0  0  0  0  0  0
   10.6805   -5.3068   24.6867 N   0  0  0  0  0  0  0  0  0  0  0  0
   10.6674   -1.6844   21.9892 N   0  0  0  0  0  0  0  0  0  0  0  0
   11.2191   -1.5108   24.2459 O   0  0  0  0  0  0  0  0  0  0  0  0
    6.8856   -2.4902   27.4658 O   0  0  0  0  0  0  0  0  0  0  0  0
   10.3240   -5.4654   27.5176 H   0  0  0  0  0  0  0  0  0  0  0  0
    8.5601   -4.1276   28.6450 H   0  0  0  0  0  0  0  0  0  0  0  0
    7.3342   -2.4497   24.8743 H   0  0  0  0  0  0  0  0  0  0  0  0
   11.0401   -5.2695   22.5855 H   0  0  0  0  0  0  0  0  0  0  0  0
   13.2665   -0.3564   22.5167 H   0  0  0  0  0  0  0  0  0  0  0  0
   13.6493   -1.7848   23.4564 H   0  0  0  0  0  0  0  0  0  0  0  0
   13.2608   -1.9335   21.7556 H   0  0  0  0  0  0  0  0  0  0  0  0
    5.3419   -1.1288   27.2865 H   0  0  0  0  0  0  0  0  0  0  0  0
    5.5471   -2.2555   25.9093 H   0  0  0  0  0  0  0  0  0  0  0  0
    6.6999   -0.9164   26.1507 H   0  0  0  0  0  0  0  0  0  0  0  0
    7.7147   -3.3366   22.3138 H   0  0  0  0  0  0  0  0  0  0  0  0
    9.0728   -3.8289   21.3217 H   0  0  0  0  0  0  0  0  0  0  0  0
    8.7877   -1.3668   21.2539 H   0  0  0  0  0  0  0  0  0  0  0  0
    8.9419   -1.2551   23.0169 H   0  0  0  0  0  0  0  0  0  0  0  0
   11.3950   -5.9678   24.9586 H   0  0  0  0  0  0  0  0  0  0  0  0
   11.0599   -1.6901   21.0490 H   0  0  0  0  0  0  0  0  0  0  0  0
  1  2  2  0  0  0  0
  1  7  1  0  0  0  0
  2  8  1  0  0  0  0
  3  5  1  0  0  0  0
  3  8  2  0  0  0  0
  4  6  2  0  0  0  0
  4 14  1  0  0  0  0
  5  6  1  0  0  0  0
  5  7  2  0  0  0  0
  6 12  1  0  0  0  0
  7 14  1  0  0  0  0
  8 17  1  0  0  0  0
  9 10  1  0  0  0  0
  9 15  1  0  0  0  0
  9 16  2  0  0  0  0
 11 17  1  0  0  0  0
 12 13  1  0  0  0  0
 13 15  1  0  0  0  0
  1 18  1  0  0  0  0
  2 19  1  0  0  0  0
  3 20  1  0  0  0  0
  4 21  1  0  0  0  0
 10 22  1  0  0  0  0
 10 23  1  0  0  0  0
 10 24  1  0  0  0  0
 11 25  1  0  0  0  0
 11 26  1  0  0  0  0
 11 27  1  0  0  0  0
 12 28  1  0  0  0  0
 12 29  1  0  0  0  0
 13 30  1  0  0  0  0
 13 31  1  0  0  0  0
 14 32  1  0  0  0  0
 15 33  1  0  0  0  0
M  END
> <Chemgauss4 Score>
-4.58027744293213

> <Number of Confs>
74

$$$$
ANT-DIA-3c7-1
  -OEChem-03242005443D

 33 35  0     0  0  0  0  0  0999 V2000
   10.9008   -0.2649   25.9100 C   0  0  0  0  0  0  0  0  0  0  0  0
   13.1388   -0.4596   22.9513 C   0  0  0  0  0  0  0  0  0  0  0  0
   12.2922   -1.0241   21.9973 C   0  0  0  0  0  0  0  0  0  0  0  0
    9.9352   -5.4783   25.1324 C   0  0  0  0  0  0  0  0  0  0  0  0
   12.6695   -0.2127   24.2414 C   0  0  0  0  0  0  0  0  0  0  0  0
    9.2197   -4.3882   24.6403 C   0  0  0  0  0  0  0  0  0  0  0  0
   10.9761   -1.3415   22.3334 C   0  0  0  0  0  0  0  0  0  0  0  0
    9.2491   -6.4752   25.8130 C   0  0  0  0  0  0  0  0  0  0  0  0
    5.6096   -4.0170   25.0519 C   0  0  0  0  0  0  0  0  0  0  0  0
   11.3535   -0.5301   24.5775 C   0  0  0  0  0  0  0  0  0  0  0  0
    7.8335   -4.3594   24.8625 C   0  0  0  0  0  0  0  0  0  0  0  0
    6.7703   -3.4731   24.5454 C   0  0  0  0  0  0  0  0  0  0  0  0
   10.5068   -1.0945   23.6235 C   0  0  0  0  0  0  0  0  0  0  0  0
    7.2745   -5.4259   25.5607 C   0  0  0  0  0  0  0  0  0  0  0  0
    8.2149   -1.9921   23.0883 C   0  0  0  0  0  0  0  0  0  0  0  0
    6.8776   -2.1982   23.8082 C   0  0  0  0  0  0  0  0  0  0  0  0
   10.5338   -0.0500   26.9898 N   0  0  0  0  0  0  0  0  0  0  0  0
    7.9180   -6.4998   26.0562 N   0  0  0  0  0  0  0  0  0  0  0  0
    5.9272   -5.2008   25.6658 N   0  0  0  0  0  0  0  0  0  0  0  0
    9.1667   -1.4276   23.9336 N   0  0  0  0  0  0  0  0  0  0  0  0
    8.3598   -2.3065   21.9113 O   0  0  0  0  0  0  0  0  0  0  0  0
   14.1635   -0.2126   22.6894 H   0  0  0  0  0  0  0  0  0  0  0  0
   12.6577   -1.2165   20.9928 H   0  0  0  0  0  0  0  0  0  0  0  0
   11.0079   -5.5454   24.9859 H   0  0  0  0  0  0  0  0  0  0  0  0
   13.3430    0.2277   24.9730 H   0  0  0  0  0  0  0  0  0  0  0  0
    9.7255   -3.5924   24.1032 H   0  0  0  0  0  0  0  0  0  0  0  0
   10.3264   -1.7811   21.5807 H   0  0  0  0  0  0  0  0  0  0  0  0
    9.7906   -7.3331   26.2029 H   0  0  0  0  0  0  0  0  0  0  0  0
    4.5860   -3.6692   25.0308 H   0  0  0  0  0  0  0  0  0  0  0  0
    6.0771   -2.1096   23.0477 H   0  0  0  0  0  0  0  0  0  0  0  0
    6.7303   -1.3345   24.4860 H   0  0  0  0  0  0  0  0  0  0  0  0
    5.2690   -5.8135   26.1269 H   0  0  0  0  0  0  0  0  0  0  0  0
    8.8633   -1.2317   24.8853 H   0  0  0  0  0  0  0  0  0  0  0  0
  1 10  1  0  0  0  0
  1 17  3  0  0  0  0
  2  3  1  0  0  0  0
  2  5  2  0  0  0  0
  3  7  2  0  0  0  0
  4  6  2  0  0  0  0
  4  8  1  0  0  0  0
  5 10  1  0  0  0  0
  6 11  1  0  0  0  0
  7 13  1  0  0  0  0
  8 18  2  0  0  0  0
  9 12  2  0  0  0  0
  9 19  1  0  0  0  0
 10 13  2  0  0  0  0
 11 12  1  0  0  0  0
 11 14  2  0  0  0  0
 12 16  1  0  0  0  0
 13 20  1  0  0  0  0
 14 18  1  0  0  0  0
 14 19  1  0  0  0  0
 15 16  1  0  0  0  0
 15 20  1  0  0  0  0
 15 21  2  0  0  0  0
  2 22  1  0  0  0  0
  3 23  1  0  0  0  0
  4 24  1  0  0  0  0
  5 25  1  0  0  0  0
  6 26  1  0  0  0  0
  7 27  1  0  0  0  0
  8 28  1  0  0  0  0
  9 29  1  0  0  0  0
 16 30  1  0  0  0  0
 16 31  1  0  0  0  0
 19 32  1  0  0  0  0
 20 33  1  0  0  0  0
M  END
> <Chemgauss4 Score>
-4.579261302948

> <Number of Confs>
55

$$$$
PAT-GYR-359-4
  -OEChem-03242005443D

 38 39  0     0  0  0  0  0  0999 V2000
    8.2222   -0.5769   21.0458 C   0  0  0  0  0  0  0  0  0  0  0  0
    7.6571    0.0717   20.2075 C   0  0  0  0  0  0  0  0  0  0  0  0
    8.1641   -2.1776   22.8937 C   0  0  0  0  0  0  0  0  0  0  0  0
   10.2819   -1.2701   22.1666 C   0  0  0  0  0  0  0  0  0  0  0  0
    8.8209   -2.9305   23.8670 C   0  0  0  0  0  0  0  0  0  0  0  0
   10.9387   -2.0231   23.1400 C   0  0  0  0  0  0  0  0  0  0  0  0
    8.8946   -1.3474   22.0435 C   0  0  0  0  0  0  0  0  0  0  0  0
   10.2081   -2.8533   23.9901 C   0  0  0  0  0  0  0  0  0  0  0  0
    6.9777    0.8493   19.1996 C   0  0  0  0  0  0  0  0  0  0  0  0
    9.2445   -4.9733   26.3239 C   0  0  0  0  0  0  0  0  0  0  0  0
    9.0609   -4.4665   28.7395 C   0  0  0  0  0  0  0  0  0  0  0  0
    7.2406   -5.7716   27.7086 C   0  0  0  0  0  0  0  0  0  0  0  0
    8.0027   -3.7004   29.5176 C   0  0  0  0  0  0  0  0  0  0  0  0
    6.2662   -4.9593   28.5551 C   0  0  0  0  0  0  0  0  0  0  0  0
   10.9149   -3.6626   25.0388 C   0  0  0  0  0  0  0  0  0  0  0  0
    8.4998   -5.0389   27.5136 N   0  0  0  0  0  0  0  0  0  0  0  0
    6.5163    2.0747   19.6146 N   0  0  0  0  0  0  0  0  0  0  0  0
   10.0887   -3.8754   26.2060 N   0  0  0  0  0  0  0  0  0  0  0  0
    6.8531    0.3940   18.0694 O   0  0  0  0  0  0  0  0  0  0  0  0
    9.1582   -5.8250   25.4330 O   0  0  0  0  0  0  0  0  0  0  0  0
    6.8797   -4.5451   29.7763 O   0  0  0  0  0  0  0  0  0  0  0  0
    7.0824   -2.2499   22.8088 H   0  0  0  0  0  0  0  0  0  0  0  0
   10.8654   -0.6264   21.5126 H   0  0  0  0  0  0  0  0  0  0  0  0
    8.2437   -3.5753   24.5244 H   0  0  0  0  0  0  0  0  0  0  0  0
   12.0196   -1.9552   23.2299 H   0  0  0  0  0  0  0  0  0  0  0  0
    9.9157   -3.8196   28.5215 H   0  0  0  0  0  0  0  0  0  0  0  0
    9.4239   -5.3136   29.3338 H   0  0  0  0  0  0  0  0  0  0  0  0
    7.5029   -6.7043   28.2209 H   0  0  0  0  0  0  0  0  0  0  0  0
    6.7566   -6.0203   26.7632 H   0  0  0  0  0  0  0  0  0  0  0  0
    8.4080   -3.3826   30.4835 H   0  0  0  0  0  0  0  0  0  0  0  0
    7.6770   -2.8014   28.9812 H   0  0  0  0  0  0  0  0  0  0  0  0
    5.8998   -4.0809   28.0104 H   0  0  0  0  0  0  0  0  0  0  0  0
    5.3977   -5.5740   28.8122 H   0  0  0  0  0  0  0  0  0  0  0  0
   11.1988   -4.6438   24.6430 H   0  0  0  0  0  0  0  0  0  0  0  0
   11.8343   -3.1653   25.3656 H   0  0  0  0  0  0  0  0  0  0  0  0
    6.6445    2.4114   20.5639 H   0  0  0  0  0  0  0  0  0  0  0  0
    6.0268    2.6920   18.9753 H   0  0  0  0  0  0  0  0  0  0  0  0
   10.1263   -3.2036   26.9614 H   0  0  0  0  0  0  0  0  0  0  0  0
  1  2  3  0  0  0  0
  1  7  1  0  0  0  0
  2  9  1  0  0  0  0
  3  5  2  0  0  0  0
  3  7  1  0  0  0  0
  4  6  1  0  0  0  0
  4  7  2  0  0  0  0
  5  8  1  0  0  0  0
  6  8  2  0  0  0  0
  8 15  1  0  0  0  0
  9 17  1  0  0  0  0
  9 19  2  0  0  0  0
 10 16  1  0  0  0  0
 10 18  1  0  0  0  0
 10 20  2  0  0  0  0
 11 13  1  0  0  0  0
 11 16  1  0  0  0  0
 12 14  1  0  0  0  0
 12 16  1  0  0  0  0
 13 21  1  0  0  0  0
 14 21  1  0  0  0  0
 15 18  1  0  0  0  0
  3 22  1  0  0  0  0
  4 23  1  0  0  0  0
  5 24  1  0  0  0  0
  6 25  1  0  0  0  0
 11 26  1  0  0  0  0
 11 27  1  0  0  0  0
 12 28  1  0  0  0  0
 12 29  1  0  0  0  0
 13 30  1  0  0  0  0
 13 31  1  0  0  0  0
 14 32  1  0  0  0  0
 14 33  1  0  0  0  0
 15 34  1  0  0  0  0
 15 35  1  0  0  0  0
 17 36  1  0  0  0  0
 17 37  1  0  0  0  0
 18 38  1  0  0  0  0
M  END
> <Chemgauss4 Score>
-4.57876825332642

> <Number of Confs>
77

$$$$
JOH-MSK-a63-6
  -OEChem-03242005443D

 49 51  0     1  0  0  0  0  0999 V2000
    9.9024   -5.6758   25.7718 C   0  0  0  0  0  0  0  0  0  0  0  0
   10.5655   -4.5500   25.2751 C   0  0  0  0  0  0  0  0  0  0  0  0
    8.4702   -3.3433   25.0504 C   0  0  0  0  0  0  0  0  0  0  0  0
    6.3374   -6.0368   26.2981 C   0  0  0  0  0  0  0  0  0  0  0  0
    7.7799   -4.4660   25.5489 C   0  0  0  0  0  0  0  0  0  0  0  0
    6.4104   -4.7536   25.8072 C   0  0  0  0  0  0  0  0  0  0  0  0
    8.5105   -5.6041   25.8973 C   0  0  0  0  0  0  0  0  0  0  0  0
    9.8625   -3.4007   24.9194 C   0  0  0  0  0  0  0  0  0  0  0  0
    8.5412   -0.0941   21.4395 C   0  0  0  0  0  0  0  0  0  0  0  0
    4.7262   -5.9331   22.7447 C   0  0  0  0  0  0  0  0  0  0  0  0
    9.6394   -0.4804   22.4076 C   0  0  1  0  0  0  0  0  0  0  0  0
   10.7007    0.6148   22.4350 C   0  0  2  0  0  0  0  0  0  0  0  0
   11.7519    0.2801   23.4986 C   0  0  2  0  0  0  0  0  0  0  0  0
   11.0738    0.0169   24.8452 C   0  0  1  0  0  0  0  0  0  0  0  0
    9.9665   -1.0346   24.7033 C   0  0  1  0  0  0  0  0  0  0  0  0
    5.3395   -5.9894   21.3849 C   0  0  0  0  0  0  0  0  0  0  0  0
    5.2656   -3.8458   25.5923 C   0  0  0  0  0  0  0  0  0  0  0  0
    4.1998   -4.3972   24.6278 C   0  0  0  0  0  0  0  0  0  0  0  0
    7.6091   -6.5415   26.3490 N   0  0  0  0  0  0  0  0  0  0  0  0
    4.7401   -4.6744   23.3239 N   0  0  0  0  0  0  0  0  0  0  0  0
    8.9098    0.6106   20.4594 O   0  5  0  0  0  0  0  0  0  0  0  0
    7.3939   -0.5288   21.7393 O   0  0  0  0  0  0  0  0  0  0  0  0
    4.2676   -6.9542   23.2434 O   0  0  0  0  0  0  0  0  0  0  0  0
    9.0325   -0.6483   23.6897 O   0  0  0  0  0  0  0  0  0  0  0  0
   10.0753    1.8578   22.7711 O   0  0  0  0  0  0  0  0  0  0  0  0
   12.6675    1.3634   23.6361 O   0  0  0  0  0  0  0  0  0  0  0  0
   12.0476   -0.4194   25.7882 O   0  0  0  0  0  0  0  0  0  0  0  0
   10.5394   -2.3142   24.4370 O   0  0  0  0  0  0  0  0  0  0  0  0
   10.4507   -6.5703   26.0479 H   0  0  0  0  0  0  0  0  0  0  0  0
   11.6473   -4.5795   25.1663 H   0  0  0  0  0  0  0  0  0  0  0  0
    7.9307   -2.4423   24.7709 H   0  0  0  0  0  0  0  0  0  0  0  0
    5.4959   -6.6367   26.6157 H   0  0  0  0  0  0  0  0  0  0  0  0
   10.0655   -1.4315   22.0680 H   0  0  0  0  0  0  0  0  0  0  0  0
   11.1673    0.7462   21.4524 H   0  0  0  0  0  0  0  0  0  0  0  0
   12.3359   -0.5961   23.1935 H   0  0  0  0  0  0  0  0  0  0  0  0
   10.6524    0.9564   25.2235 H   0  0  0  0  0  0  0  0  0  0  0  0
    9.4249   -1.1145   25.6522 H   0  0  0  0  0  0  0  0  0  0  0  0
    6.4190   -6.2073   21.4191 H   0  0  0  0  0  0  0  0  0  0  0  0
    4.9019   -6.7836   20.7588 H   0  0  0  0  0  0  0  0  0  0  0  0
    5.2487   -5.0676   20.7884 H   0  0  0  0  0  0  0  0  0  0  0  0
    5.6195   -2.8766   25.1885 H   0  0  0  0  0  0  0  0  0  0  0  0
    4.7734   -3.5836   26.5507 H   0  0  0  0  0  0  0  0  0  0  0  0
    3.7801   -5.3364   25.0018 H   0  0  0  0  0  0  0  0  0  0  0  0
    3.3792   -3.6834   24.5004 H   0  0  0  0  0  0  0  0  0  0  0  0
    7.8519   -7.4682   26.6708 H   0  0  0  0  0  0  0  0  0  0  0  0
    5.1543   -3.9056   22.7992 H   0  0  0  0  0  0  0  0  0  0  0  0
    9.4160    2.0230   22.0820 H   0  0  0  0  0  0  0  0  0  0  0  0
   13.0846    1.4849   22.7690 H   0  0  0  0  0  0  0  0  0  0  0  0
   11.5768   -0.5737   26.6223 H   0  0  0  0  0  0  0  0  0  0  0  0
  1  2  2  0  0  0  0
  1  7  1  0  0  0  0
  2  8  1  0  0  0  0
  3  5  1  0  0  0  0
  3  8  2  0  0  0  0
  4  6  2  0  0  0  0
  4 19  1  0  0  0  0
  5  6  1  0  0  0  0
  5  7  2  0  0  0  0
  6 17  1  0  0  0  0
  7 19  1  0  0  0  0
  8 28  1  0  0  0  0
  9 11  1  1  0  0  0
  9 21  1  0  0  0  0
  9 22  2  0  0  0  0
 10 16  1  0  0  0  0
 10 20  1  0  0  0  0
 10 23  2  0  0  0  0
 11 12  1  0  0  0  0
 11 24  1  0  0  0  0
 12 13  1  0  0  0  0
 12 25  1  1  0  0  0
 13 14  1  0  0  0  0
 13 26  1  1  0  0  0
 14 15  1  0  0  0  0
 14 27  1  6  0  0  0
 15 24  1  0  0  0  0
 15 28  1  1  0  0  0
 17 18  1  0  0  0  0
 18 20  1  0  0  0  0
  1 29  1  0  0  0  0
  2 30  1  0  0  0  0
  3 31  1  0  0  0  0
  4 32  1  0  0  0  0
 11 33  1  0  0  0  0
 12 34  1  0  0  0  0
 13 35  1  0  0  0  0
 14 36  1  0  0  0  0
 15 37  1  0  0  0  0
 16 38  1  0  0  0  0
 16 39  1  0  0  0  0
 16 40  1  0  0  0  0
 17 41  1  0  0  0  0
 17 42  1  0  0  0  0
 18 43  1  0  0  0  0
 18 44  1  0  0  0  0
 19 45  1  0  0  0  0
 20 46  1  0  0  0  0
 25 47  1  0  0  0  0
 26 48  1  0  0  0  0
 27 49  1  0  0  0  0
M  CHG  1  21  -1
M  END
> <Chemgauss4 Score>
-4.57641172409058

> <Number of Confs>
200

$$$$
CHR-SOS-709-7
  -OEChem-03242005443D

 27 28  0     0  0  0  0  0  0999 V2000
   12.7734   -0.0148   23.1945 C   0  0  0  0  0  0  0  0  0  0  0  0
   12.1660    0.0235   24.4495 C   0  0  0  0  0  0  0  0  0  0  0  0
   12.3991   -0.9880   22.2679 C   0  0  0  0  0  0  0  0  0  0  0  0
   11.1844   -0.9114   24.7781 C   0  0  0  0  0  0  0  0  0  0  0  0
   11.4175   -1.9229   22.5964 C   0  0  0  0  0  0  0  0  0  0  0  0
    7.3782   -6.1329   26.4226 C   0  0  0  0  0  0  0  0  0  0  0  0
    6.3455   -6.1926   25.4869 C   0  0  0  0  0  0  0  0  0  0  0  0
    7.1263   -4.1331   24.4938 C   0  0  0  0  0  0  0  0  0  0  0  0
    8.1589   -4.0734   25.4296 C   0  0  0  0  0  0  0  0  0  0  0  0
   10.8101   -1.8846   23.8515 C   0  0  0  0  0  0  0  0  0  0  0  0
    8.2849   -5.0733   26.3940 C   0  0  0  0  0  0  0  0  0  0  0  0
    6.2195   -5.1928   24.5225 C   0  0  0  0  0  0  0  0  0  0  0  0
    9.0936   -2.9575   25.3839 C   0  0  0  0  0  0  0  0  0  0  0  0
    9.8123   -2.8347   24.1857 N   0  0  0  0  0  0  0  0  0  0  0  0
    9.2539   -2.2048   26.3534 O   0  0  0  0  0  0  0  0  0  0  0  0
    9.2858   -5.0316   27.3181 O   0  0  0  0  0  0  0  0  0  0  0  0
    4.9466   -5.2675   23.3667 Cl  0  0  0  0  0  0  0  0  0  0  0  0
   13.5372    0.7136   22.9380 H   0  0  0  0  0  0  0  0  0  0  0  0
   12.4565    0.7816   25.1708 H   0  0  0  0  0  0  0  0  0  0  0  0
   12.8716   -1.0169   21.2903 H   0  0  0  0  0  0  0  0  0  0  0  0
   10.7179   -0.8717   25.7592 H   0  0  0  0  0  0  0  0  0  0  0  0
   11.1338   -2.6768   21.8662 H   0  0  0  0  0  0  0  0  0  0  0  0
    7.4709   -6.9144   27.1719 H   0  0  0  0  0  0  0  0  0  0  0  0
    5.6472   -7.0248   25.5205 H   0  0  0  0  0  0  0  0  0  0  0  0
    7.0294   -3.3517   23.7430 H   0  0  0  0  0  0  0  0  0  0  0  0
    9.5888   -3.5150   23.4634 H   0  0  0  0  0  0  0  0  0  0  0  0
    9.8364   -4.2452   27.1796 H   0  0  0  0  0  0  0  0  0  0  0  0
  1  2  1  0  0  0  0
  1  3  2  0  0  0  0
  2  4  2  0  0  0  0
  3  5  1  0  0  0  0
  4 10  1  0  0  0  0
  5 10  2  0  0  0  0
  6  7  2  0  0  0  0
  6 11  1  0  0  0  0
  7 12  1  0  0  0  0
  8  9  1  0  0  0  0
  8 12  2  0  0  0  0
  9 11  2  0  0  0  0
  9 13  1  0  0  0  0
 10 14  1  0  0  0  0
 11 16  1  0  0  0  0
 12 17  1  0  0  0  0
 13 14  1  0  0  0  0
 13 15  2  0  0  0  0
  1 18  1  0  0  0  0
  2 19  1  0  0  0  0
  3 20  1  0  0  0  0
  4 21  1  0  0  0  0
  5 22  1  0  0  0  0
  6 23  1  0  0  0  0
  7 24  1  0  0  0  0
  8 25  1  0  0  0  0
 14 26  1  0  0  0  0
 16 27  1  0  0  0  0
M  END
> <Chemgauss4 Score>
-4.57402324676514

> <Number of Confs>
5

$$$$
JOR-UNI-2fc-9
  -OEChem-03242005443D

 49 51  0     1  0  0  0  0  0999 V2000
   10.8429    0.2550   24.6465 C   0  0  0  0  0  0  0  0  0  0  0  0
    6.5038   -0.5208   19.5220 C   0  0  0  0  0  0  0  0  0  0  0  0
   10.1055   -0.9229   24.5270 C   0  0  0  0  0  0  0  0  0  0  0  0
    7.5764   -0.8169   20.3556 C   0  0  0  0  0  0  0  0  0  0  0  0
   12.1300    0.3292   24.1140 C   0  0  0  0  0  0  0  0  0  0  0  0
   11.9424   -1.9526   23.3426 C   0  0  0  0  0  0  0  0  0  0  0  0
    5.3697   -1.3110   19.6187 C   0  0  0  0  0  0  0  0  0  0  0  0
    6.3057   -2.6085   21.2675 C   0  0  0  0  0  0  0  0  0  0  0  0
   10.6552   -2.0268   23.8751 C   0  0  0  0  0  0  0  0  0  0  0  0
    7.4836   -1.8792   21.2479 C   0  0  0  0  0  0  0  0  0  0  0  0
   12.6797   -0.7746   23.4621 C   0  0  0  0  0  0  0  0  0  0  0  0
    8.6149   -3.2375   23.0540 C   0  0  0  0  0  0  0  0  0  0  0  0
    7.1547   -5.3051   26.8829 C   0  0  0  0  0  0  0  0  0  0  0  0
    8.6267   -5.5156   26.5248 C   0  0  0  0  0  0  0  0  0  0  0  0
    9.6482   -3.6832   27.8097 C   0  0  0  0  0  0  0  0  0  0  0  0
    6.8572   -5.1850   28.3755 C   0  0  0  0  0  0  0  0  0  0  0  0
    8.3911   -3.3713   28.6164 C   0  0  0  0  0  0  0  0  0  0  0  0
   10.6409   -4.4419   25.7630 C   0  0  0  0  0  0  0  0  0  0  0  0
   10.4434   -4.4868   24.2571 C   0  0  0  0  0  0  0  0  0  0  0  0
    5.2426   -2.3510   20.4730 N   0  0  0  0  0  0  0  0  0  0  0  0
    9.3767   -4.2509   26.4814 N   0  0  1  0  0  0  0  0  0  0  0  0
    8.5592   -2.2052   22.1093 N   0  0  0  0  0  0  0  0  0  0  0  0
    9.8794   -3.2648   23.7511 N   0  0  0  0  0  0  0  0  0  0  0  0
    7.6918   -4.0265   23.2621 O   0  0  0  0  0  0  0  0  0  0  0  0
    7.8694   -4.5744   29.1607 O   0  0  0  0  0  0  0  0  0  0  0  0
   14.2678   -0.6833   22.8050 Cl  0  0  0  0  0  0  0  0  0  0  0  0
   10.4147    1.1146   25.1542 H   0  0  0  0  0  0  0  0  0  0  0  0
    6.5539    0.3026   18.8187 H   0  0  0  0  0  0  0  0  0  0  0  0
    9.1033   -0.9690   24.9461 H   0  0  0  0  0  0  0  0  0  0  0  0
    8.4791   -0.2140   20.3018 H   0  0  0  0  0  0  0  0  0  0  0  0
   12.6923    1.2538   24.2146 H   0  0  0  0  0  0  0  0  0  0  0  0
   12.3679   -2.8153   22.8345 H   0  0  0  0  0  0  0  0  0  0  0  0
    4.5062   -1.1216   18.9897 H   0  0  0  0  0  0  0  0  0  0  0  0
    6.1732   -3.4490   21.9424 H   0  0  0  0  0  0  0  0  0  0  0  0
    6.7832   -4.4093   26.3673 H   0  0  0  0  0  0  0  0  0  0  0  0
    6.5584   -6.1343   26.4819 H   0  0  0  0  0  0  0  0  0  0  0  0
    9.0974   -6.2473   27.1936 H   0  0  0  0  0  0  0  0  0  0  0  0
    8.6344   -5.9585   25.5201 H   0  0  0  0  0  0  0  0  0  0  0  0
   10.1905   -2.7387   27.6772 H   0  0  0  0  0  0  0  0  0  0  0  0
   10.2939   -4.3595   28.3856 H   0  0  0  0  0  0  0  0  0  0  0  0
    5.9152   -4.6447   28.5266 H   0  0  0  0  0  0  0  0  0  0  0  0
    6.7087   -6.1879   28.7910 H   0  0  0  0  0  0  0  0  0  0  0  0
    8.6766   -2.7435   29.4679 H   0  0  0  0  0  0  0  0  0  0  0  0
    7.6403   -2.8111   28.0462 H   0  0  0  0  0  0  0  0  0  0  0  0
   11.3091   -3.6252   26.0540 H   0  0  0  0  0  0  0  0  0  0  0  0
   11.0704   -5.3853   26.1141 H   0  0  0  0  0  0  0  0  0  0  0  0
   11.4042   -4.6301   23.7531 H   0  0  0  0  0  0  0  0  0  0  0  0
    9.7741   -5.3031   23.9668 H   0  0  0  0  0  0  0  0  0  0  0  0
    9.3877   -1.6218   22.0329 H   0  0  0  0  0  0  0  0  0  0  0  0
  1  3  2  0  0  0  0
  1  5  1  0  0  0  0
  2  4  2  0  0  0  0
  2  7  1  0  0  0  0
  3  9  1  0  0  0  0
  4 10  1  0  0  0  0
  5 11  2  0  0  0  0
  6  9  2  0  0  0  0
  6 11  1  0  0  0  0
  7 20  2  0  0  0  0
  8 10  2  0  0  0  0
  8 20  1  0  0  0  0
  9 23  1  0  0  0  0
 10 22  1  0  0  0  0
 11 26  1  0  0  0  0
 12 22  1  0  0  0  0
 12 23  1  0  0  0  0
 12 24  2  0  0  0  0
 13 14  1  0  0  0  0
 13 16  1  0  0  0  0
 14 21  1  0  0  0  0
 15 17  1  0  0  0  0
 15 21  1  0  0  0  0
 16 25  1  0  0  0  0
 17 25  1  0  0  0  0
 18 19  1  0  0  0  0
 18 21  1  6  0  0  0
 19 23  1  0  0  0  0
  1 27  1  0  0  0  0
  2 28  1  0  0  0  0
  3 29  1  0  0  0  0
  4 30  1  0  0  0  0
  5 31  1  0  0  0  0
  6 32  1  0  0  0  0
  7 33  1  0  0  0  0
  8 34  1  0  0  0  0
 13 35  1  0  0  0  0
 13 36  1  0  0  0  0
 14 37  1  0  0  0  0
 14 38  1  0  0  0  0
 15 39  1  0  0  0  0
 15 40  1  0  0  0  0
 16 41  1  0  0  0  0
 16 42  1  0  0  0  0
 17 43  1  0  0  0  0
 17 44  1  0  0  0  0
 18 45  1  0  0  0  0
 18 46  1  0  0  0  0
 19 47  1  0  0  0  0
 19 48  1  0  0  0  0
 22 49  1  0  0  0  0
M  END
> <Chemgauss4 Score>
-4.57128095626831

> <Number of Confs>
200

$$$$
SAL-INS-1ea-4
  -OEChem-03242005443D

 51 53  0     1  0  0  0  0  0999 V2000
    6.9714   -5.8446   22.6367 C   0  0  0  0  0  0  0  0  0  0  0  0
    5.8751   -5.8270   23.4989 C   0  0  0  0  0  0  0  0  0  0  0  0
    8.2658   -5.8831   23.1550 C   0  0  0  0  0  0  0  0  0  0  0  0
    6.0732   -5.8478   24.8794 C   0  0  0  0  0  0  0  0  0  0  0  0
    9.0995    0.5964   23.0469 C   0  0  0  0  0  0  0  0  0  0  0  0
    7.8225   -1.3521   23.6870 C   0  0  0  0  0  0  0  0  0  0  0  0
    8.0077    1.4107   23.3475 C   0  0  0  0  0  0  0  0  0  0  0  0
    6.7307   -0.5378   23.9876 C   0  0  0  0  0  0  0  0  0  0  0  0
    8.4639   -5.9039   24.5356 C   0  0  0  0  0  0  0  0  0  0  0  0
    7.3676   -5.8862   25.3978 C   0  0  0  0  0  0  0  0  0  0  0  0
    9.0069   -0.7851   23.2165 C   0  0  0  0  0  0  0  0  0  0  0  0
    6.8233    0.8437   23.8179 C   0  0  0  0  0  0  0  0  0  0  0  0
    8.5921   -1.9423   28.0305 C   0  0  0  0  0  0  0  0  0  0  0  0
   10.0354   -0.8635   26.2668 C   0  0  0  0  0  0  0  0  0  0  0  0
   11.2068   -1.2179   25.3640 C   0  0  0  0  0  0  0  0  0  0  0  0
    9.9974   -3.3359   26.5437 C   0  0  0  0  0  0  0  0  0  0  0  0
   10.0480   -3.4327   25.0160 C   0  0  2  0  0  0  0  0  0  0  0  0
    9.8702   -5.9451   25.0779 C   0  0  0  0  0  0  0  0  0  0  0  0
    8.1621   -0.5493   28.4223 C   0  0  0  0  0  0  0  0  0  0  0  0
   10.6878   -4.7507   24.5895 C   0  0  0  0  0  0  0  0  0  0  0  0
    9.5059   -2.0290   26.9791 N   0  0  0  0  0  0  0  0  0  0  0  0
   10.8315   -2.3022   24.4161 N   0  0  1  0  0  0  0  0  0  0  0  0
    8.1383   -2.9141   28.6387 O   0  0  0  0  0  0  0  0  0  0  0  0
    9.8996   -2.9673   22.1146 O   0  0  0  0  0  0  0  0  0  0  0  0
   11.4368   -0.9796   22.2987 O   0  0  0  0  0  0  0  0  0  0  0  0
    7.5436   -5.9053   26.7488 O   0  0  0  0  0  0  0  0  0  0  0  0
   10.3877   -1.8149   22.8363 S   0  0  0  0  0  0  0  0  0  0  0  0
    5.4763    1.8484   24.1889 Cl  0  0  0  0  0  0  0  0  0  0  0  0
    9.2715   -0.0146   29.6797 Cl  0  0  0  0  0  0  0  0  0  0  0  0
    6.8176   -5.8279   21.5615 H   0  0  0  0  0  0  0  0  0  0  0  0
    4.8675   -5.7961   23.0949 H   0  0  0  0  0  0  0  0  0  0  0  0
    9.1134   -5.8951   22.4748 H   0  0  0  0  0  0  0  0  0  0  0  0
    5.2152   -5.8338   25.5461 H   0  0  0  0  0  0  0  0  0  0  0  0
   10.0175    1.0485   22.6810 H   0  0  0  0  0  0  0  0  0  0  0  0
    7.7396   -2.4271   23.8228 H   0  0  0  0  0  0  0  0  0  0  0  0
    8.0942    2.4856   23.2104 H   0  0  0  0  0  0  0  0  0  0  0  0
    5.8141   -0.9935   24.3534 H   0  0  0  0  0  0  0  0  0  0  0  0
   10.3522   -0.1393   27.0382 H   0  0  0  0  0  0  0  0  0  0  0  0
    9.2590   -0.3589   25.6733 H   0  0  0  0  0  0  0  0  0  0  0  0
   11.5421   -0.3333   24.8034 H   0  0  0  0  0  0  0  0  0  0  0  0
   12.0422   -1.5560   25.9927 H   0  0  0  0  0  0  0  0  0  0  0  0
    9.3710   -4.1358   26.9531 H   0  0  0  0  0  0  0  0  0  0  0  0
   10.9995   -3.4543   26.9761 H   0  0  0  0  0  0  0  0  0  0  0  0
    9.0226   -3.3988   24.6025 H   0  0  0  0  0  0  0  0  0  0  0  0
    9.8441   -5.9570   26.1753 H   0  0  0  0  0  0  0  0  0  0  0  0
   10.3574   -6.8809   24.7749 H   0  0  0  0  0  0  0  0  0  0  0  0
    7.1509   -0.5898   28.8109 H   0  0  0  0  0  0  0  0  0  0  0  0
    8.2397    0.0988   27.5570 H   0  0  0  0  0  0  0  0  0  0  0  0
   11.7052   -4.7939   24.9907 H   0  0  0  0  0  0  0  0  0  0  0  0
   10.7710   -4.7644   23.4983 H   0  0  0  0  0  0  0  0  0  0  0  0
    6.6845   -5.8883   27.1987 H   0  0  0  0  0  0  0  0  0  0  0  0
  1  2  1  0  0  0  0
  1  3  2  0  0  0  0
  2  4  2  0  0  0  0
  3  9  1  0  0  0  0
  4 10  1  0  0  0  0
  5  7  2  0  0  0  0
  5 11  1  0  0  0  0
  6  8  1  0  0  0  0
  6 11  2  0  0  0  0
  7 12  1  0  0  0  0
  8 12  2  0  0  0  0
  9 10  2  0  0  0  0
  9 18  1  0  0  0  0
 10 26  1  0  0  0  0
 11 27  1  0  0  0  0
 12 28  1  0  0  0  0
 13 19  1  0  0  0  0
 13 21  1  0  0  0  0
 13 23  2  0  0  0  0
 14 15  1  0  0  0  0
 14 21  1  0  0  0  0
 15 22  1  0  0  0  0
 16 17  1  0  0  0  0
 16 21  1  0  0  0  0
 17 20  1  0  0  0  0
 17 22  1  0  0  0  0
 18 20  1  0  0  0  0
 19 29  1  0  0  0  0
 22 27  1  6  0  0  0
 24 27  2  0  0  0  0
 25 27  2  0  0  0  0
  1 30  1  0  0  0  0
  2 31  1  0  0  0  0
  3 32  1  0  0  0  0
  4 33  1  0  0  0  0
  5 34  1  0  0  0  0
  6 35  1  0  0  0  0
  7 36  1  0  0  0  0
  8 37  1  0  0  0  0
 14 38  1  0  0  0  0
 14 39  1  0  0  0  0
 15 40  1  0  0  0  0
 15 41  1  0  0  0  0
 16 42  1  0  0  0  0
 16 43  1  0  0  0  0
 17 44  1  6  0  0  0
 18 45  1  0  0  0  0
 18 46  1  0  0  0  0
 19 47  1  0  0  0  0
 19 48  1  0  0  0  0
 20 49  1  0  0  0  0
 20 50  1  0  0  0  0
 26 51  1  0  0  0  0
M  END
> <Chemgauss4 Score>
-4.56927394866943

> <Number of Confs>
200

$$$$
DAR-DIA-43a-6
  -OEChem-03242005443D

 40 42  0     1  0  0  0  0  0999 V2000
    4.6806   -2.6524   24.7755 C   0  0  0  0  0  0  0  0  0  0  0  0
   12.2122    0.0157   22.1107 C   0  0  0  0  0  0  0  0  0  0  0  0
    5.6757   -3.6047   24.5550 C   0  0  0  0  0  0  0  0  0  0  0  0
   12.3227   -1.3124   22.5071 C   0  0  0  0  0  0  0  0  0  0  0  0
    4.9964   -1.4453   25.3991 C   0  0  0  0  0  0  0  0  0  0  0  0
    7.3022   -2.1428   25.5819 C   0  0  0  0  0  0  0  0  0  0  0  0
   11.2975    0.8168   22.7748 C   0  0  0  0  0  0  0  0  0  0  0  0
   10.6424   -0.9099   24.1414 C   0  0  0  0  0  0  0  0  0  0  0  0
    6.9865   -3.3499   24.9583 C   0  0  0  0  0  0  0  0  0  0  0  0
   11.5264   -1.7920   23.5411 C   0  0  0  0  0  0  0  0  0  0  0  0
    6.3072   -1.1905   25.8023 C   0  0  0  0  0  0  0  0  0  0  0  0
    9.1889   -3.8751   23.8557 C   0  0  0  0  0  0  0  0  0  0  0  0
   10.3393   -3.7511   24.5309 C   0  0  0  0  0  0  0  0  0  0  0  0
    8.1010   -4.7595   27.2564 C   0  0  0  0  0  0  0  0  0  0  0  0
    8.0670   -4.3858   24.7194 C   0  0  1  0  0  0  0  0  0  0  0  0
   10.1802   -4.1534   25.9674 C   0  0  1  0  0  0  0  0  0  0  0  0
    8.8381   -4.9003   25.9578 C   0  0  1  0  0  0  0  0  0  0  0  0
   11.6230   -3.2268   23.9946 C   0  0  0  0  0  0  0  0  0  0  0  0
   10.5069    0.3867   23.7836 N   0  0  0  0  0  0  0  0  0  0  0  0
    7.3331   -5.8532   27.5796 N   0  0  0  0  0  0  0  0  0  0  0  0
    8.2024   -3.7569   27.9592 O   0  0  0  0  0  0  0  0  0  0  0  0
   11.2079   -5.0428   26.3784 O   0  0  0  0  0  0  0  0  0  0  0  0
    6.6959    0.2985   26.5727 Cl  0  0  0  0  0  0  0  0  0  0  0  0
    3.6600   -2.8512   24.4615 H   0  0  0  0  0  0  0  0  0  0  0  0
   12.8230    0.4113   21.3072 H   0  0  0  0  0  0  0  0  0  0  0  0
    5.4206   -4.5425   24.0685 H   0  0  0  0  0  0  0  0  0  0  0  0
   13.0314   -1.9657   22.0054 H   0  0  0  0  0  0  0  0  0  0  0  0
    4.2106   -0.7124   25.5647 H   0  0  0  0  0  0  0  0  0  0  0  0
    8.3258   -1.9487   25.8940 H   0  0  0  0  0  0  0  0  0  0  0  0
   11.1732    1.8598   22.5028 H   0  0  0  0  0  0  0  0  0  0  0  0
    9.9954   -1.2270   24.9534 H   0  0  0  0  0  0  0  0  0  0  0  0
    9.0642   -3.6210   22.8115 H   0  0  0  0  0  0  0  0  0  0  0  0
    7.5795   -5.2590   24.2126 H   0  0  0  0  0  0  0  0  0  0  0  0
   10.1841   -3.2771   26.6238 H   0  0  0  0  0  0  0  0  0  0  0  0
    9.0233   -5.9821   25.8299 H   0  0  0  0  0  0  0  0  0  0  0  0
   11.9531   -3.8505   23.1530 H   0  0  0  0  0  0  0  0  0  0  0  0
   12.4051   -3.3236   24.7590 H   0  0  0  0  0  0  0  0  0  0  0  0
    7.3200   -6.6440   26.9439 H   0  0  0  0  0  0  0  0  0  0  0  0
    6.7788   -5.9013   28.4283 H   0  0  0  0  0  0  0  0  0  0  0  0
   11.1463   -5.8276   25.8090 H   0  0  0  0  0  0  0  0  0  0  0  0
  1  3  2  0  0  0  0
  1  5  1  0  0  0  0
  2  4  2  0  0  0  0
  2  7  1  0  0  0  0
  3  9  1  0  0  0  0
  4 10  1  0  0  0  0
  5 11  2  0  0  0  0
  6  9  2  0  0  0  0
  6 11  1  0  0  0  0
  7 19  2  0  0  0  0
  8 10  2  0  0  0  0
  8 19  1  0  0  0  0
  9 15  1  0  0  0  0
 10 18  1  0  0  0  0
 11 23  1  0  0  0  0
 12 13  2  0  0  0  0
 12 15  1  0  0  0  0
 13 16  1  0  0  0  0
 13 18  1  0  0  0  0
 14 17  1  0  0  0  0
 14 20  1  0  0  0  0
 14 21  2  0  0  0  0
 15 17  1  0  0  0  0
 16 17  1  0  0  0  0
 16 22  1  0  0  0  0
  1 24  1  0  0  0  0
  2 25  1  0  0  0  0
  3 26  1  0  0  0  0
  4 27  1  0  0  0  0
  5 28  1  0  0  0  0
  6 29  1  0  0  0  0
  7 30  1  0  0  0  0
  8 31  1  0  0  0  0
 12 32  1  0  0  0  0
 15 33  1  6  0  0  0
 16 34  1  1  0  0  0
 17 35  1  1  0  0  0
 18 36  1  0  0  0  0
 18 37  1  0  0  0  0
 20 38  1  0  0  0  0
 20 39  1  0  0  0  0
 22 40  1  0  0  0  0
M  END
> <Chemgauss4 Score>
-4.56854152679443

> <Number of Confs>
200

$$$$
NIM-UNI-36e-1
  -OEChem-03242005443D

 34 36  0     1  0  0  0  0  0999 V2000
   12.4073   -0.3945   23.4599 C   0  0  0  0  0  0  0  0  0  0  0  0
   11.4402   -0.4393   24.4579 C   0  0  0  0  0  0  0  0  0  0  0  0
   12.2695   -1.2567   22.3840 C   0  0  0  0  0  0  0  0  0  0  0  0
   10.3326   -2.1524   23.2352 C   0  0  0  0  0  0  0  0  0  0  0  0
   10.3798   -1.3323   24.3510 C   0  0  0  0  0  0  0  0  0  0  0  0
    8.9656   -0.2973   26.1651 C   0  0  0  0  0  0  0  0  0  0  0  0
    8.5135   -4.8238   24.6310 C   0  0  0  0  0  0  0  0  0  0  0  0
    9.0079   -4.0965   27.9599 C   0  0  0  0  0  0  0  0  0  0  0  0
    9.8463   -4.2317   26.6956 C   0  0  0  0  0  0  0  0  0  0  0  0
    7.8232   -2.2085   26.9401 C   0  0  2  0  0  0  0  0  0  0  0  0
    8.4607   -2.5273   25.5677 C   0  0  1  0  0  0  0  0  0  0  0  0
    9.3610   -6.0477   24.3892 C   0  0  0  0  0  0  0  0  0  0  0  0
   11.2534   -2.1376   22.2455 N   0  0  0  0  0  0  0  0  0  0  0  0
    7.9437   -0.7740   27.0116 N   0  0  0  0  0  0  0  0  0  0  0  0
    8.5369   -2.7274   28.1069 N   0  0  0  0  0  0  0  0  0  0  0  0
    9.3754   -1.4016   25.3557 N   0  0  0  0  0  0  0  0  0  0  0  0
    9.0078   -3.8889   25.5477 N   0  0  0  0  0  0  0  0  0  0  0  0
    9.3606    0.8613   26.1464 O   0  0  0  0  0  0  0  0  0  0  0  0
    7.4504   -4.6993   24.0172 O   0  0  0  0  0  0  0  0  0  0  0  0
   13.2426    0.2937   23.5223 H   0  0  0  0  0  0  0  0  0  0  0  0
   11.5225    0.2254   25.3137 H   0  0  0  0  0  0  0  0  0  0  0  0
   12.9977   -1.2612   21.5798 H   0  0  0  0  0  0  0  0  0  0  0  0
    9.5294   -2.8698   23.0954 H   0  0  0  0  0  0  0  0  0  0  0  0
    8.1495   -4.7690   27.9042 H   0  0  0  0  0  0  0  0  0  0  0  0
    9.5829   -4.4014   28.8367 H   0  0  0  0  0  0  0  0  0  0  0  0
   10.6922   -3.5629   26.7158 H   0  0  0  0  0  0  0  0  0  0  0  0
   10.1825   -5.2511   26.5999 H   0  0  0  0  0  0  0  0  0  0  0  0
    6.7829   -2.4565   26.9860 H   0  0  0  0  0  0  0  0  0  0  0  0
    7.6715   -2.4259   24.7929 H   0  0  0  0  0  0  0  0  0  0  0  0
    9.0729   -6.8220   25.0919 H   0  0  0  0  0  0  0  0  0  0  0  0
   10.4053   -5.7888   24.5289 H   0  0  0  0  0  0  0  0  0  0  0  0
    9.2043   -6.3914   23.3722 H   0  0  0  0  0  0  0  0  0  0  0  0
    7.4149   -0.1878   27.6360 H   0  0  0  0  0  0  0  0  0  0  0  0
    7.8956   -2.6967   28.9115 H   0  0  0  0  0  0  0  0  0  0  0  0
  1  2  2  0  0  0  0
  1  3  1  0  0  0  0
  2  5  1  0  0  0  0
  3 13  2  0  0  0  0
  4  5  2  0  0  0  0
  4 13  1  0  0  0  0
  5 16  1  0  0  0  0
  6 14  1  0  0  0  0
  6 16  1  0  0  0  0
  6 18  2  0  0  0  0
  7 12  1  0  0  0  0
  7 17  1  0  0  0  0
  7 19  2  0  0  0  0
  8  9  1  0  0  0  0
  8 15  1  0  0  0  0
  9 17  1  0  0  0  0
 10 11  1  0  0  0  0
 10 14  1  0  0  0  0
 10 15  1  6  0  0  0
 11 16  1  0  0  0  0
 11 17  1  1  0  0  0
  1 20  1  0  0  0  0
  2 21  1  0  0  0  0
  3 22  1  0  0  0  0
  4 23  1  0  0  0  0
  8 24  1  0  0  0  0
  8 25  1  0  0  0  0
  9 26  1  0  0  0  0
  9 27  1  0  0  0  0
 10 28  1  0  0  0  0
 11 29  1  0  0  0  0
 12 30  1  0  0  0  0
 12 31  1  0  0  0  0
 12 32  1  0  0  0  0
 14 33  1  0  0  0  0
 15 34  1  0  0  0  0
M  END
> <Chemgauss4 Score>
-4.56792545318604

> <Number of Confs>
8

$$$$
JOR-UNI-2fc-13
  -OEChem-03242005443D

 49 51  0     0  0  0  0  0  0999 V2000
   12.0430   -1.1893   23.2232 C   0  0  0  0  0  0  0  0  0  0  0  0
    3.9126   -6.4693   24.1424 C   0  0  0  0  0  0  0  0  0  0  0  0
   11.2476   -2.3319   23.3077 C   0  0  0  0  0  0  0  0  0  0  0  0
    5.1133   -5.9090   24.5640 C   0  0  0  0  0  0  0  0  0  0  0  0
   11.5049    0.0596   23.5340 C   0  0  0  0  0  0  0  0  0  0  0  0
    9.3759   -0.9769   24.0135 C   0  0  0  0  0  0  0  0  0  0  0  0
    3.3586   -6.0026   22.9613 C   0  0  0  0  0  0  0  0  0  0  0  0
    5.0801   -4.5164   22.6364 C   0  0  0  0  0  0  0  0  0  0  0  0
    9.9140   -2.2258   23.7028 C   0  0  0  0  0  0  0  0  0  0  0  0
    5.7147   -4.9132   23.8024 C   0  0  0  0  0  0  0  0  0  0  0  0
   10.1714    0.1658   23.9291 C   0  0  0  0  0  0  0  0  0  0  0  0
    7.6588   -3.3184   23.5501 C   0  0  0  0  0  0  0  0  0  0  0  0
    7.6469   -5.5738   27.8378 C   0  0  0  0  0  0  0  0  0  0  0  0
    9.1712   -3.8394   28.8440 C   0  0  0  0  0  0  0  0  0  0  0  0
    8.6874   -5.7783   26.7322 C   0  0  0  0  0  0  0  0  0  0  0  0
   10.1543   -4.1087   27.7003 C   0  0  0  0  0  0  0  0  0  0  0  0
    8.2674   -5.0382   29.1270 C   0  0  0  0  0  0  0  0  0  0  0  0
   10.3958   -4.7403   25.3887 C   0  0  0  0  0  0  0  0  0  0  0  0
    9.7145   -4.6946   24.0313 C   0  0  0  0  0  0  0  0  0  0  0  0
    3.9133   -5.0372   22.1947 N   0  0  0  0  0  0  0  0  0  0  0  0
    9.4500   -4.5469   26.4878 N   0  0  0  0  0  0  0  0  0  0  0  0
    6.9372   -4.3236   24.2060 N   0  0  0  0  0  0  0  0  0  0  0  0
    9.0786   -3.4277   23.7901 N   0  0  0  0  0  0  0  0  0  0  0  0
    7.1393   -2.4462   22.8520 O   0  0  0  0  0  0  0  0  0  0  0  0
    9.0064   -6.0672   29.7809 O   0  0  0  0  0  0  0  0  0  0  0  0
    9.5074    1.7066   24.3126 Cl  0  0  0  0  0  0  0  0  0  0  0  0
   13.0814   -1.2720   22.9155 H   0  0  0  0  0  0  0  0  0  0  0  0
    3.4259   -7.2467   24.7202 H   0  0  0  0  0  0  0  0  0  0  0  0
   11.6779   -3.2999   23.0629 H   0  0  0  0  0  0  0  0  0  0  0  0
    5.5712   -6.2554   25.4868 H   0  0  0  0  0  0  0  0  0  0  0  0
   12.1370    0.9410   23.4638 H   0  0  0  0  0  0  0  0  0  0  0  0
    8.3357   -0.8979   24.3217 H   0  0  0  0  0  0  0  0  0  0  0  0
    2.4226   -6.4066   22.5898 H   0  0  0  0  0  0  0  0  0  0  0  0
    5.5007   -3.7438   21.9996 H   0  0  0  0  0  0  0  0  0  0  0  0
    6.8615   -4.8849   27.4916 H   0  0  0  0  0  0  0  0  0  0  0  0
    7.1268   -6.5235   28.0431 H   0  0  0  0  0  0  0  0  0  0  0  0
    9.7243   -3.5677   29.7579 H   0  0  0  0  0  0  0  0  0  0  0  0
    8.5552   -2.9584   28.6080 H   0  0  0  0  0  0  0  0  0  0  0  0
    9.3654   -6.5804   27.0480 H   0  0  0  0  0  0  0  0  0  0  0  0
    8.1865   -6.1175   25.8158 H   0  0  0  0  0  0  0  0  0  0  0  0
   10.7457   -3.2043   27.5049 H   0  0  0  0  0  0  0  0  0  0  0  0
   10.8512   -4.8896   28.0288 H   0  0  0  0  0  0  0  0  0  0  0  0
    7.4563   -4.7293   29.8176 H   0  0  0  0  0  0  0  0  0  0  0  0
   11.1629   -3.9644   25.4769 H   0  0  0  0  0  0  0  0  0  0  0  0
   10.8681   -5.7160   25.5395 H   0  0  0  0  0  0  0  0  0  0  0  0
   10.4490   -4.8424   23.2336 H   0  0  0  0  0  0  0  0  0  0  0  0
    8.9467   -5.4701   23.9441 H   0  0  0  0  0  0  0  0  0  0  0  0
    7.3378   -4.6703   25.0731 H   0  0  0  0  0  0  0  0  0  0  0  0
    8.3784   -6.7810   29.9768 H   0  0  0  0  0  0  0  0  0  0  0  0
  1  3  2  0  0  0  0
  1  5  1  0  0  0  0
  2  4  2  0  0  0  0
  2  7  1  0  0  0  0
  3  9  1  0  0  0  0
  4 10  1  0  0  0  0
  5 11  2  0  0  0  0
  6  9  2  0  0  0  0
  6 11  1  0  0  0  0
  7 20  2  0  0  0  0
  8 10  2  0  0  0  0
  8 20  1  0  0  0  0
  9 23  1  0  0  0  0
 10 22  1  0  0  0  0
 11 26  1  0  0  0  0
 12 22  1  0  0  0  0
 12 23  1  0  0  0  0
 12 24  2  0  0  0  0
 13 15  1  0  0  0  0
 13 17  1  0  0  0  0
 14 16  1  0  0  0  0
 14 17  1  0  0  0  0
 15 21  1  0  0  0  0
 16 21  1  0  0  0  0
 17 25  1  0  0  0  0
 18 19  1  0  0  0  0
 18 21  1  0  0  0  0
 19 23  1  0  0  0  0
  1 27  1  0  0  0  0
  2 28  1  0  0  0  0
  3 29  1  0  0  0  0
  4 30  1  0  0  0  0
  5 31  1  0  0  0  0
  6 32  1  0  0  0  0
  7 33  1  0  0  0  0
  8 34  1  0  0  0  0
 13 35  1  0  0  0  0
 13 36  1  0  0  0  0
 14 37  1  0  0  0  0
 14 38  1  0  0  0  0
 15 39  1  0  0  0  0
 15 40  1  0  0  0  0
 16 41  1  0  0  0  0
 16 42  1  0  0  0  0
 17 43  1  0  0  0  0
 18 44  1  0  0  0  0
 18 45  1  0  0  0  0
 19 46  1  0  0  0  0
 19 47  1  0  0  0  0
 22 48  1  0  0  0  0
 25 49  1  0  0  0  0
M  END
> <Chemgauss4 Score>
-4.5630841255188

> <Number of Confs>
200

$$$$
WAR-XCH-eb7-2
  -OEChem-03242005443D

 28 29  0     0  0  0  0  0  0999 V2000
    9.9232    1.5260   23.0649 C   0  0  0  0  0  0  0  0  0  0  0  0
    7.0109   -6.3488   28.3823 C   0  0  0  0  0  0  0  0  0  0  0  0
    7.6660   -5.9717   27.2153 C   0  0  0  0  0  0  0  0  0  0  0  0
   10.0447   -0.8239   23.7308 C   0  0  0  0  0  0  0  0  0  0  0  0
   11.6686    0.0608   22.1760 C   0  0  0  0  0  0  0  0  0  0  0  0
   11.7749   -2.2584   22.8444 C   0  0  0  0  0  0  0  0  0  0  0  0
    7.1793   -5.5557   29.5059 C   0  0  0  0  0  0  0  0  0  0  0  0
    8.5618   -4.1039   28.3838 C   0  0  0  0  0  0  0  0  0  0  0  0
   10.5506    0.2441   22.9898 C   0  0  0  0  0  0  0  0  0  0  0  0
    8.4584   -4.8291   27.2077 C   0  0  0  0  0  0  0  0  0  0  0  0
   10.6569   -2.0751   23.6582 C   0  0  0  0  0  0  0  0  0  0  0  0
   12.2807   -1.1905   22.1033 C   0  0  0  0  0  0  0  0  0  0  0  0
    9.4743   -3.1150   25.6430 C   0  0  0  0  0  0  0  0  0  0  0  0
    9.4137    2.5669   23.1260 N   0  0  0  0  0  0  0  0  0  0  0  0
    7.9406   -4.4390   29.5368 N   0  0  0  0  0  0  0  0  0  0  0  0
    9.1375   -4.4202   26.0357 N   0  0  0  0  0  0  0  0  0  0  0  0
   10.1516   -3.1437   24.3994 N   0  0  0  0  0  0  0  0  0  0  0  0
    9.2226   -2.0958   26.2778 O   0  0  0  0  0  0  0  0  0  0  0  0
   13.6607   -1.4166   21.0997 Cl  0  0  0  0  0  0  0  0  0  0  0  0
    6.3881   -7.2356   28.4113 H   0  0  0  0  0  0  0  0  0  0  0  0
    7.5523   -6.5748   26.3184 H   0  0  0  0  0  0  0  0  0  0  0  0
    9.1728   -0.6843   24.3671 H   0  0  0  0  0  0  0  0  0  0  0  0
   12.0644    0.8935   21.5976 H   0  0  0  0  0  0  0  0  0  0  0  0
   12.2507   -3.2354   22.7898 H   0  0  0  0  0  0  0  0  0  0  0  0
    6.6903   -5.8075   30.4412 H   0  0  0  0  0  0  0  0  0  0  0  0
    9.1653   -3.2029   28.4401 H   0  0  0  0  0  0  0  0  0  0  0  0
    9.4158   -5.1631   25.3995 H   0  0  0  0  0  0  0  0  0  0  0  0
   10.2811   -4.0797   24.0009 H   0  0  0  0  0  0  0  0  0  0  0  0
  1  9  1  0  0  0  0
  1 14  3  0  0  0  0
  2  3  2  0  0  0  0
  2  7  1  0  0  0  0
  3 10  1  0  0  0  0
  4  9  2  0  0  0  0
  4 11  1  0  0  0  0
  5  9  1  0  0  0  0
  5 12  2  0  0  0  0
  6 11  2  0  0  0  0
  6 12  1  0  0  0  0
  7 15  2  0  0  0  0
  8 10  2  0  0  0  0
  8 15  1  0  0  0  0
 10 16  1  0  0  0  0
 11 17  1  0  0  0  0
 12 19  1  0  0  0  0
 13 16  1  0  0  0  0
 13 17  1  0  0  0  0
 13 18  2  0  0  0  0
  2 20  1  0  0  0  0
  3 21  1  0  0  0  0
  4 22  1  0  0  0  0
  5 23  1  0  0  0  0
  6 24  1  0  0  0  0
  7 25  1  0  0  0  0
  8 26  1  0  0  0  0
 16 27  1  0  0  0  0
 17 28  1  0  0  0  0
M  END
> <Chemgauss4 Score>
-4.55587100982666

> <Number of Confs>
12

$$$$
HAN-NEW-5f5-3
  -OEChem-03242005443D

 55 57  0     0  0  0  0  0  0999 V2000
   12.8671    0.0327   22.2704 C   0  0  0  0  0  0  0  0  0  0  0  0
   12.5819   -1.1472   21.5832 C   0  0  0  0  0  0  0  0  0  0  0  0
   12.3810    0.2211   23.5642 C   0  0  0  0  0  0  0  0  0  0  0  0
   11.8106   -2.1385   22.1897 C   0  0  0  0  0  0  0  0  0  0  0  0
   11.6096   -0.7702   24.1707 C   0  0  0  0  0  0  0  0  0  0  0  0
    6.7803   -5.7519   27.8257 C   0  0  0  0  0  0  0  0  0  0  0  0
    7.2444   -5.2484   29.0302 C   0  0  0  0  0  0  0  0  0  0  0  0
    8.9402   -4.0934   27.9965 C   0  0  0  0  0  0  0  0  0  0  0  0
    7.4541   -5.3877   26.6652 C   0  0  0  0  0  0  0  0  0  0  0  0
   11.3244   -1.9501   23.4835 C   0  0  0  0  0  0  0  0  0  0  0  0
    8.5558   -4.5430   26.7436 C   0  0  0  0  0  0  0  0  0  0  0  0
    9.9721   -2.9436   25.3817 C   0  0  0  0  0  0  0  0  0  0  0  0
    6.3557   -3.2814   23.4002 C   0  0  0  0  0  0  0  0  0  0  0  0
    8.8091    0.8308   21.1113 C   0  0  0  0  0  0  0  0  0  0  0  0
    7.4264    1.2778   21.5774 C   0  0  0  0  0  0  0  0  0  0  0  0
    8.8248   -0.6472   20.7315 C   0  0  0  0  0  0  0  0  0  0  0  0
    6.9041    0.4009   22.7142 C   0  0  0  0  0  0  0  0  0  0  0  0
    8.3047   -1.5262   21.8677 C   0  0  0  0  0  0  0  0  0  0  0  0
    6.9111   -1.0813   22.3244 C   0  0  0  0  0  0  0  0  0  0  0  0
    6.9707   -5.9219   25.3393 C   0  0  0  0  0  0  0  0  0  0  0  0
    5.7155   -5.2147   24.8342 C   0  0  0  0  0  0  0  0  0  0  0  0
    8.3108   -4.4256   29.1459 N   0  0  0  0  0  0  0  0  0  0  0  0
   10.5421   -2.9559   24.0986 N   0  0  0  0  0  0  0  0  0  0  0  0
    9.2637   -4.1493   25.6083 N   0  0  0  0  0  0  0  0  0  0  0  0
    6.4765   -1.8951   23.4582 N   0  0  0  0  0  0  0  0  0  0  0  0
    5.9245   -3.8024   24.6175 N   0  0  0  0  0  0  0  0  0  0  0  0
   10.0689   -2.0277   26.1922 O   0  0  0  0  0  0  0  0  0  0  0  0
    6.5989   -3.9597   22.4030 O   0  0  0  0  0  0  0  0  0  0  0  0
   13.4683    0.8045   21.7987 H   0  0  0  0  0  0  0  0  0  0  0  0
   12.9610   -1.2946   20.5762 H   0  0  0  0  0  0  0  0  0  0  0  0
   12.6040    1.1396   24.0994 H   0  0  0  0  0  0  0  0  0  0  0  0
   11.5949   -3.0540   21.6444 H   0  0  0  0  0  0  0  0  0  0  0  0
   11.2362   -0.6123   25.1794 H   0  0  0  0  0  0  0  0  0  0  0  0
    5.9179   -6.4092   27.7988 H   0  0  0  0  0  0  0  0  0  0  0  0
    6.7540   -5.5024   29.9641 H   0  0  0  0  0  0  0  0  0  0  0  0
    9.7920   -3.4316   28.1225 H   0  0  0  0  0  0  0  0  0  0  0  0
    9.1221    1.4354   20.2527 H   0  0  0  0  0  0  0  0  0  0  0  0
    9.5384    1.0091   21.9111 H   0  0  0  0  0  0  0  0  0  0  0  0
    7.4686    2.3220   21.9073 H   0  0  0  0  0  0  0  0  0  0  0  0
    6.7259    1.2368   20.7342 H   0  0  0  0  0  0  0  0  0  0  0  0
    8.2059   -0.8014   19.8389 H   0  0  0  0  0  0  0  0  0  0  0  0
    9.8449   -0.9495   20.4692 H   0  0  0  0  0  0  0  0  0  0  0  0
    7.5275    0.5578   23.6040 H   0  0  0  0  0  0  0  0  0  0  0  0
    5.8867    0.7177   22.9733 H   0  0  0  0  0  0  0  0  0  0  0  0
    8.2757   -2.5693   21.5300 H   0  0  0  0  0  0  0  0  0  0  0  0
    9.0083   -1.4787   22.7090 H   0  0  0  0  0  0  0  0  0  0  0  0
    6.1887   -1.2587   21.5332 H   0  0  0  0  0  0  0  0  0  0  0  0
    6.7629   -6.9937   25.4508 H   0  0  0  0  0  0  0  0  0  0  0  0
    7.7728   -5.8460   24.5940 H   0  0  0  0  0  0  0  0  0  0  0  0
    5.4093   -5.6396   23.8730 H   0  0  0  0  0  0  0  0  0  0  0  0
    4.8816   -5.3214   25.5358 H   0  0  0  0  0  0  0  0  0  0  0  0
   10.3718   -3.7903   23.5430 H   0  0  0  0  0  0  0  0  0  0  0  0
    9.2821   -4.8126   24.8261 H   0  0  0  0  0  0  0  0  0  0  0  0
    6.2518   -1.4267   24.3309 H   0  0  0  0  0  0  0  0  0  0  0  0
    5.7929   -3.1702   25.4008 H   0  0  0  0  0  0  0  0  0  0  0  0
  1  2  1  0  0  0  0
  1  3  2  0  0  0  0
  2  4  2  0  0  0  0
  3  5  1  0  0  0  0
  4 10  1  0  0  0  0
  5 10  2  0  0  0  0
  6  7  2  0  0  0  0
  6  9  1  0  0  0  0
  7 22  1  0  0  0  0
  8 11  1  0  0  0  0
  8 22  2  0  0  0  0
  9 11  2  0  0  0  0
  9 20  1  0  0  0  0
 10 23  1  0  0  0  0
 11 24  1  0  0  0  0
 12 23  1  0  0  0  0
 12 24  1  0  0  0  0
 12 27  2  0  0  0  0
 13 25  1  0  0  0  0
 13 26  1  0  0  0  0
 13 28  2  0  0  0  0
 14 15  1  0  0  0  0
 14 16  1  0  0  0  0
 15 17  1  0  0  0  0
 16 18  1  0  0  0  0
 17 19  1  0  0  0  0
 18 19  1  0  0  0  0
 19 25  1  0  0  0  0
 20 21  1  0  0  0  0
 21 26  1  0  0  0  0
  1 29  1  0  0  0  0
  2 30  1  0  0  0  0
  3 31  1  0  0  0  0
  4 32  1  0  0  0  0
  5 33  1  0  0  0  0
  6 34  1  0  0  0  0
  7 35  1  0  0  0  0
  8 36  1  0  0  0  0
 14 37  1  0  0  0  0
 14 38  1  0  0  0  0
 15 39  1  0  0  0  0
 15 40  1  0  0  0  0
 16 41  1  0  0  0  0
 16 42  1  0  0  0  0
 17 43  1  0  0  0  0
 17 44  1  0  0  0  0
 18 45  1  0  0  0  0
 18 46  1  0  0  0  0
 19 47  1  0  0  0  0
 20 48  1  0  0  0  0
 20 49  1  0  0  0  0
 21 50  1  0  0  0  0
 21 51  1  0  0  0  0
 23 52  1  0  0  0  0
 24 53  1  0  0  0  0
 25 54  1  0  0  0  0
 26 55  1  0  0  0  0
M  END
> <Chemgauss4 Score>
-4.54722356796265

> <Number of Confs>
200

$$$$
DAR-DIA-033-1
  -OEChem-03242005443D

 55 57  0     0  0  0  0  0  0999 V2000
   12.8671    0.0327   22.2704 C   0  0  0  0  0  0  0  0  0  0  0  0
   12.5819   -1.1472   21.5832 C   0  0  0  0  0  0  0  0  0  0  0  0
   12.3810    0.2211   23.5642 C   0  0  0  0  0  0  0  0  0  0  0  0
   11.8106   -2.1385   22.1897 C   0  0  0  0  0  0  0  0  0  0  0  0
   11.6096   -0.7702   24.1707 C   0  0  0  0  0  0  0  0  0  0  0  0
    6.7803   -5.7519   27.8257 C   0  0  0  0  0  0  0  0  0  0  0  0
    7.2444   -5.2484   29.0302 C   0  0  0  0  0  0  0  0  0  0  0  0
    8.9402   -4.0934   27.9965 C   0  0  0  0  0  0  0  0  0  0  0  0
    7.4541   -5.3877   26.6652 C   0  0  0  0  0  0  0  0  0  0  0  0
   11.3244   -1.9501   23.4835 C   0  0  0  0  0  0  0  0  0  0  0  0
    8.5558   -4.5430   26.7436 C   0  0  0  0  0  0  0  0  0  0  0  0
    9.9721   -2.9436   25.3817 C   0  0  0  0  0  0  0  0  0  0  0  0
    6.3557   -3.2814   23.4002 C   0  0  0  0  0  0  0  0  0  0  0  0
    8.8091    0.8308   21.1113 C   0  0  0  0  0  0  0  0  0  0  0  0
    7.4264    1.2778   21.5774 C   0  0  0  0  0  0  0  0  0  0  0  0
    8.8248   -0.6472   20.7315 C   0  0  0  0  0  0  0  0  0  0  0  0
    6.9041    0.4009   22.7142 C   0  0  0  0  0  0  0  0  0  0  0  0
    8.3047   -1.5262   21.8677 C   0  0  0  0  0  0  0  0  0  0  0  0
    6.9111   -1.0813   22.3244 C   0  0  0  0  0  0  0  0  0  0  0  0
    6.9707   -5.9219   25.3393 C   0  0  0  0  0  0  0  0  0  0  0  0
    5.7155   -5.2147   24.8342 C   0  0  0  0  0  0  0  0  0  0  0  0
    8.3108   -4.4256   29.1459 N   0  0  0  0  0  0  0  0  0  0  0  0
   10.5421   -2.9559   24.0986 N   0  0  0  0  0  0  0  0  0  0  0  0
    9.2637   -4.1493   25.6083 N   0  0  0  0  0  0  0  0  0  0  0  0
    6.4765   -1.8951   23.4582 N   0  0  0  0  0  0  0  0  0  0  0  0
    5.9245   -3.8024   24.6175 N   0  0  0  0  0  0  0  0  0  0  0  0
   10.0689   -2.0277   26.1922 O   0  0  0  0  0  0  0  0  0  0  0  0
    6.5989   -3.9597   22.4030 O   0  0  0  0  0  0  0  0  0  0  0  0
   13.4683    0.8045   21.7987 H   0  0  0  0  0  0  0  0  0  0  0  0
   12.9610   -1.2946   20.5762 H   0  0  0  0  0  0  0  0  0  0  0  0
   12.6040    1.1396   24.0994 H   0  0  0  0  0  0  0  0  0  0  0  0
   11.5949   -3.0540   21.6444 H   0  0  0  0  0  0  0  0  0  0  0  0
   11.2362   -0.6123   25.1794 H   0  0  0  0  0  0  0  0  0  0  0  0
    5.9179   -6.4092   27.7988 H   0  0  0  0  0  0  0  0  0  0  0  0
    6.7540   -5.5024   29.9641 H   0  0  0  0  0  0  0  0  0  0  0  0
    9.7920   -3.4316   28.1225 H   0  0  0  0  0  0  0  0  0  0  0  0
    9.1221    1.4354   20.2527 H   0  0  0  0  0  0  0  0  0  0  0  0
    9.5384    1.0091   21.9111 H   0  0  0  0  0  0  0  0  0  0  0  0
    7.4686    2.3220   21.9073 H   0  0  0  0  0  0  0  0  0  0  0  0
    6.7259    1.2368   20.7342 H   0  0  0  0  0  0  0  0  0  0  0  0
    8.2059   -0.8014   19.8389 H   0  0  0  0  0  0  0  0  0  0  0  0
    9.8449   -0.9495   20.4692 H   0  0  0  0  0  0  0  0  0  0  0  0
    7.5275    0.5578   23.6040 H   0  0  0  0  0  0  0  0  0  0  0  0
    5.8867    0.7177   22.9733 H   0  0  0  0  0  0  0  0  0  0  0  0
    8.2757   -2.5693   21.5300 H   0  0  0  0  0  0  0  0  0  0  0  0
    9.0083   -1.4787   22.7090 H   0  0  0  0  0  0  0  0  0  0  0  0
    6.1887   -1.2587   21.5332 H   0  0  0  0  0  0  0  0  0  0  0  0
    6.7629   -6.9937   25.4508 H   0  0  0  0  0  0  0  0  0  0  0  0
    7.7728   -5.8460   24.5940 H   0  0  0  0  0  0  0  0  0  0  0  0
    5.4093   -5.6396   23.8730 H   0  0  0  0  0  0  0  0  0  0  0  0
    4.8816   -5.3214   25.5358 H   0  0  0  0  0  0  0  0  0  0  0  0
   10.3718   -3.7903   23.5430 H   0  0  0  0  0  0  0  0  0  0  0  0
    9.2821   -4.8126   24.8261 H   0  0  0  0  0  0  0  0  0  0  0  0
    6.2518   -1.4267   24.3309 H   0  0  0  0  0  0  0  0  0  0  0  0
    5.7929   -3.1702   25.4008 H   0  0  0  0  0  0  0  0  0  0  0  0
  1  2  1  0  0  0  0
  1  3  2  0  0  0  0
  2  4  2  0  0  0  0
  3  5  1  0  0  0  0
  4 10  1  0  0  0  0
  5 10  2  0  0  0  0
  6  7  2  0  0  0  0
  6  9  1  0  0  0  0
  7 22  1  0  0  0  0
  8 11  1  0  0  0  0
  8 22  2  0  0  0  0
  9 11  2  0  0  0  0
  9 20  1  0  0  0  0
 10 23  1  0  0  0  0
 11 24  1  0  0  0  0
 12 23  1  0  0  0  0
 12 24  1  0  0  0  0
 12 27  2  0  0  0  0
 13 25  1  0  0  0  0
 13 26  1  0  0  0  0
 13 28  2  0  0  0  0
 14 15  1  0  0  0  0
 14 16  1  0  0  0  0
 15 17  1  0  0  0  0
 16 18  1  0  0  0  0
 17 19  1  0  0  0  0
 18 19  1  0  0  0  0
 19 25  1  0  0  0  0
 20 21  1  0  0  0  0
 21 26  1  0  0  0  0
  1 29  1  0  0  0  0
  2 30  1  0  0  0  0
  3 31  1  0  0  0  0
  4 32  1  0  0  0  0
  5 33  1  0  0  0  0
  6 34  1  0  0  0  0
  7 35  1  0  0  0  0
  8 36  1  0  0  0  0
 14 37  1  0  0  0  0
 14 38  1  0  0  0  0
 15 39  1  0  0  0  0
 15 40  1  0  0  0  0
 16 41  1  0  0  0  0
 16 42  1  0  0  0  0
 17 43  1  0  0  0  0
 17 44  1  0  0  0  0
 18 45  1  0  0  0  0
 18 46  1  0  0  0  0
 19 47  1  0  0  0  0
 20 48  1  0  0  0  0
 20 49  1  0  0  0  0
 21 50  1  0  0  0  0
 21 51  1  0  0  0  0
 23 52  1  0  0  0  0
 24 53  1  0  0  0  0
 25 54  1  0  0  0  0
 26 55  1  0  0  0  0
M  END
> <Chemgauss4 Score>
-4.54722356796265

> <Number of Confs>
200

$$$$
MIH-UNI-6b9-6
  -OEChem-03242005443D

 30 31  0     0  0  0  0  0  0999 V2000
    5.9110   -3.9419   26.3191 C   0  0  0  0  0  0  0  0  0  0  0  0
    6.8096   -3.4620   27.2717 C   0  0  0  0  0  0  0  0  0  0  0  0
    6.3750   -4.6896   25.2367 C   0  0  0  0  0  0  0  0  0  0  0  0
    8.1725   -3.7295   27.1420 C   0  0  0  0  0  0  0  0  0  0  0  0
    7.7378   -4.9571   25.1070 C   0  0  0  0  0  0  0  0  0  0  0  0
   12.1753   -0.7905   22.4168 C   0  0  0  0  0  0  0  0  0  0  0  0
   13.0793    0.0706   22.9941 C   0  0  0  0  0  0  0  0  0  0  0  0
   11.5350   -0.2789   24.4916 C   0  0  0  0  0  0  0  0  0  0  0  0
    8.6366   -4.4771   26.0597 C   0  0  0  0  0  0  0  0  0  0  0  0
   11.1723   -1.0173   23.3893 C   0  0  0  0  0  0  0  0  0  0  0  0
   10.0937   -4.7634   25.9203 C   0  0  0  0  0  0  0  0  0  0  0  0
   10.8531   -3.7005   25.1167 C   0  0  0  0  0  0  0  0  0  0  0  0
   10.3374   -3.5523   23.7822 N   0  0  0  0  0  0  0  0  0  0  0  0
    8.7384   -1.5615   24.1576 O   0  0  0  0  0  0  0  0  0  0  0  0
    9.4372   -2.1160   21.8063 O   0  0  0  0  0  0  0  0  0  0  0  0
   12.6964    0.3872   24.2589 O   0  0  0  0  0  0  0  0  0  0  0  0
    9.7394   -2.0390   23.2228 S   0  0  0  0  0  0  0  0  0  0  0  0
    4.8497   -3.7346   26.4209 H   0  0  0  0  0  0  0  0  0  0  0  0
    6.4484   -2.8808   28.1151 H   0  0  0  0  0  0  0  0  0  0  0  0
    5.6755   -5.0643   24.4954 H   0  0  0  0  0  0  0  0  0  0  0  0
    8.8654   -3.3513   27.8890 H   0  0  0  0  0  0  0  0  0  0  0  0
    8.0903   -5.5403   24.2604 H   0  0  0  0  0  0  0  0  0  0  0  0
   12.2350   -1.2011   21.4188 H   0  0  0  0  0  0  0  0  0  0  0  0
   13.9983    0.5267   22.6559 H   0  0  0  0  0  0  0  0  0  0  0  0
   11.0995   -0.1274   25.4688 H   0  0  0  0  0  0  0  0  0  0  0  0
   10.2286   -5.7395   25.4246 H   0  0  0  0  0  0  0  0  0  0  0  0
   10.5642   -4.8759   26.9122 H   0  0  0  0  0  0  0  0  0  0  0  0
   10.7676   -2.7215   25.5987 H   0  0  0  0  0  0  0  0  0  0  0  0
   11.9164   -3.9487   25.0344 H   0  0  0  0  0  0  0  0  0  0  0  0
   10.6846   -4.2124   23.0551 H   0  0  0  0  0  0  0  0  0  0  0  0
  1  2  1  0  0  0  0
  1  3  2  0  0  0  0
  2  4  2  0  0  0  0
  3  5  1  0  0  0  0
  4  9  1  0  0  0  0
  5  9  2  0  0  0  0
  6  7  2  0  0  0  0
  6 10  1  0  0  0  0
  7 16  1  0  0  0  0
  8 10  2  0  0  0  0
  8 16  1  0  0  0  0
  9 11  1  0  0  0  0
 10 17  1  0  0  0  0
 11 12  1  0  0  0  0
 12 13  1  0  0  0  0
 13 17  1  0  0  0  0
 14 17  2  0  0  0  0
 15 17  2  0  0  0  0
  1 18  1  0  0  0  0
  2 19  1  0  0  0  0
  3 20  1  0  0  0  0
  4 21  1  0  0  0  0
  5 22  1  0  0  0  0
  6 23  1  0  0  0  0
  7 24  1  0  0  0  0
  8 25  1  0  0  0  0
 11 26  1  0  0  0  0
 11 27  1  0  0  0  0
 12 28  1  0  0  0  0
 12 29  1  0  0  0  0
 13 30  1  0  0  0  0
M  END
> <Chemgauss4 Score>
-4.53958511352539

> <Number of Confs>
126

$$$$
DAR-DIA-43a-12
  -OEChem-03242005443D

 53 55  0     1  0  0  0  0  0999 V2000
    9.4246   -2.4608   22.1571 C   0  0  0  0  0  0  0  0  0  0  0  0
    3.8201   -4.5687   26.9526 C   0  0  0  0  0  0  0  0  0  0  0  0
    9.2339   -2.9984   23.4300 C   0  0  0  0  0  0  0  0  0  0  0  0
    5.0857   -4.7238   27.5072 C   0  0  0  0  0  0  0  0  0  0  0  0
   10.6236   -1.8212   21.8425 C   0  0  0  0  0  0  0  0  0  0  0  0
   11.4414   -2.2568   24.0737 C   0  0  0  0  0  0  0  0  0  0  0  0
    3.5582   -5.2003   25.7476 C   0  0  0  0  0  0  0  0  0  0  0  0
    5.6759   -6.0855   25.6488 C   0  0  0  0  0  0  0  0  0  0  0  0
   10.2423   -2.8964   24.3883 C   0  0  0  0  0  0  0  0  0  0  0  0
    6.0372   -5.4951   26.8491 C   0  0  0  0  0  0  0  0  0  0  0  0
   11.6320   -1.7192   22.8008 C   0  0  0  0  0  0  0  0  0  0  0  0
    9.1404   -4.6822   25.8688 C   0  0  0  0  0  0  0  0  0  0  0  0
    8.3808   -4.6470   26.9705 C   0  0  0  0  0  0  0  0  0  0  0  0
    8.4784   -1.4989   26.2069 C   0  0  0  0  0  0  0  0  0  0  0  0
    8.6308   -3.4103   27.7797 C   0  0  0  0  0  0  0  0  0  0  0  0
   10.0343   -3.4787   25.7692 C   0  0  2  0  0  0  0  0  0  0  0  0
    9.4138   -2.5148   26.8076 C   0  0  1  0  0  0  0  0  0  0  0  0
    7.4185   -5.6832   27.4249 C   0  0  0  0  0  0  0  0  0  0  0  0
    7.6041    1.8916   23.1225 C   0  0  0  0  0  0  0  0  0  0  0  0
    8.3794    0.7330   23.7594 C   0  0  0  0  0  0  0  0  0  0  0  0
    7.6196    1.8367   21.5980 C   0  0  0  0  0  0  0  0  0  0  0  0
    8.3735    0.8064   25.2813 C   0  0  0  0  0  0  0  0  0  0  0  0
    4.4567   -5.9575   25.0790 N   0  0  0  0  0  0  0  0  0  0  0  0
    8.9492    1.9195   21.0601 N   0  0  0  0  0  0  0  0  0  0  0  0
    9.0858   -0.3037   25.8722 N   0  0  0  0  0  0  0  0  0  0  0  0
    7.2952   -1.7809   26.0578 O   0  0  0  0  0  0  0  0  0  0  0  0
   13.1107   -0.9290   22.4124 Cl  0  0  0  0  0  0  0  0  0  0  0  0
    8.6390   -2.5403   21.4112 H   0  0  0  0  0  0  0  0  0  0  0  0
    3.0626   -3.9722   27.4481 H   0  0  0  0  0  0  0  0  0  0  0  0
    8.2964   -3.4949   23.6664 H   0  0  0  0  0  0  0  0  0  0  0  0
    5.3213   -4.2408   28.4516 H   0  0  0  0  0  0  0  0  0  0  0  0
   10.7582   -1.4067   20.8464 H   0  0  0  0  0  0  0  0  0  0  0  0
   12.2247   -2.1803   24.8243 H   0  0  0  0  0  0  0  0  0  0  0  0
    2.5863   -5.1100   25.2736 H   0  0  0  0  0  0  0  0  0  0  0  0
    6.3763   -6.6986   25.0900 H   0  0  0  0  0  0  0  0  0  0  0  0
    9.1464   -5.4983   25.1589 H   0  0  0  0  0  0  0  0  0  0  0  0
    7.6945   -2.9496   28.1119 H   0  0  0  0  0  0  0  0  0  0  0  0
    9.2348   -3.6587   28.6594 H   0  0  0  0  0  0  0  0  0  0  0  0
   11.0492   -3.7822   26.1370 H   0  0  0  0  0  0  0  0  0  0  0  0
   10.1937   -1.9497   27.3343 H   0  0  0  0  0  0  0  0  0  0  0  0
    7.3560   -5.6745   28.5219 H   0  0  0  0  0  0  0  0  0  0  0  0
    7.7989   -6.6788   27.1594 H   0  0  0  0  0  0  0  0  0  0  0  0
    8.0203    2.8485   23.4601 H   0  0  0  0  0  0  0  0  0  0  0  0
    6.5617    1.8545   23.4616 H   0  0  0  0  0  0  0  0  0  0  0  0
    7.9304   -0.2182   23.4502 H   0  0  0  0  0  0  0  0  0  0  0  0
    9.4158    0.7369   23.4022 H   0  0  0  0  0  0  0  0  0  0  0  0
    7.0557    2.6804   21.1877 H   0  0  0  0  0  0  0  0  0  0  0  0
    7.1653    0.9120   21.2287 H   0  0  0  0  0  0  0  0  0  0  0  0
    8.8319    1.7355   25.6347 H   0  0  0  0  0  0  0  0  0  0  0  0
    7.3443    0.7743   25.6531 H   0  0  0  0  0  0  0  0  0  0  0  0
    9.6072    2.0109   21.8078 H   0  0  0  0  0  0  0  0  0  0  0  0
    9.1506    1.0900   20.5389 H   0  0  0  0  0  0  0  0  0  0  0  0
   10.0803   -0.2004   26.0499 H   0  0  0  0  0  0  0  0  0  0  0  0
  1  3  2  0  0  0  0
  1  5  1  0  0  0  0
  2  4  2  0  0  0  0
  2  7  1  0  0  0  0
  3  9  1  0  0  0  0
  4 10  1  0  0  0  0
  5 11  2  0  0  0  0
  6  9  2  0  0  0  0
  6 11  1  0  0  0  0
  7 23  2  0  0  0  0
  8 10  2  0  0  0  0
  8 23  1  0  0  0  0
  9 16  1  0  0  0  0
 10 18  1  0  0  0  0
 11 27  1  0  0  0  0
 12 13  2  0  0  0  0
 12 16  1  0  0  0  0
 13 15  1  0  0  0  0
 13 18  1  0  0  0  0
 14 17  1  0  0  0  0
 14 25  1  0  0  0  0
 14 26  2  0  0  0  0
 15 17  1  0  0  0  0
 16 17  1  0  0  0  0
 19 20  1  0  0  0  0
 19 21  1  0  0  0  0
 20 22  1  0  0  0  0
 21 24  1  0  0  0  0
 22 25  1  0  0  0  0
  1 28  1  0  0  0  0
  2 29  1  0  0  0  0
  3 30  1  0  0  0  0
  4 31  1  0  0  0  0
  5 32  1  0  0  0  0
  6 33  1  0  0  0  0
  7 34  1  0  0  0  0
  8 35  1  0  0  0  0
 12 36  1  0  0  0  0
 15 37  1  0  0  0  0
 15 38  1  0  0  0  0
 16 39  1  6  0  0  0
 17 40  1  1  0  0  0
 18 41  1  0  0  0  0
 18 42  1  0  0  0  0
 19 43  1  0  0  0  0
 19 44  1  0  0  0  0
 20 45  1  0  0  0  0
 20 46  1  0  0  0  0
 21 47  1  0  0  0  0
 21 48  1  0  0  0  0
 22 49  1  0  0  0  0
 22 50  1  0  0  0  0
 24 51  1  0  0  0  0
 24 52  1  0  0  0  0
 25 53  1  0  0  0  0
M  END
> <Chemgauss4 Score>
-4.53945207595825

> <Number of Confs>
200

$$$$
CHR-SOS-709-4
  -OEChem-03242005443D

 27 28  0     0  0  0  0  0  0999 V2000
    5.9787   -4.5766   24.3639 C   0  0  0  0  0  0  0  0  0  0  0  0
    5.9468   -5.3427   25.5290 C   0  0  0  0  0  0  0  0  0  0  0  0
    7.0802   -3.7649   24.0928 C   0  0  0  0  0  0  0  0  0  0  0  0
   12.2934    0.2006   24.4780 C   0  0  0  0  0  0  0  0  0  0  0  0
    7.0164   -5.2971   26.4232 C   0  0  0  0  0  0  0  0  0  0  0  0
   13.1584   -0.0201   23.4062 C   0  0  0  0  0  0  0  0  0  0  0  0
   11.5748   -1.5729   22.4479 C   0  0  0  0  0  0  0  0  0  0  0  0
   10.7099   -1.3522   23.5197 C   0  0  0  0  0  0  0  0  0  0  0  0
    8.1498   -3.7193   24.9869 C   0  0  0  0  0  0  0  0  0  0  0  0
   11.0692   -0.4655   24.5348 C   0  0  0  0  0  0  0  0  0  0  0  0
   12.7991   -0.9068   22.3912 C   0  0  0  0  0  0  0  0  0  0  0  0
    8.1179   -4.4854   26.1521 C   0  0  0  0  0  0  0  0  0  0  0  0
    9.4374   -2.0594   23.5613 C   0  0  0  0  0  0  0  0  0  0  0  0
    9.2537   -2.8840   24.6810 N   0  0  0  0  0  0  0  0  0  0  0  0
    8.6067   -1.9553   22.6495 O   0  0  0  0  0  0  0  0  0  0  0  0
   10.2387   -0.2382   25.5913 O   0  0  0  0  0  0  0  0  0  0  0  0
   13.8655   -1.1775   21.0677 Cl  0  0  0  0  0  0  0  0  0  0  0  0
    9.4191   -4.4566   27.2886 Cl  0  0  0  0  0  0  0  0  0  0  0  0
    5.1454   -4.6121   23.6682 H   0  0  0  0  0  0  0  0  0  0  0  0
    5.0891   -5.9748   25.7395 H   0  0  0  0  0  0  0  0  0  0  0  0
    7.0926   -3.1730   23.1808 H   0  0  0  0  0  0  0  0  0  0  0  0
   12.5790    0.8920   25.2662 H   0  0  0  0  0  0  0  0  0  0  0  0
    6.9760   -5.9005   27.3266 H   0  0  0  0  0  0  0  0  0  0  0  0
   14.1085    0.5068   23.3747 H   0  0  0  0  0  0  0  0  0  0  0  0
   11.2929   -2.2656   21.6577 H   0  0  0  0  0  0  0  0  0  0  0  0
   10.0099   -2.8825   25.3610 H   0  0  0  0  0  0  0  0  0  0  0  0
    9.4293   -0.7646   25.4998 H   0  0  0  0  0  0  0  0  0  0  0  0
  1  2  1  0  0  0  0
  1  3  2  0  0  0  0
  2  5  2  0  0  0  0
  3  9  1  0  0  0  0
  4  6  2  0  0  0  0
  4 10  1  0  0  0  0
  5 12  1  0  0  0  0
  6 11  1  0  0  0  0
  7  8  1  0  0  0  0
  7 11  2  0  0  0  0
  8 10  2  0  0  0  0
  8 13  1  0  0  0  0
  9 12  2  0  0  0  0
  9 14  1  0  0  0  0
 10 16  1  0  0  0  0
 11 17  1  0  0  0  0
 12 18  1  0  0  0  0
 13 14  1  0  0  0  0
 13 15  2  0  0  0  0
  1 19  1  0  0  0  0
  2 20  1  0  0  0  0
  3 21  1  0  0  0  0
  4 22  1  0  0  0  0
  5 23  1  0  0  0  0
  6 24  1  0  0  0  0
  7 25  1  0  0  0  0
 14 26  1  0  0  0  0
 16 27  1  0  0  0  0
M  END
> <Chemgauss4 Score>
-4.53819465637207

> <Number of Confs>
8

$$$$
DAR-DIA-842-1
  -OEChem-03242005443D

 24 25  0     0  0  0  0  0  0999 V2000
    6.8996   -4.3460   26.3561 C   0  0  0  0  0  0  0  0  0  0  0  0
    7.9518   -3.7601   25.6613 C   0  0  0  0  0  0  0  0  0  0  0  0
   13.3170   -1.2741   22.2287 C   0  0  0  0  0  0  0  0  0  0  0  0
    6.9731   -5.7042   26.6200 C   0  0  0  0  0  0  0  0  0  0  0  0
    9.0086   -5.8888   25.5708 C   0  0  0  0  0  0  0  0  0  0  0  0
   13.6076   -0.0016   21.7884 C   0  0  0  0  0  0  0  0  0  0  0  0
   11.4518   -0.1009   22.9683 C   0  0  0  0  0  0  0  0  0  0  0  0
    9.0303   -4.5393   25.2575 C   0  0  0  0  0  0  0  0  0  0  0  0
   12.0681   -1.3318   22.9121 C   0  0  0  0  0  0  0  0  0  0  0  0
   10.2873   -2.6342   24.1578 C   0  0  0  0  0  0  0  0  0  0  0  0
    8.0042   -6.4935   26.2439 N   0  0  0  0  0  0  0  0  0  0  0  0
   10.0985   -3.9806   24.5600 N   0  0  0  0  0  0  0  0  0  0  0  0
   11.5069   -2.5025   23.4746 N   0  0  0  0  0  0  0  0  0  0  0  0
    9.4957   -1.7232   24.3784 O   0  0  0  0  0  0  0  0  0  0  0  0
   12.3777    1.1169   22.1990 S   0  0  0  0  0  0  0  0  0  0  0  0
    6.0487   -3.7579   26.6806 H   0  0  0  0  0  0  0  0  0  0  0  0
    7.9214   -2.6965   25.4401 H   0  0  0  0  0  0  0  0  0  0  0  0
   13.9739   -2.1195   22.0658 H   0  0  0  0  0  0  0  0  0  0  0  0
    6.1774   -6.2088   27.1581 H   0  0  0  0  0  0  0  0  0  0  0  0
    9.8217   -6.5484   25.2826 H   0  0  0  0  0  0  0  0  0  0  0  0
   14.4828    0.3245   21.2443 H   0  0  0  0  0  0  0  0  0  0  0  0
   10.5021    0.1476   23.4219 H   0  0  0  0  0  0  0  0  0  0  0  0
   10.8500   -4.6309   24.3026 H   0  0  0  0  0  0  0  0  0  0  0  0
   12.0596   -3.3492   23.3668 H   0  0  0  0  0  0  0  0  0  0  0  0
  1  2  2  0  0  0  0
  1  4  1  0  0  0  0
  2  8  1  0  0  0  0
  3  6  2  0  0  0  0
  3  9  1  0  0  0  0
  4 11  2  0  0  0  0
  5  8  2  0  0  0  0
  5 11  1  0  0  0  0
  6 15  1  0  0  0  0
  7  9  2  0  0  0  0
  7 15  1  0  0  0  0
  8 12  1  0  0  0  0
  9 13  1  0  0  0  0
 10 12  1  0  0  0  0
 10 13  1  0  0  0  0
 10 14  2  0  0  0  0
  1 16  1  0  0  0  0
  2 17  1  0  0  0  0
  3 18  1  0  0  0  0
  4 19  1  0  0  0  0
  5 20  1  0  0  0  0
  6 21  1  0  0  0  0
  7 22  1  0  0  0  0
 12 23  1  0  0  0  0
 13 24  1  0  0  0  0
M  END
> <Chemgauss4 Score>
-4.53578996658325

> <Number of Confs>
4

$$$$
TRY-UNI-714-13
  -OEChem-03242005443D

 42 43  0     1  0  0  0  0  0999 V2000
    7.6501   -6.0087   28.1427 C   0  0  0  0  0  0  0  0  0  0  0  0
    8.2204   -5.5618   25.9626 C   0  0  0  0  0  0  0  0  0  0  0  0
    7.9733   -3.7475   27.4803 C   0  0  0  0  0  0  0  0  0  0  0  0
    7.6621   -4.6644   28.4781 C   0  0  0  0  0  0  0  0  0  0  0  0
    8.2590   -4.1965   26.1957 C   0  0  0  0  0  0  0  0  0  0  0  0
    8.8874   -3.6232   23.8246 C   0  0  0  0  0  0  0  0  0  0  0  0
   13.1228   -0.5066   23.2348 C   0  0  0  0  0  0  0  0  0  0  0  0
   12.8753   -1.7808   24.0361 C   0  0  0  0  0  0  0  0  0  0  0  0
   11.8953    0.3991   23.2278 C   0  0  0  0  0  0  0  0  0  0  0  0
   11.6346   -2.5232   23.5449 C   0  0  0  0  0  0  0  0  0  0  0  0
   10.6528   -0.3396   22.7355 C   0  0  0  0  0  0  0  0  0  0  0  0
   10.3955   -1.6177   23.5450 C   0  0  0  0  0  0  0  0  0  0  0  0
    8.0004   -2.2829   27.7871 C   0  0  0  0  0  0  0  0  0  0  0  0
    7.9577   -1.4508   22.9858 C   0  0  0  0  0  0  0  0  0  0  0  0
    9.1805   -2.3661   22.9999 C   0  0  2  0  0  0  0  0  0  0  0  0
    7.9222   -6.4828   26.9063 N   0  0  0  0  0  0  0  0  0  0  0  0
    7.3663   -4.2594   29.7921 N   0  0  0  0  0  0  0  0  0  0  0  0
    8.5824   -3.3051   25.1450 N   0  0  0  0  0  0  0  0  0  0  0  0
    8.9251   -4.7436   23.3241 O   0  0  0  0  0  0  0  0  0  0  0  0
    7.4145   -6.7722   28.8783 H   0  0  0  0  0  0  0  0  0  0  0  0
    8.4346   -5.9736   24.9808 H   0  0  0  0  0  0  0  0  0  0  0  0
   13.9775    0.0342   23.6567 H   0  0  0  0  0  0  0  0  0  0  0  0
   13.3871   -0.7702   22.2033 H   0  0  0  0  0  0  0  0  0  0  0  0
   13.7504   -2.4367   23.9637 H   0  0  0  0  0  0  0  0  0  0  0  0
   12.7529   -1.5278   25.0965 H   0  0  0  0  0  0  0  0  0  0  0  0
   11.7159    0.7792   24.2411 H   0  0  0  0  0  0  0  0  0  0  0  0
   12.0840    1.2697   22.5894 H   0  0  0  0  0  0  0  0  0  0  0  0
   11.8198   -2.9027   22.5317 H   0  0  0  0  0  0  0  0  0  0  0  0
   11.4596   -3.3973   24.1835 H   0  0  0  0  0  0  0  0  0  0  0  0
    9.7850    0.3273   22.8029 H   0  0  0  0  0  0  0  0  0  0  0  0
   10.7794   -0.5890   21.6740 H   0  0  0  0  0  0  0  0  0  0  0  0
   10.1775   -1.3310   24.5824 H   0  0  0  0  0  0  0  0  0  0  0  0
    9.0031   -1.9842   28.1106 H   0  0  0  0  0  0  0  0  0  0  0  0
    7.7236   -1.6916   26.9070 H   0  0  0  0  0  0  0  0  0  0  0  0
    7.2857   -2.0340   28.5798 H   0  0  0  0  0  0  0  0  0  0  0  0
    7.7050   -1.1211   23.9990 H   0  0  0  0  0  0  0  0  0  0  0  0
    7.0814   -1.9613   22.5731 H   0  0  0  0  0  0  0  0  0  0  0  0
    8.1376   -0.5615   22.3715 H   0  0  0  0  0  0  0  0  0  0  0  0
    9.4062   -2.6775   21.9721 H   0  0  0  0  0  0  0  0  0  0  0  0
    7.1010   -4.9470   30.4708 H   0  0  0  0  0  0  0  0  0  0  0  0
    7.3324   -3.2819   30.0093 H   0  0  0  0  0  0  0  0  0  0  0  0
    8.5933   -2.3156   25.3828 H   0  0  0  0  0  0  0  0  0  0  0  0
  1  4  2  0  0  0  0
  1 16  1  0  0  0  0
  2  5  1  0  0  0  0
  2 16  2  0  0  0  0
  3  4  1  0  0  0  0
  3  5  2  0  0  0  0
  3 13  1  0  0  0  0
  4 17  1  0  0  0  0
  5 18  1  0  0  0  0
  6 15  1  0  0  0  0
  6 18  1  0  0  0  0
  6 19  2  0  0  0  0
  7  8  1  0  0  0  0
  7  9  1  0  0  0  0
  8 10  1  0  0  0  0
  9 11  1  0  0  0  0
 10 12  1  0  0  0  0
 11 12  1  0  0  0  0
 12 15  1  0  0  0  0
 14 15  1  1  0  0  0
  1 20  1  0  0  0  0
  2 21  1  0  0  0  0
  7 22  1  0  0  0  0
  7 23  1  0  0  0  0
  8 24  1  0  0  0  0
  8 25  1  0  0  0  0
  9 26  1  0  0  0  0
  9 27  1  0  0  0  0
 10 28  1  0  0  0  0
 10 29  1  0  0  0  0
 11 30  1  0  0  0  0
 11 31  1  0  0  0  0
 12 32  1  0  0  0  0
 13 33  1  0  0  0  0
 13 34  1  0  0  0  0
 13 35  1  0  0  0  0
 14 36  1  0  0  0  0
 14 37  1  0  0  0  0
 14 38  1  0  0  0  0
 15 39  1  0  0  0  0
 17 40  1  0  0  0  0
 17 41  1  0  0  0  0
 18 42  1  0  0  0  0
M  END
> <Chemgauss4 Score>
-4.53157234191895

> <Number of Confs>
23

$$$$
NAU-LAT-ec9-4
  -OEChem-03242005443D

 43 46  0     0  0  0  0  0  0999 V2000
    6.6530    0.9152   20.5719 C   0  0  0  0  0  0  0  0  0  0  0  0
   11.6479   -0.0086   22.9488 C   0  0  0  0  0  0  0  0  0  0  0  0
    7.0040    1.2775   21.8723 C   0  0  0  0  0  0  0  0  0  0  0  0
    6.7090   -0.4227   20.1814 C   0  0  0  0  0  0  0  0  0  0  0  0
   11.7467   -1.3026   22.4001 C   0  0  0  0  0  0  0  0  0  0  0  0
   11.1811    0.1831   24.2500 C   0  0  0  0  0  0  0  0  0  0  0  0
    7.4111    0.3019   22.7823 C   0  0  0  0  0  0  0  0  0  0  0  0
    7.1162   -1.3984   21.0913 C   0  0  0  0  0  0  0  0  0  0  0  0
   11.3805   -2.4318   23.1419 C   0  0  0  0  0  0  0  0  0  0  0  0
   10.8277   -0.9465   24.9569 C   0  0  0  0  0  0  0  0  0  0  0  0
    7.4672   -1.0361   22.3918 C   0  0  0  0  0  0  0  0  0  0  0  0
   10.9190   -2.2332   24.4301 C   0  0  0  0  0  0  0  0  0  0  0  0
    6.8895   -4.0220   25.0911 C   0  0  0  0  0  0  0  0  0  0  0  0
   10.3133   -1.0830   26.3169 C   0  0  0  0  0  0  0  0  0  0  0  0
   10.1052   -2.5737   26.5556 C   0  0  0  0  0  0  0  0  0  0  0  0
    7.9044   -2.0841   23.3682 C   0  0  0  0  0  0  0  0  0  0  0  0
    9.1410   -5.0765   24.5456 C   0  0  0  0  0  0  0  0  0  0  0  0
   10.4629   -4.6087   25.1446 C   0  0  0  0  0  0  0  0  0  0  0  0
    6.1045   -4.0033   26.1436 N   0  0  0  0  0  0  0  0  0  0  0  0
    6.7490   -4.7542   27.1007 N   0  0  0  0  0  0  0  0  0  0  0  0
    7.9033   -5.2226   26.6421 N   0  0  0  0  0  0  0  0  0  0  0  0
    7.9889   -4.7634   25.3858 N   0  0  0  0  0  0  0  0  0  0  0  0
   10.4926   -3.1850   25.3752 N   0  0  0  0  0  0  0  0  0  0  0  0
   10.0819   -0.2230   27.1317 O   0  0  0  0  0  0  0  0  0  0  0  0
    9.6832   -3.0134   27.6033 O   0  0  0  0  0  0  0  0  0  0  0  0
    6.6359   -4.2145   22.5156 O   0  0  0  0  0  0  0  0  0  0  0  0
    5.3444   -2.4210   23.7244 O   0  0  0  0  0  0  0  0  0  0  0  0
    6.5537   -3.2235   23.5814 S   0  0  0  0  0  0  0  0  0  0  0  0
    6.3348    1.6749   19.8638 H   0  0  0  0  0  0  0  0  0  0  0  0
   11.9397    0.8494   22.3488 H   0  0  0  0  0  0  0  0  0  0  0  0
    6.9594    2.3191   22.1768 H   0  0  0  0  0  0  0  0  0  0  0  0
    6.4348   -0.7053   19.1693 H   0  0  0  0  0  0  0  0  0  0  0  0
   12.1133   -1.4241   21.3839 H   0  0  0  0  0  0  0  0  0  0  0  0
   11.1031    1.1759   24.6766 H   0  0  0  0  0  0  0  0  0  0  0  0
    7.6830    0.5934   23.7934 H   0  0  0  0  0  0  0  0  0  0  0  0
    7.1569   -2.4383   20.7782 H   0  0  0  0  0  0  0  0  0  0  0  0
   11.4627   -3.4210   22.7060 H   0  0  0  0  0  0  0  0  0  0  0  0
    8.1481   -1.6577   24.3453 H   0  0  0  0  0  0  0  0  0  0  0  0
    8.7701   -2.6459   23.0061 H   0  0  0  0  0  0  0  0  0  0  0  0
    8.9726   -4.5901   23.5772 H   0  0  0  0  0  0  0  0  0  0  0  0
    9.1466   -6.1585   24.3678 H   0  0  0  0  0  0  0  0  0  0  0  0
   10.6255   -5.0900   26.1138 H   0  0  0  0  0  0  0  0  0  0  0  0
   11.3080   -4.8535   24.4932 H   0  0  0  0  0  0  0  0  0  0  0  0
  1  3  1  0  0  0  0
  1  4  2  0  0  0  0
  2  5  1  0  0  0  0
  2  6  2  0  0  0  0
  3  7  2  0  0  0  0
  4  8  1  0  0  0  0
  5  9  2  0  0  0  0
  6 10  1  0  0  0  0
  7 11  1  0  0  0  0
  8 11  2  0  0  0  0
  9 12  1  0  0  0  0
 10 12  2  0  0  0  0
 10 14  1  0  0  0  0
 11 16  1  0  0  0  0
 12 23  1  0  0  0  0
 13 19  2  0  0  0  0
 13 22  1  0  0  0  0
 13 28  1  0  0  0  0
 14 15  1  0  0  0  0
 14 24  2  0  0  0  0
 15 23  1  0  0  0  0
 15 25  2  0  0  0  0
 16 28  1  0  0  0  0
 17 18  1  0  0  0  0
 17 22  1  0  0  0  0
 18 23  1  0  0  0  0
 19 20  1  0  0  0  0
 20 21  2  0  0  0  0
 21 22  1  0  0  0  0
 26 28  2  0  0  0  0
 27 28  2  0  0  0  0
  1 29  1  0  0  0  0
  2 30  1  0  0  0  0
  3 31  1  0  0  0  0
  4 32  1  0  0  0  0
  5 33  1  0  0  0  0
  6 34  1  0  0  0  0
  7 35  1  0  0  0  0
  8 36  1  0  0  0  0
  9 37  1  0  0  0  0
 16 38  1  0  0  0  0
 16 39  1  0  0  0  0
 17 40  1  0  0  0  0
 17 41  1  0  0  0  0
 18 42  1  0  0  0  0
 18 43  1  0  0  0  0
M  END
> <Chemgauss4 Score>
-4.52927207946777

> <Number of Confs>
200

$$$$
NIM-UNI-36e-2
  -OEChem-03242005443D

 47 50  0     1  0  0  0  0  0999 V2000
   14.2103   -0.3807   22.5665 C   0  0  0  0  0  0  0  0  0  0  0  0
   13.6940   -1.1343   21.5125 C   0  0  0  0  0  0  0  0  0  0  0  0
   13.3873   -0.0165   23.6322 C   0  0  0  0  0  0  0  0  0  0  0  0
    7.9076   -6.9595   28.6333 C   0  0  0  0  0  0  0  0  0  0  0  0
   12.3547   -1.5236   21.5239 C   0  0  0  0  0  0  0  0  0  0  0  0
   12.0479   -0.4057   23.6437 C   0  0  0  0  0  0  0  0  0  0  0  0
    8.3384   -6.3964   27.4372 C   0  0  0  0  0  0  0  0  0  0  0  0
    7.9195   -6.1626   29.7667 C   0  0  0  0  0  0  0  0  0  0  0  0
    8.7355   -4.3598   28.5995 C   0  0  0  0  0  0  0  0  0  0  0  0
   11.5315   -1.1593   22.5896 C   0  0  0  0  0  0  0  0  0  0  0  0
    8.7620   -5.0723   27.4115 C   0  0  0  0  0  0  0  0  0  0  0  0
    9.2787   -5.1006   24.9288 C   0  0  0  0  0  0  0  0  0  0  0  0
    8.8157   -1.1205   27.4053 C   0  0  0  0  0  0  0  0  0  0  0  0
    7.5502   -2.0145   25.4011 C   0  0  0  0  0  0  0  0  0  0  0  0
    8.1187   -1.6978   24.0099 C   0  0  0  0  0  0  0  0  0  0  0  0
   10.1558   -2.9164   24.6500 C   0  0  1  0  0  0  0  0  0  0  0  0
    9.6668   -3.0708   26.1112 C   0  0  2  0  0  0  0  0  0  0  0  0
    7.8371    0.0257   27.4485 C   0  0  0  0  0  0  0  0  0  0  0  0
   10.0897   -1.5778   22.6025 C   0  0  0  0  0  0  0  0  0  0  0  0
    8.3238   -4.8726   29.7807 N   0  0  0  0  0  0  0  0  0  0  0  0
    9.8041   -4.1669   24.0248 N   0  0  0  0  0  0  0  0  0  0  0  0
    9.2103   -4.4661   26.1984 N   0  0  0  0  0  0  0  0  0  0  0  0
    8.6235   -2.0682   26.3977 N   0  0  0  0  0  0  0  0  0  0  0  0
    9.5855   -1.7568   23.9591 N   0  0  1  0  0  0  0  0  0  0  0  0
    8.9821   -6.2468   24.6165 O   0  0  0  0  0  0  0  0  0  0  0  0
    9.7207   -1.1700   28.2421 O   0  0  0  0  0  0  0  0  0  0  0  0
   15.2536   -0.0788   22.5581 H   0  0  0  0  0  0  0  0  0  0  0  0
   14.3350   -1.4189   20.6831 H   0  0  0  0  0  0  0  0  0  0  0  0
   13.7892    0.5693   24.4536 H   0  0  0  0  0  0  0  0  0  0  0  0
    7.5731   -7.9897   28.6769 H   0  0  0  0  0  0  0  0  0  0  0  0
   11.9610   -2.1105   20.6982 H   0  0  0  0  0  0  0  0  0  0  0  0
   11.4140   -0.1173   24.4781 H   0  0  0  0  0  0  0  0  0  0  0  0
    8.3400   -6.9978   26.5320 H   0  0  0  0  0  0  0  0  0  0  0  0
    7.5939   -6.5550   30.7244 H   0  0  0  0  0  0  0  0  0  0  0  0
    9.0536   -3.3224   28.6428 H   0  0  0  0  0  0  0  0  0  0  0  0
    6.7853   -1.2798   25.6602 H   0  0  0  0  0  0  0  0  0  0  0  0
    7.0564   -2.9931   25.3960 H   0  0  0  0  0  0  0  0  0  0  0  0
    7.6704   -2.3858   23.2816 H   0  0  0  0  0  0  0  0  0  0  0  0
    7.8034   -0.6851   23.7300 H   0  0  0  0  0  0  0  0  0  0  0  0
   11.2508   -2.8516   24.6469 H   0  0  0  0  0  0  0  0  0  0  0  0
   10.5080   -2.9510   26.8040 H   0  0  0  0  0  0  0  0  0  0  0  0
    7.0000   -0.2455   28.0834 H   0  0  0  0  0  0  0  0  0  0  0  0
    7.4870    0.2328   26.4421 H   0  0  0  0  0  0  0  0  0  0  0  0
    8.3354    0.9037   27.8470 H   0  0  0  0  0  0  0  0  0  0  0  0
    9.4652   -0.8265   22.1069 H   0  0  0  0  0  0  0  0  0  0  0  0
    9.9498   -2.5222   22.0660 H   0  0  0  0  0  0  0  0  0  0  0  0
    9.9799   -4.3827   23.0488 H   0  0  0  0  0  0  0  0  0  0  0  0
  1  2  1  0  0  0  0
  1  3  2  0  0  0  0
  2  5  2  0  0  0  0
  3  6  1  0  0  0  0
  4  7  2  0  0  0  0
  4  8  1  0  0  0  0
  5 10  1  0  0  0  0
  6 10  2  0  0  0  0
  7 11  1  0  0  0  0
  8 20  2  0  0  0  0
  9 11  2  0  0  0  0
  9 20  1  0  0  0  0
 10 19  1  0  0  0  0
 11 22  1  0  0  0  0
 12 21  1  0  0  0  0
 12 22  1  0  0  0  0
 12 25  2  0  0  0  0
 13 18  1  0  0  0  0
 13 23  1  0  0  0  0
 13 26  2  0  0  0  0
 14 15  1  0  0  0  0
 14 23  1  0  0  0  0
 15 24  1  0  0  0  0
 16 17  1  0  0  0  0
 16 21  1  1  0  0  0
 16 24  1  0  0  0  0
 17 22  1  0  0  0  0
 17 23  1  6  0  0  0
 19 24  1  6  0  0  0
  1 27  1  0  0  0  0
  2 28  1  0  0  0  0
  3 29  1  0  0  0  0
  4 30  1  0  0  0  0
  5 31  1  0  0  0  0
  6 32  1  0  0  0  0
  7 33  1  0  0  0  0
  8 34  1  0  0  0  0
  9 35  1  0  0  0  0
 14 36  1  0  0  0  0
 14 37  1  0  0  0  0
 15 38  1  0  0  0  0
 15 39  1  0  0  0  0
 16 40  1  0  0  0  0
 17 41  1  0  0  0  0
 18 42  1  0  0  0  0
 18 43  1  0  0  0  0
 18 44  1  0  0  0  0
 19 45  1  0  0  0  0
 19 46  1  0  0  0  0
 21 47  1  0  0  0  0
M  END
> <Chemgauss4 Score>
-4.52799987792969

> <Number of Confs>
36

$$$$
TRY-UNI-714-9
  -OEChem-03242005443D

 32 33  0     0  0  0  0  0  0999 V2000
    7.0402   -5.5117   28.6025 C   0  0  0  0  0  0  0  0  0  0  0  0
    7.8259   -4.9177   27.6149 C   0  0  0  0  0  0  0  0  0  0  0  0
    5.8405   -6.1347   28.2584 C   0  0  0  0  0  0  0  0  0  0  0  0
    6.2123   -5.5695   25.9391 C   0  0  0  0  0  0  0  0  0  0  0  0
   12.3279    0.0928   23.3315 C   0  0  0  0  0  0  0  0  0  0  0  0
   10.5637   -0.7449   24.5414 C   0  0  0  0  0  0  0  0  0  0  0  0
   11.5512   -2.1048   22.8587 C   0  0  0  0  0  0  0  0  0  0  0  0
    7.4120   -4.9466   26.2832 C   0  0  0  0  0  0  0  0  0  0  0  0
   12.4394   -1.0702   22.5867 C   0  0  0  0  0  0  0  0  0  0  0  0
   10.5923   -1.9471   23.8531 C   0  0  0  0  0  0  0  0  0  0  0  0
    5.4266   -6.1636   26.9267 C   0  0  0  0  0  0  0  0  0  0  0  0
    9.0664   -3.2380   25.4102 C   0  0  0  0  0  0  0  0  0  0  0  0
   11.6264   -3.3831   22.0841 C   0  0  0  0  0  0  0  0  0  0  0  0
   11.4097    0.2828   24.3053 N   0  0  0  0  0  0  0  0  0  0  0  0
   13.4265   -1.1820   21.5911 N   0  0  0  0  0  0  0  0  0  0  0  0
    8.1984   -4.3513   25.2965 N   0  0  0  0  0  0  0  0  0  0  0  0
    9.6662   -2.9689   24.1694 N   0  0  0  0  0  0  0  0  0  0  0  0
    9.2607   -2.6065   26.4439 O   0  0  0  0  0  0  0  0  0  0  0  0
    3.9464   -6.9322   26.5019 Cl  0  0  0  0  0  0  0  0  0  0  0  0
    7.3625   -5.4892   29.6396 H   0  0  0  0  0  0  0  0  0  0  0  0
    8.7590   -4.4350   27.8951 H   0  0  0  0  0  0  0  0  0  0  0  0
    5.2390   -6.5934   29.0388 H   0  0  0  0  0  0  0  0  0  0  0  0
    5.8927   -5.5905   24.8994 H   0  0  0  0  0  0  0  0  0  0  0  0
   12.9926    0.9356   23.1656 H   0  0  0  0  0  0  0  0  0  0  0  0
    9.8389   -0.5619   25.3291 H   0  0  0  0  0  0  0  0  0  0  0  0
   12.3020   -4.0864   22.5823 H   0  0  0  0  0  0  0  0  0  0  0  0
   10.6378   -3.8476   21.9948 H   0  0  0  0  0  0  0  0  0  0  0  0
   11.9914   -3.2052   21.0661 H   0  0  0  0  0  0  0  0  0  0  0  0
   14.0168   -0.3970   21.3934 H   0  0  0  0  0  0  0  0  0  0  0  0
   13.4655   -2.0100   21.0283 H   0  0  0  0  0  0  0  0  0  0  0  0
    8.1401   -4.7763   24.3650 H   0  0  0  0  0  0  0  0  0  0  0  0
    9.4069   -3.5797   23.3988 H   0  0  0  0  0  0  0  0  0  0  0  0
  1  2  2  0  0  0  0
  1  3  1  0  0  0  0
  2  8  1  0  0  0  0
  3 11  2  0  0  0  0
  4  8  2  0  0  0  0
  4 11  1  0  0  0  0
  5  9  2  0  0  0  0
  5 14  1  0  0  0  0
  6 10  1  0  0  0  0
  6 14  2  0  0  0  0
  7  9  1  0  0  0  0
  7 10  2  0  0  0  0
  7 13  1  0  0  0  0
  8 16  1  0  0  0  0
  9 15  1  0  0  0  0
 10 17  1  0  0  0  0
 11 19  1  0  0  0  0
 12 16  1  0  0  0  0
 12 17  1  0  0  0  0
 12 18  2  0  0  0  0
  1 20  1  0  0  0  0
  2 21  1  0  0  0  0
  3 22  1  0  0  0  0
  4 23  1  0  0  0  0
  5 24  1  0  0  0  0
  6 25  1  0  0  0  0
 13 26  1  0  0  0  0
 13 27  1  0  0  0  0
 13 28  1  0  0  0  0
 15 29  1  0  0  0  0
 15 30  1  0  0  0  0
 16 31  1  0  0  0  0
 17 32  1  0  0  0  0
M  END
> <Chemgauss4 Score>
-4.52495574951172

> <Number of Confs>
6

$$$$
DAR-DIA-842-12
  -OEChem-03242005443D

 28 29  0     0  0  0  0  0  0999 V2000
   12.2927   -0.9222   22.4353 C   0  0  0  0  0  0  0  0  0  0  0  0
   11.3962   -1.9451   22.7241 C   0  0  0  0  0  0  0  0  0  0  0  0
    9.1926   -5.1385   27.7308 C   0  0  0  0  0  0  0  0  0  0  0  0
    9.4994   -5.0232   26.3442 C   0  0  0  0  0  0  0  0  0  0  0  0
   12.1587    0.2717   23.1254 C   0  0  0  0  0  0  0  0  0  0  0  0
   10.3577   -0.5148   24.3153 C   0  0  0  0  0  0  0  0  0  0  0  0
   10.4071   -1.7455   23.6808 C   0  0  0  0  0  0  0  0  0  0  0  0
    7.8345   -5.1496   27.9611 C   0  0  0  0  0  0  0  0  0  0  0  0
    8.3639   -4.9509   25.5673 C   0  0  0  0  0  0  0  0  0  0  0  0
    9.4059   -4.0450   23.4468 C   0  0  0  0  0  0  0  0  0  0  0  0
    7.1206   -5.2546   29.2522 C   0  0  0  0  0  0  0  0  0  0  0  0
    8.2589   -4.8249   24.0700 C   0  0  0  0  0  0  0  0  0  0  0  0
   11.2109    0.5026   24.0614 N   0  0  0  0  0  0  0  0  0  0  0  0
    9.4950   -2.7513   23.9911 N   0  0  0  0  0  0  0  0  0  0  0  0
   10.1316   -4.5253   22.5820 O   0  0  0  0  0  0  0  0  0  0  0  0
    6.9356   -5.0217   26.5092 S   0  0  0  0  0  0  0  0  0  0  0  0
   13.0717   -1.0555   21.6933 H   0  0  0  0  0  0  0  0  0  0  0  0
   11.4773   -2.8927   22.1983 H   0  0  0  0  0  0  0  0  0  0  0  0
    9.9341   -5.2106   28.5164 H   0  0  0  0  0  0  0  0  0  0  0  0
   10.5038   -4.9967   25.9410 H   0  0  0  0  0  0  0  0  0  0  0  0
   12.8325    1.1008   22.9361 H   0  0  0  0  0  0  0  0  0  0  0  0
    9.6084   -0.2992   25.0713 H   0  0  0  0  0  0  0  0  0  0  0  0
    6.9365   -4.2580   29.6831 H   0  0  0  0  0  0  0  0  0  0  0  0
    6.1473   -5.7604   29.1435 H   0  0  0  0  0  0  0  0  0  0  0  0
    7.6911   -5.8417   29.9904 H   0  0  0  0  0  0  0  0  0  0  0  0
    8.2266   -5.8243   23.6177 H   0  0  0  0  0  0  0  0  0  0  0  0
    7.3138   -4.3321   23.8087 H   0  0  0  0  0  0  0  0  0  0  0  0
    8.7981   -2.5182   24.7096 H   0  0  0  0  0  0  0  0  0  0  0  0
  1  2  2  0  0  0  0
  1  5  1  0  0  0  0
  2  7  1  0  0  0  0
  3  4  1  0  0  0  0
  3  8  2  0  0  0  0
  4  9  2  0  0  0  0
  5 13  2  0  0  0  0
  6  7  2  0  0  0  0
  6 13  1  0  0  0  0
  7 14  1  0  0  0  0
  8 11  1  0  0  0  0
  8 16  1  0  0  0  0
  9 12  1  0  0  0  0
  9 16  1  0  0  0  0
 10 12  1  0  0  0  0
 10 14  1  0  0  0  0
 10 15  2  0  0  0  0
  1 17  1  0  0  0  0
  2 18  1  0  0  0  0
  3 19  1  0  0  0  0
  4 20  1  0  0  0  0
  5 21  1  0  0  0  0
  6 22  1  0  0  0  0
 11 23  1  0  0  0  0
 11 24  1  0  0  0  0
 11 25  1  0  0  0  0
 12 26  1  0  0  0  0
 12 27  1  0  0  0  0
 14 28  1  0  0  0  0
M  END
> <Chemgauss4 Score>
-4.52171087265015

> <Number of Confs>
76

$$$$
DAN-LON-a5f-6
  -OEChem-03242005443D

 44 46  0     1  0  0  0  0  0999 V2000
    6.3673   -2.6115   22.3639 C   0  0  0  0  0  0  0  0  0  0  0  0
    7.0961   -3.7839   22.1648 C   0  0  0  0  0  0  0  0  0  0  0  0
    6.9455   -1.5372   23.0403 C   0  0  0  0  0  0  0  0  0  0  0  0
    7.5970   -5.7904   28.7472 C   0  0  0  0  0  0  0  0  0  0  0  0
    8.4031   -3.8823   22.6421 C   0  0  0  0  0  0  0  0  0  0  0  0
    8.2524   -1.6356   23.5176 C   0  0  0  0  0  0  0  0  0  0  0  0
    8.6988   -4.9440   28.6239 C   0  0  0  0  0  0  0  0  0  0  0  0
    6.4672   -5.5844   27.9555 C   0  0  0  0  0  0  0  0  0  0  0  0
    7.5410   -3.6856   26.9171 C   0  0  0  0  0  0  0  0  0  0  0  0
    8.9813   -2.8081   23.3185 C   0  0  0  0  0  0  0  0  0  0  0  0
    8.6708   -3.8916   27.7089 C   0  0  0  0  0  0  0  0  0  0  0  0
    6.4392   -4.5320   27.0404 C   0  0  0  0  0  0  0  0  0  0  0  0
   11.5065   -1.1869   22.4467 C   0  0  0  0  0  0  0  0  0  0  0  0
   11.7233   -1.0969   24.9613 C   0  0  0  0  0  0  0  0  0  0  0  0
   10.8165   -1.2425   26.1889 C   0  0  0  0  0  0  0  0  0  0  0  0
   10.4338   -3.4734   25.2782 C   0  0  0  0  0  0  0  0  0  0  0  0
   10.4112   -2.9151   23.8412 C   0  0  2  0  0  0  0  0  0  0  0  0
    9.8567   -2.9802   27.5776 C   0  0  0  0  0  0  0  0  0  0  0  0
   12.4997   -0.0536   22.3833 C   0  0  0  0  0  0  0  0  0  0  0  0
   11.1632   -1.6498   23.7247 N   0  0  0  0  0  0  0  0  0  0  0  0
    9.9925   -2.4530   26.2251 N   0  0  1  0  0  0  0  0  0  0  0  0
   11.0420   -1.6441   21.3989 O   0  0  0  0  0  0  0  0  0  0  0  0
    5.0446   -4.2777   26.0646 Cl  0  0  0  0  0  0  0  0  0  0  0  0
   14.0985   -0.7877   22.3355 Cl  0  0  0  0  0  0  0  0  0  0  0  0
    5.3501   -2.5346   21.9911 H   0  0  0  0  0  0  0  0  0  0  0  0
    6.6465   -4.6201   21.6372 H   0  0  0  0  0  0  0  0  0  0  0  0
    6.3787   -0.6238   23.1946 H   0  0  0  0  0  0  0  0  0  0  0  0
    7.6191   -6.6097   29.4600 H   0  0  0  0  0  0  0  0  0  0  0  0
    8.9633   -4.7998   22.4825 H   0  0  0  0  0  0  0  0  0  0  0  0
    8.6947   -0.7936   24.0436 H   0  0  0  0  0  0  0  0  0  0  0  0
    9.5748   -5.1118   29.2450 H   0  0  0  0  0  0  0  0  0  0  0  0
    5.6157   -6.2519   28.0625 H   0  0  0  0  0  0  0  0  0  0  0  0
    7.5244   -2.8639   26.2048 H   0  0  0  0  0  0  0  0  0  0  0  0
   11.9270   -0.0294   24.7671 H   0  0  0  0  0  0  0  0  0  0  0  0
   12.6964   -1.5537   25.1948 H   0  0  0  0  0  0  0  0  0  0  0  0
   11.4428   -1.1661   27.1112 H   0  0  0  0  0  0  0  0  0  0  0  0
   10.1555   -0.3454   26.2235 H   0  0  0  0  0  0  0  0  0  0  0  0
    9.7897   -4.3457   25.3400 H   0  0  0  0  0  0  0  0  0  0  0  0
   11.4514   -3.7811   25.5081 H   0  0  0  0  0  0  0  0  0  0  0  0
   10.9051   -3.6731   23.1871 H   0  0  0  0  0  0  0  0  0  0  0  0
    9.7685   -2.1305   28.2635 H   0  0  0  0  0  0  0  0  0  0  0  0
   10.7850   -3.5047   27.8273 H   0  0  0  0  0  0  0  0  0  0  0  0
   12.3956    0.5545   23.2744 H   0  0  0  0  0  0  0  0  0  0  0  0
   12.3242    0.5165   21.4784 H   0  0  0  0  0  0  0  0  0  0  0  0
  1  2  1  0  0  0  0
  1  3  2  0  0  0  0
  2  5  2  0  0  0  0
  3  6  1  0  0  0  0
  4  7  2  0  0  0  0
  4  8  1  0  0  0  0
  5 10  1  0  0  0  0
  6 10  2  0  0  0  0
  7 11  1  0  0  0  0
  8 12  2  0  0  0  0
  9 11  2  0  0  0  0
  9 12  1  0  0  0  0
 10 17  1  1  0  0  0
 11 18  1  0  0  0  0
 12 23  1  0  0  0  0
 13 19  1  0  0  0  0
 13 20  1  0  0  0  0
 13 22  2  0  0  0  0
 14 15  1  0  0  0  0
 14 20  1  0  0  0  0
 15 21  1  0  0  0  0
 16 17  1  0  0  0  0
 16 21  1  0  0  0  0
 17 20  1  0  0  0  0
 18 21  1  6  0  0  0
 19 24  1  0  0  0  0
  1 25  1  0  0  0  0
  2 26  1  0  0  0  0
  3 27  1  0  0  0  0
  4 28  1  0  0  0  0
  5 29  1  0  0  0  0
  6 30  1  0  0  0  0
  7 31  1  0  0  0  0
  8 32  1  0  0  0  0
  9 33  1  0  0  0  0
 14 34  1  0  0  0  0
 14 35  1  0  0  0  0
 15 36  1  0  0  0  0
 15 37  1  0  0  0  0
 16 38  1  0  0  0  0
 16 39  1  0  0  0  0
 17 40  1  0  0  0  0
 18 41  1  0  0  0  0
 18 42  1  0  0  0  0
 19 43  1  0  0  0  0
 19 44  1  0  0  0  0
M  END
> <Chemgauss4 Score>
-4.5206446647644

> <Number of Confs>
192

$$$$
AVI-UNI-cf0-2
  -OEChem-03242005443D

 58 63  0     1  0  0  0  0  0999 V2000
   13.4702   -1.6515   21.7206 C   0  0  0  0  0  0  0  0  0  0  0  0
   12.2217   -2.0744   22.1728 C   0  0  0  0  0  0  0  0  0  0  0  0
   14.0872   -0.5847   22.3606 C   0  0  0  0  0  0  0  0  0  0  0  0
   10.5284   -0.4873   24.9635 C   0  0  0  0  0  0  0  0  0  0  0  0
   11.6555   -1.3913   23.2594 C   0  0  0  0  0  0  0  0  0  0  0  0
   10.4583   -1.4791   24.0132 C   0  0  0  0  0  0  0  0  0  0  0  0
   12.3826   -0.3371   23.8092 C   0  0  0  0  0  0  0  0  0  0  0  0
    7.2092   -3.1681   22.9664 C   0  0  0  0  0  0  0  0  0  0  0  0
    7.0062   -0.3611   21.9709 C   0  0  0  0  0  0  0  0  0  0  0  0
    9.3334   -2.4244   23.8530 C   0  0  0  0  0  0  0  0  0  0  0  0
    8.2672   -2.1697   23.0541 C   0  0  0  0  0  0  0  0  0  0  0  0
    8.1463   -0.9376   22.2889 C   0  0  0  0  0  0  0  0  0  0  0  0
    7.2593   -4.3183   23.6500 C   0  0  0  0  0  0  0  0  0  0  0  0
    7.4800    0.7981   21.2297 C   0  0  0  0  0  0  0  0  0  0  0  0
    9.4089   -3.7246   24.6265 C   0  0  0  0  0  0  0  0  0  0  0  0
    7.4383   -3.6702   28.6156 C   0  0  0  0  0  0  0  0  0  0  0  0
    6.1740   -5.3621   23.6027 C   0  0  0  0  0  0  0  0  0  0  0  0
    8.9727    0.8081   21.1689 C   0  0  0  0  0  0  0  0  0  0  0  0
    7.3858   -4.2622   27.2217 C   0  0  0  0  0  0  0  0  0  0  0  0
    7.5346   -6.5529   28.1850 C   0  0  0  0  0  0  0  0  0  0  0  0
    7.3229   -5.9907   29.5793 C   0  0  0  0  0  0  0  0  0  0  0  0
    8.3185   -5.8944   25.1609 C   0  0  0  0  0  0  0  0  0  0  0  0
    6.8116   -5.6764   27.1642 C   0  0  2  0  0  0  0  0  0  0  0  0
    6.9392   -6.2565   25.7579 C   0  0  1  0  0  0  0  0  0  0  0  0
    4.6959   -6.7296   24.9375 C   0  0  0  0  0  0  0  0  0  0  0  0
   13.5889    0.1094   23.4099 N   0  0  0  0  0  0  0  0  0  0  0  0
    7.5282   -4.5574   29.6640 N   0  0  0  0  0  0  0  0  0  0  0  0
    8.3308   -4.5957   24.4797 N   0  0  0  0  0  0  0  0  0  0  0  0
    5.7953   -5.7666   24.9612 N   0  0  2  0  0  0  0  0  0  0  0  0
    6.7441    1.6359   20.7339 O   0  0  0  0  0  0  0  0  0  0  0  0
   10.3912   -3.9550   25.3333 O   0  0  0  0  0  0  0  0  0  0  0  0
    7.4797   -2.4493   28.7779 O   0  0  0  0  0  0  0  0  0  0  0  0
   11.6884    0.2099   24.8490 O   0  0  0  0  0  0  0  0  0  0  0  0
    9.3410   -0.3755   21.8936 O   0  0  0  0  0  0  0  0  0  0  0  0
   13.9507   -2.1466   20.8835 H   0  0  0  0  0  0  0  0  0  0  0  0
   11.7135   -2.9053   21.6943 H   0  0  0  0  0  0  0  0  0  0  0  0
   15.0608   -0.2429   22.0190 H   0  0  0  0  0  0  0  0  0  0  0  0
    9.8699   -0.1602   25.7560 H   0  0  0  0  0  0  0  0  0  0  0  0
    6.3756   -2.9566   22.3086 H   0  0  0  0  0  0  0  0  0  0  0  0
    5.9880   -0.6339   22.1785 H   0  0  0  0  0  0  0  0  0  0  0  0
    5.3075   -4.9485   23.1034 H   0  0  0  0  0  0  0  0  0  0  0  0
    6.5413   -6.2117   23.0403 H   0  0  0  0  0  0  0  0  0  0  0  0
    9.3251    0.7272   20.1379 H   0  0  0  0  0  0  0  0  0  0  0  0
    9.3812    1.6859   21.6753 H   0  0  0  0  0  0  0  0  0  0  0  0
    6.7818   -3.5961   26.5941 H   0  0  0  0  0  0  0  0  0  0  0  0
    8.4108   -4.2470   26.8306 H   0  0  0  0  0  0  0  0  0  0  0  0
    8.6079   -6.5947   27.9605 H   0  0  0  0  0  0  0  0  0  0  0  0
    7.1580   -7.5817   28.1457 H   0  0  0  0  0  0  0  0  0  0  0  0
    6.2955   -6.1781   29.9109 H   0  0  0  0  0  0  0  0  0  0  0  0
    7.9962   -6.4681   30.2982 H   0  0  0  0  0  0  0  0  0  0  0  0
    9.0673   -5.8358   25.9445 H   0  0  0  0  0  0  0  0  0  0  0  0
    8.6230   -6.6591   24.4561 H   0  0  0  0  0  0  0  0  0  0  0  0
    5.7453   -5.6361   27.4261 H   0  0  0  0  0  0  0  0  0  0  0  0
    6.8570   -7.3549   25.8748 H   0  0  0  0  0  0  0  0  0  0  0  0
    4.4344   -7.0138   25.9674 H   0  0  0  0  0  0  0  0  0  0  0  0
    3.8212   -6.2753   24.4493 H   0  0  0  0  0  0  0  0  0  0  0  0
    5.0047   -7.6246   24.3774 H   0  0  0  0  0  0  0  0  0  0  0  0
    7.7581   -4.1752   30.5761 H   0  0  0  0  0  0  0  0  0  0  0  0
  1  2  2  0  0  0  0
  1  3  1  0  0  0  0
  2  5  1  0  0  0  0
  3 26  2  0  0  0  0
  4  6  2  0  0  0  0
  4 33  1  0  0  0  0
  5  6  1  0  0  0  0
  5  7  2  0  0  0  0
  6 10  1  0  0  0  0
  7 26  1  0  0  0  0
  7 33  1  0  0  0  0
  8 11  1  0  0  0  0
  8 13  2  0  0  0  0
  9 12  2  0  0  0  0
  9 14  1  0  0  0  0
 10 11  2  0  0  0  0
 10 15  1  0  0  0  0
 11 12  1  0  0  0  0
 12 34  1  0  0  0  0
 13 17  1  0  0  0  0
 13 28  1  0  0  0  0
 14 18  1  0  0  0  0
 14 30  2  0  0  0  0
 15 28  1  0  0  0  0
 15 31  2  0  0  0  0
 16 19  1  0  0  0  0
 16 27  1  0  0  0  0
 16 32  2  0  0  0  0
 17 29  1  0  0  0  0
 18 34  1  0  0  0  0
 19 23  1  6  0  0  0
 20 21  1  0  0  0  0
 20 23  1  0  0  0  0
 21 27  1  0  0  0  0
 22 24  1  1  0  0  0
 22 28  1  0  0  0  0
 23 24  1  0  0  0  0
 24 29  1  0  0  0  0
 25 29  1  1  0  0  0
  1 35  1  0  0  0  0
  2 36  1  0  0  0  0
  3 37  1  0  0  0  0
  4 38  1  0  0  0  0
  8 39  1  0  0  0  0
  9 40  1  0  0  0  0
 17 41  1  0  0  0  0
 17 42  1  0  0  0  0
 18 43  1  0  0  0  0
 18 44  1  0  0  0  0
 19 45  1  0  0  0  0
 19 46  1  0  0  0  0
 20 47  1  0  0  0  0
 20 48  1  0  0  0  0
 21 49  1  0  0  0  0
 21 50  1  0  0  0  0
 22 51  1  0  0  0  0
 22 52  1  0  0  0  0
 23 53  1  0  0  0  0
 24 54  1  0  0  0  0
 25 55  1  0  0  0  0
 25 56  1  0  0  0  0
 25 57  1  0  0  0  0
 27 58  1  0  0  0  0
M  END
> <Chemgauss4 Score>
-4.52039527893066

> <Number of Confs>
134

$$$$
HEI-REL-0c9-6
  -OEChem-03242005443D

 53 56  0     1  0  0  0  0  0999 V2000
    6.9448   -1.8552   21.2391 C   0  0  0  0  0  0  0  0  0  0  0  0
    6.5047   -2.0698   22.5421 C   0  0  0  0  0  0  0  0  0  0  0  0
    8.2437   -1.4035   21.0080 C   0  0  0  0  0  0  0  0  0  0  0  0
    7.3623   -1.8308   23.6151 C   0  0  0  0  0  0  0  0  0  0  0  0
    7.7360   -3.3801   28.4274 C   0  0  0  0  0  0  0  0  0  0  0  0
    6.6813   -4.2782   28.3148 C   0  0  0  0  0  0  0  0  0  0  0  0
    7.3010   -4.6799   26.0161 C   0  0  0  0  0  0  0  0  0  0  0  0
    9.1180   -1.1621   22.0785 C   0  0  0  0  0  0  0  0  0  0  0  0
    8.6704   -1.3724   23.3949 C   0  0  0  0  0  0  0  0  0  0  0  0
    8.5876   -3.1330   27.3356 C   0  0  0  0  0  0  0  0  0  0  0  0
    8.3762   -3.7713   26.0904 C   0  0  0  0  0  0  0  0  0  0  0  0
    6.4657   -4.9307   27.1094 C   0  0  0  0  0  0  0  0  0  0  0  0
   12.7597   -0.5011   22.9349 C   0  0  0  0  0  0  0  0  0  0  0  0
    9.7048   -2.1371   27.5198 C   0  0  0  0  0  0  0  0  0  0  0  0
   10.5147   -0.6741   21.7817 C   0  0  0  0  0  0  0  0  0  0  0  0
   10.7907   -2.3253   26.4708 C   0  0  0  0  0  0  0  0  0  0  0  0
   10.6736   -0.1046   24.1981 C   0  0  0  0  0  0  0  0  0  0  0  0
    9.5912   -1.1243   24.5697 C   0  0  2  0  0  0  0  0  0  0  0  0
   10.2058   -2.4376   25.0621 C   0  0  2  0  0  0  0  0  0  0  0  0
   13.3956   -1.3753   21.8819 C   0  0  0  0  0  0  0  0  0  0  0  0
    9.2426   -4.4109   23.8516 C   0  0  0  0  0  0  0  0  0  0  0  0
    9.2084   -3.5144   25.0007 N   0  0  3  0  0  0  0  0  0  0  0  0
   11.3630   -0.4844   22.9654 N   0  0  0  0  0  0  0  0  0  0  0  0
    3.8892   -5.0279   26.4334 N   0  0  0  0  0  0  0  0  0  0  0  0
   13.4791    0.1378   23.7065 O   0  0  0  0  0  0  0  0  0  0  0  0
    5.4617   -6.9952   25.8835 O   0  0  0  0  0  0  0  0  0  0  0  0
    4.8129   -6.5683   28.2802 O   0  0  0  0  0  0  0  0  0  0  0  0
    5.1444   -6.0627   26.9557 S   0  0  0  0  0  0  0  0  0  0  0  0
    6.2773   -2.0399   20.4026 H   0  0  0  0  0  0  0  0  0  0  0  0
    5.4938   -2.4230   22.7232 H   0  0  0  0  0  0  0  0  0  0  0  0
    8.5743   -1.2411   19.9848 H   0  0  0  0  0  0  0  0  0  0  0  0
    7.0051   -2.0031   24.6273 H   0  0  0  0  0  0  0  0  0  0  0  0
    7.8982   -2.8696   29.3739 H   0  0  0  0  0  0  0  0  0  0  0  0
    6.0372   -4.4597   29.1704 H   0  0  0  0  0  0  0  0  0  0  0  0
    7.0894   -5.2088   25.0891 H   0  0  0  0  0  0  0  0  0  0  0  0
    9.2882   -1.1247   27.4626 H   0  0  0  0  0  0  0  0  0  0  0  0
   10.1533   -2.2534   28.5137 H   0  0  0  0  0  0  0  0  0  0  0  0
   10.9943   -1.3831   21.1003 H   0  0  0  0  0  0  0  0  0  0  0  0
   10.4565    0.3002   21.2820 H   0  0  0  0  0  0  0  0  0  0  0  0
   11.5055   -1.4959   26.5259 H   0  0  0  0  0  0  0  0  0  0  0  0
   11.3577   -3.2394   26.6926 H   0  0  0  0  0  0  0  0  0  0  0  0
   10.2248    0.8807   24.0165 H   0  0  0  0  0  0  0  0  0  0  0  0
   11.3831    0.0171   25.0237 H   0  0  0  0  0  0  0  0  0  0  0  0
    9.0033   -0.6895   25.3888 H   0  0  0  0  0  0  0  0  0  0  0  0
   11.0391   -2.6826   24.3912 H   0  0  0  0  0  0  0  0  0  0  0  0
   13.5397   -0.7928   20.9784 H   0  0  0  0  0  0  0  0  0  0  0  0
   12.7434   -2.2186   21.6805 H   0  0  0  0  0  0  0  0  0  0  0  0
   14.3512   -1.7340   22.2495 H   0  0  0  0  0  0  0  0  0  0  0  0
    9.9590   -4.0292   23.1092 H   0  0  0  0  0  0  0  0  0  0  0  0
    9.5533   -5.4142   24.1785 H   0  0  0  0  0  0  0  0  0  0  0  0
    8.2412   -4.4662   23.3999 H   0  0  0  0  0  0  0  0  0  0  0  0
    3.5755   -5.1050   25.4582 H   0  0  0  0  0  0  0  0  0  0  0  0
    3.1346   -4.8130   27.0965 H   0  0  0  0  0  0  0  0  0  0  0  0
  1  2  1  0  0  0  0
  1  3  2  0  0  0  0
  2  4  2  0  0  0  0
  3  8  1  0  0  0  0
  4  9  1  0  0  0  0
  5  6  2  0  0  0  0
  5 10  1  0  0  0  0
  6 12  1  0  0  0  0
  7 11  1  0  0  0  0
  7 12  2  0  0  0  0
  8  9  2  0  0  0  0
  8 15  1  0  0  0  0
  9 18  1  0  0  0  0
 10 11  2  0  0  0  0
 10 14  1  0  0  0  0
 11 22  1  0  0  0  0
 12 28  1  0  0  0  0
 13 20  1  0  0  0  0
 13 23  1  0  0  0  0
 13 25  2  0  0  0  0
 14 16  1  0  0  0  0
 15 23  1  0  0  0  0
 16 19  1  6  0  0  0
 17 18  1  1  0  0  0
 17 23  1  0  0  0  0
 18 19  1  0  0  0  0
 19 22  1  0  0  0  0
 21 22  1  6  0  0  0
 24 28  1  0  0  0  0
 26 28  2  0  0  0  0
 27 28  2  0  0  0  0
  1 29  1  0  0  0  0
  2 30  1  0  0  0  0
  3 31  1  0  0  0  0
  4 32  1  0  0  0  0
  5 33  1  0  0  0  0
  6 34  1  0  0  0  0
  7 35  1  0  0  0  0
 14 36  1  0  0  0  0
 14 37  1  0  0  0  0
 15 38  1  0  0  0  0
 15 39  1  0  0  0  0
 16 40  1  0  0  0  0
 16 41  1  0  0  0  0
 17 42  1  0  0  0  0
 17 43  1  0  0  0  0
 18 44  1  0  0  0  0
 19 45  1  0  0  0  0
 20 46  1  0  0  0  0
 20 47  1  0  0  0  0
 20 48  1  0  0  0  0
 21 49  1  0  0  0  0
 21 50  1  0  0  0  0
 21 51  1  0  0  0  0
 24 52  1  0  0  0  0
 24 53  1  0  0  0  0
M  END
> <Chemgauss4 Score>
-4.51810216903687

> <Number of Confs>
15

$$$$
