GIA-UNK-5ec-3
 OpenBabel03242009303D

 33 34  0  0  0  0  0  0  0  0999 V2000
   13.1049   -0.2408   22.8753 C   0  0  0  0  0  0  0  0  0  0  0  0
   12.6113   -1.2557   22.0556 C   0  0  0  0  0  0  0  0  0  0  0  0
   12.4653    0.0567   24.0787 C   0  0  0  0  0  0  0  0  0  0  0  0
   11.4782   -1.9730   22.4391 C   0  0  0  0  0  0  0  0  0  0  0  0
   11.3321   -0.6606   24.4623 C   0  0  0  0  0  0  0  0  0  0  0  0
   10.8385   -1.6754   23.6424 C   0  0  0  0  0  0  0  0  0  0  0  0
    8.3739   -5.1995   27.9292 C   0  0  0  0  0  0  0  0  0  0  0  0
   10.3126   -3.6655   27.5614 C   0  0  0  0  0  0  0  0  0  0  0  0
    7.9414   -2.8063   27.4161 C   0  0  0  0  0  0  0  0  0  0  0  0
   10.3763   -3.5933   26.0328 C   0  0  0  0  0  0  0  0  0  0  0  0
    8.1004   -2.7853   25.8935 C   0  0  0  0  0  0  0  0  0  0  0  0
    8.8862   -3.7981   28.0936 C   0  0  0  0  0  0  0  0  0  0  0  0
    9.6187   -2.4470   24.0558 C   0  0  0  0  0  0  0  0  0  0  0  0
    9.4966   -2.5399   25.5107 N   0  0  0  0  0  0  0  0  0  0  0  0
    8.7033   -5.9408   27.0125 O   0  0  0  0  0  0  0  0  0  0  0  0
    7.2427   -5.7107   29.1740 S   0  0  0  0  0  0  0  0  0  0  0  0
   13.9880    0.3167   22.5772 H   0  0  0  0  0  0  0  0  0  0  0  0
   13.1098   -1.4883   21.1190 H   0  0  0  0  0  0  0  0  0  0  0  0
   12.8499    0.8460   24.7177 H   0  0  0  0  0  0  0  0  0  0  0  0
   11.1006   -2.7619   21.7939 H   0  0  0  0  0  0  0  0  0  0  0  0
   10.8403   -0.4217   25.4015 H   0  0  0  0  0  0  0  0  0  0  0  0
   10.9324   -4.5012   27.9087 H   0  0  0  0  0  0  0  0  0  0  0  0
   10.7572   -2.7503   27.9744 H   0  0  0  0  0  0  0  0  0  0  0  0
    8.1452   -1.8007   27.8070 H   0  0  0  0  0  0  0  0  0  0  0  0
    6.8991   -3.0382   27.6664 H   0  0  0  0  0  0  0  0  0  0  0  0
   11.4147   -3.3850   25.7470 H   0  0  0  0  0  0  0  0  0  0  0  0
   10.1145   -4.5696   25.6041 H   0  0  0  0  0  0  0  0  0  0  0  0
    7.7332   -3.7249   25.4618 H   0  0  0  0  0  0  0  0  0  0  0  0
    7.4634   -1.9831   25.5003 H   0  0  0  0  0  0  0  0  0  0  0  0
    8.8850   -3.6059   29.1735 H   0  0  0  0  0  0  0  0  0  0  0  0
    8.7110   -1.9693   23.6709 H   0  0  0  0  0  0  0  0  0  0  0  0
    9.6442   -3.4662   23.6562 H   0  0  0  0  0  0  0  0  0  0  0  0
    7.0294   -6.9464   28.6994 H   0  0  0  0  0  0  0  0  0  0  0  0
  1  2  1  0  0  0  0
  1  3  2  0  0  0  0
  1 17  1  0  0  0  0
  2  4  2  0  0  0  0
  2 18  1  0  0  0  0
  3  5  1  0  0  0  0
  3 19  1  0  0  0  0
  4  6  1  0  0  0  0
  4 20  1  0  0  0  0
  5  6  2  0  0  0  0
  5 21  1  0  0  0  0
  6 13  1  0  0  0  0
  7 12  1  0  0  0  0
  7 15  2  0  0  0  0
  7 16  1  0  0  0  0
  8 10  1  0  0  0  0
  8 12  1  0  0  0  0
  8 22  1  0  0  0  0
  8 23  1  0  0  0  0
  9 11  1  0  0  0  0
  9 12  1  0  0  0  0
  9 24  1  0  0  0  0
  9 25  1  0  0  0  0
 10 14  1  0  0  0  0
 10 26  1  0  0  0  0
 10 27  1  0  0  0  0
 11 14  1  0  0  0  0
 11 28  1  0  0  0  0
 11 29  1  0  0  0  0
 12 30  1  0  0  0  0
 13 14  1  0  0  0  0
 13 31  1  0  0  0  0
 13 32  1  0  0  0  0
 16 33  1  0  0  0  0
M  END
>  <Chemgauss4 Score>
-5.12282752990723

>  <Number of Confs>
48

$$$$
