CHR-SOS-f73-4
  -OEChem-04022003013D

 41 43  0     0  0  0  0  0  0999 V2000
   14.1326   -1.7377   23.0101 C   0  0  0  0  0  0  0  0  0  0  0  0
   13.0980   -2.1701   22.1805 C   0  0  0  0  0  0  0  0  0  0  0  0
   13.8606   -0.8762   24.0729 C   0  0  0  0  0  0  0  0  0  0  0  0
    5.4859    0.1035   18.8514 C   0  0  0  0  0  0  0  0  0  0  0  0
   11.7914   -1.7410   22.4135 C   0  0  0  0  0  0  0  0  0  0  0  0
   12.5540   -0.4470   24.3060 C   0  0  0  0  0  0  0  0  0  0  0  0
    6.1263    0.2900   20.0714 C   0  0  0  0  0  0  0  0  0  0  0  0
    6.2687    0.0507   17.7094 C   0  0  0  0  0  0  0  0  0  0  0  0
    8.2026    0.3494   18.9132 C   0  0  0  0  0  0  0  0  0  0  0  0
   11.5194   -0.8794   23.4763 C   0  0  0  0  0  0  0  0  0  0  0  0
    7.5104    0.4164   20.1116 C   0  0  0  0  0  0  0  0  0  0  0  0
    9.5608    0.7496   21.5351 C   0  0  0  0  0  0  0  0  0  0  0  0
    9.0031   -2.4764   24.4275 C   0  0  0  0  0  0  0  0  0  0  0  0
    9.3615   -1.6912   25.6876 C   0  0  0  0  0  0  0  0  0  0  0  0
    9.0473   -1.4654   23.2826 C   0  0  0  0  0  0  0  0  0  0  0  0
    9.6657   -0.2691   25.2178 C   0  0  0  0  0  0  0  0  0  0  0  0
   10.0802   -0.4060   23.7335 C   0  0  0  0  0  0  0  0  0  0  0  0
    9.8592    0.9335   23.0109 C   0  0  0  0  0  0  0  0  0  0  0  0
    7.6154    0.1693   17.7088 N   0  0  0  0  0  0  0  0  0  0  0  0
    8.1903    0.6074   21.3379 N   0  0  0  0  0  0  0  0  0  0  0  0
   10.4421    0.7369   20.6821 O   0  0  0  0  0  0  0  0  0  0  0  0
   15.1497   -2.0731   22.8293 H   0  0  0  0  0  0  0  0  0  0  0  0
   13.3094   -2.8418   21.3536 H   0  0  0  0  0  0  0  0  0  0  0  0
   14.6656   -0.5402   24.7197 H   0  0  0  0  0  0  0  0  0  0  0  0
    4.4080    0.0025   18.7963 H   0  0  0  0  0  0  0  0  0  0  0  0
   10.9917   -2.0829   21.7618 H   0  0  0  0  0  0  0  0  0  0  0  0
   12.3515    0.2243   25.1363 H   0  0  0  0  0  0  0  0  0  0  0  0
    5.5377    0.3355   20.9839 H   0  0  0  0  0  0  0  0  0  0  0  0
    5.8172   -0.0924   16.7332 H   0  0  0  0  0  0  0  0  0  0  0  0
    9.2842    0.4410   18.8802 H   0  0  0  0  0  0  0  0  0  0  0  0
    9.6962   -3.3029   24.2535 H   0  0  0  0  0  0  0  0  0  0  0  0
    7.9997   -2.9011   24.5251 H   0  0  0  0  0  0  0  0  0  0  0  0
    8.5155   -1.6924   26.3812 H   0  0  0  0  0  0  0  0  0  0  0  0
   10.2167   -2.1282   26.2089 H   0  0  0  0  0  0  0  0  0  0  0  0
    9.3866   -1.9712   22.3744 H   0  0  0  0  0  0  0  0  0  0  0  0
    8.0655   -1.0382   23.0780 H   0  0  0  0  0  0  0  0  0  0  0  0
    8.8107    0.3972   25.3577 H   0  0  0  0  0  0  0  0  0  0  0  0
   10.4937    0.1326   25.8132 H   0  0  0  0  0  0  0  0  0  0  0  0
   10.7572    1.5456   23.1190 H   0  0  0  0  0  0  0  0  0  0  0  0
    9.0228    1.4551   23.4811 H   0  0  0  0  0  0  0  0  0  0  0  0
    7.5960    0.6432   22.1636 H   0  0  0  0  0  0  0  0  0  0  0  0
  1  2  1  0  0  0  0
  1  3  2  0  0  0  0
  2  5  2  0  0  0  0
  3  6  1  0  0  0  0
  4  7  2  0  0  0  0
  4  8  1  0  0  0  0
  5 10  1  0  0  0  0
  6 10  2  0  0  0  0
  7 11  1  0  0  0  0
  8 19  2  0  0  0  0
  9 11  2  0  0  0  0
  9 19  1  0  0  0  0
 10 17  1  0  0  0  0
 11 20  1  0  0  0  0
 12 18  1  0  0  0  0
 12 20  1  0  0  0  0
 12 21  2  0  0  0  0
 13 14  1  0  0  0  0
 13 15  1  0  0  0  0
 14 16  1  0  0  0  0
 15 17  1  0  0  0  0
 16 17  1  0  0  0  0
 17 18  1  0  0  0  0
  1 22  1  0  0  0  0
  2 23  1  0  0  0  0
  3 24  1  0  0  0  0
  4 25  1  0  0  0  0
  5 26  1  0  0  0  0
  6 27  1  0  0  0  0
  7 28  1  0  0  0  0
  8 29  1  0  0  0  0
  9 30  1  0  0  0  0
 13 31  1  0  0  0  0
 13 32  1  0  0  0  0
 14 33  1  0  0  0  0
 14 34  1  0  0  0  0
 15 35  1  0  0  0  0
 15 36  1  0  0  0  0
 16 37  1  0  0  0  0
 16 38  1  0  0  0  0
 18 39  1  0  0  0  0
 18 40  1  0  0  0  0
 20 41  1  0  0  0  0
M  END
> <Hybrid2>
-11.737092

> <fragments>
x0678

> <Mpro-x0678_dock>
-11.737092

> <Mpro-x0107_dock>
-9.632706

> <Mpro-x1077_dock>
-8.315467

> <Mpro-x1093_dock>
-8.025039

> <Mpro-x0195_dock>
-7.99706

> <Mpro-x1392_dock>
-7.886754

> <Mpro-x1386_dock>
-7.664739

> <Mpro-x0434_dock>
-7.423703

> <Mpro-x0072_dock>
-7.362957

> <Mpro-x0397_dock>
-7.274642

> <Mpro-x0831_dock>
-7.257655

> <Mpro-x0749_dock>
-7.240286

> <Mpro-x1385_dock>
-7.054672

> <Mpro-x0874_dock>
-6.710374

> <Mpro-x1412_dock>
-6.623053

> <Mpro-x1311_dock>
-6.600644

> <Mpro-x1334_dock>
-6.576875

> <Mpro-x1418_dock>
-6.539854

> <Mpro-x0354_dock>
-6.519069

> <Mpro-x0161_dock>
-6.456711

> <Mpro-x0104_dock>
-6.439157

> <Mpro-x0946_dock>
-6.309664

> <Mpro-x0770_dock>
-6.05419

> <Mpro-x0708_dock>
-6.036362

> <Mpro-x0967_dock>
-5.708811

> <Mpro-x0774_dock>
-5.35012

> <Mpro-x0830_dock>
-5.131557

> <Mpro-x0395_dock>
-5.084687

> <Mpro-x0387_dock>
-4.903771

> <Mpro-x1478_dock>
-4.839303

> <Mpro-x1348_dock>
-4.825641

> <Mpro-x0759_dock>
-4.816169

> <Mpro-x0692_dock>
-4.472458

> <Mpro-x0305_dock>
-4.230579

> <Mpro-x1493_dock>
-4.090422

> <Mpro-x1458_dock>
-3.821047

> <Mpro-x1249_dock>
-3.771233

> <Mpro-x1375_dock>
-3.755792

> <Mpro-x1380_dock>
-3.629274

> <Mpro-x0771_dock>
-3.245739

> <Mpro-x1187_dock>
-3.239781

> <Mpro-x1374_dock>
-3.233843

> <Mpro-x0734_dock>
-3.142146

> <Mpro-x0736_dock>
-3.109967

> <Mpro-x0540_dock>
-3.052774

> <Mpro-x0752_dock>
-3.019127

> <Mpro-x0426_dock>
-2.976808

> <Mpro-x1351_dock>
-2.928754

> <Mpro-x1358_dock>
-2.906469

> <Mpro-x1425_dock>
-2.855708

> <Mpro-x0820_dock>
-2.74352

> <Mpro-x1382_dock>
-2.482625

> <Mpro-x0755_dock>
-2.378172

> <Mpro-x0769_dock>
-2.344628

> <Mpro-x0731_dock>
-2.153986

> <Mpro-x0691_dock>
-2.036915

> <Mpro-x0786_dock>
-1.705254

> <Mpro-x1308_dock>
-1.621737

> <Mpro-x0705_dock>
-1.594704

> <Mpro-x0689_dock>
-1.514511

> <Mpro-x1402_dock>
-1.413533

> <Mpro-x1384_dock>
-0.989299

> <Mpro-x0887_dock>
-0.665044

> <Mpro-x0981_dock>
0.035281

> <Mpro-x0978_dock>
0.052361

> <site>
active-noncovalent

$$$$
DAR-DIA-842-13
  -OEChem-04022003013D

 25 26  0     0  0  0  0  0  0999 V2000
    5.7065    1.1906   18.9682 C   0  0  0  0  0  0  0  0  0  0  0  0
    6.3896    0.9267   20.1502 C   0  0  0  0  0  0  0  0  0  0  0  0
   12.1924   -1.5808   22.1343 C   0  0  0  0  0  0  0  0  0  0  0  0
   13.4705   -1.9739   22.6263 C   0  0  0  0  0  0  0  0  0  0  0  0
    6.3537    0.9258   17.7721 C   0  0  0  0  0  0  0  0  0  0  0  0
    8.2396    0.1830   18.8537 C   0  0  0  0  0  0  0  0  0  0  0  0
    7.6808    0.4132   20.1005 C   0  0  0  0  0  0  0  0  0  0  0  0
   11.5063   -0.8021   23.0401 C   0  0  0  0  0  0  0  0  0  0  0  0
   13.7126   -1.4804   23.8896 C   0  0  0  0  0  0  0  0  0  0  0  0
    9.7806    0.1817   21.4725 C   0  0  0  0  0  0  0  0  0  0  0  0
   10.1363   -0.1911   22.9031 C   0  0  0  0  0  0  0  0  0  0  0  0
    7.6071    0.4270   17.6840 N   0  0  0  0  0  0  0  0  0  0  0  0
    8.3899    0.1391   21.2675 N   0  0  0  0  0  0  0  0  0  0  0  0
   10.6331    0.4729   20.6396 O   0  0  0  0  0  0  0  0  0  0  0  0
   12.4023   -0.5477   24.4771 S   0  0  0  0  0  0  0  0  0  0  0  0
   15.1114   -1.7037   24.8543 Cl  0  0  0  0  0  0  0  0  0  0  0  0
    4.6992    1.5910   18.9830 H   0  0  0  0  0  0  0  0  0  0  0  0
    5.9069    1.1246   21.1035 H   0  0  0  0  0  0  0  0  0  0  0  0
   11.7999   -1.8575   21.1640 H   0  0  0  0  0  0  0  0  0  0  0  0
   14.1724   -2.5878   22.0761 H   0  0  0  0  0  0  0  0  0  0  0  0
    5.8642    1.1153   16.8225 H   0  0  0  0  0  0  0  0  0  0  0  0
    9.2439   -0.2171   18.7503 H   0  0  0  0  0  0  0  0  0  0  0  0
    9.3812   -0.8916   23.2819 H   0  0  0  0  0  0  0  0  0  0  0  0
   10.0713    0.7081   23.5288 H   0  0  0  0  0  0  0  0  0  0  0  0
    7.8246   -0.1285   22.0830 H   0  0  0  0  0  0  0  0  0  0  0  0
  1  2  2  0  0  0  0
  1  5  1  0  0  0  0
  2  7  1  0  0  0  0
  3  4  1  0  0  0  0
  3  8  2  0  0  0  0
  4  9  2  0  0  0  0
  5 12  2  0  0  0  0
  6  7  2  0  0  0  0
  6 12  1  0  0  0  0
  7 13  1  0  0  0  0
  8 11  1  0  0  0  0
  8 15  1  0  0  0  0
  9 15  1  0  0  0  0
  9 16  1  0  0  0  0
 10 11  1  0  0  0  0
 10 13  1  0  0  0  0
 10 14  2  0  0  0  0
  1 17  1  0  0  0  0
  2 18  1  0  0  0  0
  3 19  1  0  0  0  0
  4 20  1  0  0  0  0
  5 21  1  0  0  0  0
  6 22  1  0  0  0  0
 11 23  1  0  0  0  0
 11 24  1  0  0  0  0
 13 25  1  0  0  0  0
M  END
> <Hybrid2>
-11.181113

> <fragments>
x0678

> <Mpro-x0678_dock>
-11.181113

> <Mpro-x0107_dock>
-9.235509

> <Mpro-x0749_dock>
-8.829468

> <Mpro-x0831_dock>
-8.523364

> <Mpro-x0397_dock>
-8.275785

> <Mpro-x0104_dock>
-7.742662

> <Mpro-x0830_dock>
-7.683623

> <Mpro-x1093_dock>
-7.461031

> <Mpro-x0946_dock>
-7.447915

> <Mpro-x0072_dock>
-7.265378

> <Mpro-x1385_dock>
-7.227907

> <Mpro-x1418_dock>
-7.212635

> <Mpro-x1386_dock>
-7.21211

> <Mpro-x0161_dock>
-7.159777

> <Mpro-x1077_dock>
-7.056781

> <Mpro-x0195_dock>
-7.011575

> <Mpro-x0692_dock>
-6.629145

> <Mpro-x0708_dock>
-6.47344

> <Mpro-x1392_dock>
-6.449056

> <Mpro-x0434_dock>
-6.440366

> <Mpro-x1311_dock>
-6.405145

> <Mpro-x1412_dock>
-6.234063

> <Mpro-x1334_dock>
-6.121222

> <Mpro-x0770_dock>
-5.80375

> <Mpro-x1375_dock>
-5.73601

> <Mpro-x0540_dock>
-5.636483

> <Mpro-x0395_dock>
-5.574674

> <Mpro-x0387_dock>
-5.486691

> <Mpro-x0967_dock>
-5.127343

> <Mpro-x1348_dock>
-4.791127

> <Mpro-x1249_dock>
-4.743139

> <Mpro-x0736_dock>
-4.684125

> <Mpro-x0759_dock>
-4.651294

> <Mpro-x0426_dock>
-4.637931

> <Mpro-x1374_dock>
-4.441985

> <Mpro-x0820_dock>
-4.145244

> <Mpro-x0874_dock>
-4.099989

> <Mpro-x0734_dock>
-4.088973

> <Mpro-x0305_dock>
-4.033111

> <Mpro-x0354_dock>
-4.015448

> <Mpro-x1382_dock>
-3.997509

> <Mpro-x0774_dock>
-3.942177

> <Mpro-x1493_dock>
-3.742

> <Mpro-x1478_dock>
-3.691761

> <Mpro-x1380_dock>
-3.57509

> <Mpro-x1458_dock>
-3.318445

> <Mpro-x1187_dock>
-3.316575

> <Mpro-x0755_dock>
-3.255341

> <Mpro-x0769_dock>
-3.151116

> <Mpro-x1308_dock>
-3.023398

> <Mpro-x0731_dock>
-2.899261

> <Mpro-x0978_dock>
-2.875982

> <Mpro-x0691_dock>
-2.716347

> <Mpro-x0752_dock>
-2.585005

> <Mpro-x1358_dock>
-2.372618

> <Mpro-x0771_dock>
-2.365438

> <Mpro-x1402_dock>
-2.221059

> <Mpro-x0786_dock>
-2.168795

> <Mpro-x1384_dock>
-2.149091

> <Mpro-x0981_dock>
-2.088688

> <Mpro-x1351_dock>
-2.019257

> <Mpro-x0705_dock>
-1.982216

> <Mpro-x1425_dock>
-1.527314

> <Mpro-x0887_dock>
-1.298879

> <Mpro-x0689_dock>
-1.170343

> <site>
active-noncovalent

$$$$
DUN-NEW-d83-1
  -OEChem-04022003013D

 41 43  0     1  0  0  0  0  0999 V2000
   14.8326   -1.7066   24.4137 C   0  0  0  0  0  0  0  0  0  0  0  0
   14.2686   -0.6055   25.0578 C   0  0  0  0  0  0  0  0  0  0  0  0
   14.1512   -2.3264   23.3662 C   0  0  0  0  0  0  0  0  0  0  0  0
    5.7734    1.2138   19.2773 C   0  0  0  0  0  0  0  0  0  0  0  0
   13.0230   -0.1242   24.6546 C   0  0  0  0  0  0  0  0  0  0  0  0
   12.9057   -1.8451   22.9630 C   0  0  0  0  0  0  0  0  0  0  0  0
    6.3828    0.4451   20.2628 C   0  0  0  0  0  0  0  0  0  0  0  0
    6.2538    1.1070   17.9820 C   0  0  0  0  0  0  0  0  0  0  0  0
    7.8445   -0.4298   18.6032 C   0  0  0  0  0  0  0  0  0  0  0  0
   12.3416   -0.7440   23.6071 C   0  0  0  0  0  0  0  0  0  0  0  0
    7.4389   -0.3949   19.9276 C   0  0  0  0  0  0  0  0  0  0  0  0
   10.9317    2.2393   22.6410 C   0  0  0  0  0  0  0  0  0  0  0  0
   10.0380   -1.2756   22.5923 C   0  0  0  0  0  0  0  0  0  0  0  0
    9.8108    0.6192   21.1578 C   0  0  0  0  0  0  0  0  0  0  0  0
   10.9838   -0.2200   23.1672 C   0  0  2  0  0  0  0  0  0  0  0  0
   11.0223    0.8595   22.0598 C   0  0  2  0  0  0  0  0  0  0  0  0
    8.1166   -1.2372   20.9679 C   0  0  0  0  0  0  0  0  0  0  0  0
    7.2773    0.3022   17.6183 N   0  0  0  0  0  0  0  0  0  0  0  0
   12.1537    2.8275   22.8663 N   0  0  0  0  0  0  0  0  0  0  0  0
    9.0202   -0.4511   21.8596 N   0  3  1  0  0  0  0  0  0  0  0  0
    9.8533    2.7813   22.8707 O   0  0  0  0  0  0  0  0  0  0  0  0
   15.8031   -2.0804   24.7270 H   0  0  0  0  0  0  0  0  0  0  0  0
   14.7995   -0.1220   25.8727 H   0  0  0  0  0  0  0  0  0  0  0  0
   14.5906   -3.1831   22.8638 H   0  0  0  0  0  0  0  0  0  0  0  0
    4.9484    1.8753   19.5154 H   0  0  0  0  0  0  0  0  0  0  0  0
   12.5912    0.7342   25.1623 H   0  0  0  0  0  0  0  0  0  0  0  0
   12.3820   -2.3345   22.1460 H   0  0  0  0  0  0  0  0  0  0  0  0
    6.0283    0.5069   21.2881 H   0  0  0  0  0  0  0  0  0  0  0  0
    5.8126    1.6860   17.1773 H   0  0  0  0  0  0  0  0  0  0  0  0
    8.6632   -1.0663   18.2821 H   0  0  0  0  0  0  0  0  0  0  0  0
   10.5307   -1.9380   21.8672 H   0  0  0  0  0  0  0  0  0  0  0  0
    9.5265   -1.8676   23.3606 H   0  0  0  0  0  0  0  0  0  0  0  0
    9.1568    1.4846   21.0309 H   0  0  0  0  0  0  0  0  0  0  0  0
   10.1241    0.2370   20.1826 H   0  0  0  0  0  0  0  0  0  0  0  0
   10.5030    0.2208   24.0943 H   0  0  0  0  0  0  0  0  0  0  0  0
   11.9433    0.8052   21.4701 H   0  0  0  0  0  0  0  0  0  0  0  0
    7.3846   -1.7296   21.6171 H   0  0  0  0  0  0  0  0  0  0  0  0
    8.7313   -2.0174   20.5061 H   0  0  0  0  0  0  0  0  0  0  0  0
   12.9942    2.3089   22.6334 H   0  0  0  0  0  0  0  0  0  0  0  0
   12.2490    3.7597   23.2561 H   0  0  0  0  0  0  0  0  0  0  0  0
    8.4431    0.0104   22.5629 H   0  0  0  0  0  0  0  0  0  0  0  0
  1  2  1  0  0  0  0
  1  3  2  0  0  0  0
  2  5  2  0  0  0  0
  3  6  1  0  0  0  0
  4  7  2  0  0  0  0
  4  8  1  0  0  0  0
  5 10  1  0  0  0  0
  6 10  2  0  0  0  0
  7 11  1  0  0  0  0
  8 18  2  0  0  0  0
  9 11  2  0  0  0  0
  9 18  1  0  0  0  0
 10 15  1  0  0  0  0
 11 17  1  0  0  0  0
 12 16  1  0  0  0  0
 12 19  1  0  0  0  0
 12 21  2  0  0  0  0
 13 15  1  0  0  0  0
 13 20  1  0  0  0  0
 14 16  1  0  0  0  0
 14 20  1  0  0  0  0
 15 16  1  0  0  0  0
 17 20  1  0  0  0  0
  1 22  1  0  0  0  0
  2 23  1  0  0  0  0
  3 24  1  0  0  0  0
  4 25  1  0  0  0  0
  5 26  1  0  0  0  0
  6 27  1  0  0  0  0
  7 28  1  0  0  0  0
  8 29  1  0  0  0  0
  9 30  1  0  0  0  0
 13 31  1  0  0  0  0
 13 32  1  0  0  0  0
 14 33  1  0  0  0  0
 14 34  1  0  0  0  0
 15 35  1  0  0  0  0
 16 36  1  0  0  0  0
 17 37  1  0  0  0  0
 17 38  1  0  0  0  0
 19 39  1  0  0  0  0
 19 40  1  0  0  0  0
 20 41  1  0  0  0  0
M  CHG  1  20   1
M  END
> <Hybrid2>
-11.157682

> <fragments>
x0678

> <Mpro-x0678_dock>
-11.157682

> <Mpro-x1418_dock>
-10.562572

> <Mpro-x0759_dock>
-9.706439

> <Mpro-x0770_dock>
-8.856927

> <Mpro-x1093_dock>
-8.434061

> <Mpro-x0072_dock>
-8.394291

> <Mpro-x1077_dock>
-8.245739

> <Mpro-x0195_dock>
-8.202428

> <Mpro-x0831_dock>
-8.113245

> <Mpro-x1392_dock>
-8.090097

> <Mpro-x0107_dock>
-7.913076

> <Mpro-x0104_dock>
-7.766121

> <Mpro-x0397_dock>
-7.658668

> <Mpro-x0161_dock>
-7.101902

> <Mpro-x0874_dock>
-7.087192

> <Mpro-x0395_dock>
-7.076374

> <Mpro-x1386_dock>
-6.98543

> <Mpro-x1334_dock>
-6.881993

> <Mpro-x0946_dock>
-6.748101

> <Mpro-x0830_dock>
-6.504539

> <Mpro-x0387_dock>
-5.864271

> <Mpro-x0434_dock>
-5.864271

> <Mpro-x0692_dock>
-5.837108

> <Mpro-x0749_dock>
-5.663886

> <Mpro-x1311_dock>
-5.662353

> <Mpro-x1412_dock>
-5.653459

> <Mpro-x1385_dock>
-5.362559

> <Mpro-x1382_dock>
-5.014626

> <Mpro-x1493_dock>
-4.889398

> <Mpro-x0774_dock>
-4.429812

> <Mpro-x1348_dock>
-4.341084

> <Mpro-x1249_dock>
-4.317361

> <Mpro-x0731_dock>
-4.223246

> <Mpro-x0426_dock>
-4.180377

> <Mpro-x0771_dock>
-4.119247

> <Mpro-x0736_dock>
-4.036541

> <Mpro-x0967_dock>
-3.875049

> <Mpro-x0769_dock>
-3.826885

> <Mpro-x0755_dock>
-3.805494

> <Mpro-x0354_dock>
-3.78669

> <Mpro-x1375_dock>
-3.684347

> <Mpro-x0540_dock>
-3.600073

> <Mpro-x1402_dock>
-3.595452

> <Mpro-x0734_dock>
-3.449592

> <Mpro-x1358_dock>
-3.161397

> <Mpro-x0305_dock>
-3.138419

> <Mpro-x0708_dock>
-3.066666

> <Mpro-x1458_dock>
-3.066406

> <Mpro-x1380_dock>
-3.065868

> <Mpro-x0689_dock>
-2.866248

> <Mpro-x1187_dock>
-2.838291

> <Mpro-x0820_dock>
-2.804469

> <Mpro-x1384_dock>
-2.754215

> <Mpro-x1374_dock>
-2.701916

> <Mpro-x0786_dock>
-2.611057

> <Mpro-x0691_dock>
-2.533569

> <Mpro-x0981_dock>
-2.323325

> <Mpro-x0887_dock>
-2.102706

> <Mpro-x1308_dock>
-2.065198

> <Mpro-x0705_dock>
-2.01563

> <Mpro-x1425_dock>
-1.981025

> <Mpro-x0978_dock>
-1.74877

> <Mpro-x1478_dock>
-1.537526

> <Mpro-x1351_dock>
-1.039889

> <Mpro-x0752_dock>
-0.213893

> <site>
active-noncovalent

$$$$
TRY-UNI-714-18
  -OEChem-04022003013D

 34 35  0     1  0  0  0  0  0999 V2000
   11.6178    0.0964   24.6585 C   0  0  0  0  0  0  0  0  0  0  0  0
   10.4125   -0.5524   24.3904 C   0  0  0  0  0  0  0  0  0  0  0  0
   12.7695   -0.2519   23.9528 C   0  0  0  0  0  0  0  0  0  0  0  0
    5.4234    0.8687   19.3288 C   0  0  0  0  0  0  0  0  0  0  0  0
   11.5106   -1.8980   22.7108 C   0  0  0  0  0  0  0  0  0  0  0  0
    6.0834    0.6341   18.1333 C   0  0  0  0  0  0  0  0  0  0  0  0
    7.7644   -0.5255   19.1856 C   0  0  0  0  0  0  0  0  0  0  0  0
   10.3589   -1.5496   23.4165 C   0  0  0  0  0  0  0  0  0  0  0  0
    5.9905    0.3664   20.4947 C   0  0  0  0  0  0  0  0  0  0  0  0
    7.1833   -0.3451   20.4304 C   0  0  0  0  0  0  0  0  0  0  0  0
   12.7159   -1.2491   22.9790 C   0  0  0  0  0  0  0  0  0  0  0  0
    8.5960   -2.0151   21.6806 C   0  0  0  0  0  0  0  0  0  0  0  0
    5.3005    0.6051   21.7976 C   0  0  0  0  0  0  0  0  0  0  0  0
    9.1476   -3.7515   23.4388 C   0  0  0  0  0  0  0  0  0  0  0  0
    9.0701   -2.2438   23.1312 C   0  0  1  0  0  0  0  0  0  0  0  0
    7.2434   -0.0525   18.0313 N   0  0  0  0  0  0  0  0  0  0  0  0
    7.7994   -0.8763   21.5883 N   0  0  0  0  0  0  0  0  0  0  0  0
    8.9307   -2.7606   20.7644 O   0  0  0  0  0  0  0  0  0  0  0  0
   14.1374   -1.6792   22.1094 Cl  0  0  0  0  0  0  0  0  0  0  0  0
   11.6592    0.8728   25.4170 H   0  0  0  0  0  0  0  0  0  0  0  0
    9.5202   -0.2746   24.9452 H   0  0  0  0  0  0  0  0  0  0  0  0
   13.7020    0.2621   24.1726 H   0  0  0  0  0  0  0  0  0  0  0  0
    4.4941    1.4280   19.3446 H   0  0  0  0  0  0  0  0  0  0  0  0
   11.4635   -2.6758   21.9521 H   0  0  0  0  0  0  0  0  0  0  0  0
    5.6826    1.0049   17.1956 H   0  0  0  0  0  0  0  0  0  0  0  0
    8.6955   -1.0725   19.0706 H   0  0  0  0  0  0  0  0  0  0  0  0
    4.5968   -0.2082   22.0093 H   0  0  0  0  0  0  0  0  0  0  0  0
    6.0212    0.6674   22.6222 H   0  0  0  0  0  0  0  0  0  0  0  0
    4.7469    1.5522   21.7852 H   0  0  0  0  0  0  0  0  0  0  0  0
    9.9256   -4.2429   22.8438 H   0  0  0  0  0  0  0  0  0  0  0  0
    9.3769   -3.9393   24.4938 H   0  0  0  0  0  0  0  0  0  0  0  0
    8.1918   -4.2378   23.2138 H   0  0  0  0  0  0  0  0  0  0  0  0
    8.2620   -1.8479   23.7780 H   0  0  0  0  0  0  0  0  0  0  0  0
    7.6348   -0.3525   22.4453 H   0  0  0  0  0  0  0  0  0  0  0  0
  1  2  2  0  0  0  0
  1  3  1  0  0  0  0
  2  8  1  0  0  0  0
  3 11  2  0  0  0  0
  4  6  2  0  0  0  0
  4  9  1  0  0  0  0
  5  8  2  0  0  0  0
  5 11  1  0  0  0  0
  6 16  1  0  0  0  0
  7 10  1  0  0  0  0
  7 16  2  0  0  0  0
  8 15  1  0  0  0  0
  9 10  2  0  0  0  0
  9 13  1  0  0  0  0
 10 17  1  0  0  0  0
 11 19  1  0  0  0  0
 12 15  1  0  0  0  0
 12 17  1  0  0  0  0
 12 18  2  0  0  0  0
 14 15  1  0  0  0  0
  1 20  1  0  0  0  0
  2 21  1  0  0  0  0
  3 22  1  0  0  0  0
  4 23  1  0  0  0  0
  5 24  1  0  0  0  0
  6 25  1  0  0  0  0
  7 26  1  0  0  0  0
 13 27  1  0  0  0  0
 13 28  1  0  0  0  0
 13 29  1  0  0  0  0
 14 30  1  0  0  0  0
 14 31  1  0  0  0  0
 14 32  1  0  0  0  0
 15 33  1  0  0  0  0
 17 34  1  0  0  0  0
M  END
> <Hybrid2>
-11.149205

> <fragments>
x0678

> <Mpro-x0678_dock>
-11.149205

> <Mpro-x0107_dock>
-11.036694

> <Mpro-x1093_dock>
-8.842506

> <Mpro-x0195_dock>
-7.917512

> <Mpro-x0072_dock>
-7.899086

> <Mpro-x0161_dock>
-7.837194

> <Mpro-x0831_dock>
-7.76143

> <Mpro-x0104_dock>
-7.6219

> <Mpro-x0749_dock>
-7.603972

> <Mpro-x1386_dock>
-7.427173

> <Mpro-x0397_dock>
-7.188987

> <Mpro-x0830_dock>
-7.184724

> <Mpro-x1418_dock>
-6.885968

> <Mpro-x0692_dock>
-6.746014

> <Mpro-x0874_dock>
-6.738338

> <Mpro-x0759_dock>
-6.645601

> <Mpro-x0946_dock>
-6.608416

> <Mpro-x0770_dock>
-6.588656

> <Mpro-x1077_dock>
-6.49216

> <Mpro-x1385_dock>
-6.261223

> <Mpro-x0434_dock>
-6.157744

> <Mpro-x1478_dock>
-5.92734

> <Mpro-x1392_dock>
-5.865803

> <Mpro-x1334_dock>
-5.517721

> <Mpro-x0395_dock>
-5.439281

> <Mpro-x1249_dock>
-5.410326

> <Mpro-x1493_dock>
-5.402352

> <Mpro-x1412_dock>
-5.392752

> <Mpro-x0967_dock>
-5.321728

> <Mpro-x1375_dock>
-5.30363

> <Mpro-x1311_dock>
-4.908647

> <Mpro-x0354_dock>
-4.667986

> <Mpro-x0734_dock>
-4.513013

> <Mpro-x0708_dock>
-4.508151

> <Mpro-x0387_dock>
-4.412352

> <Mpro-x0305_dock>
-4.328313

> <Mpro-x0774_dock>
-4.19071

> <Mpro-x1348_dock>
-4.055307

> <Mpro-x0752_dock>
-3.915292

> <Mpro-x1187_dock>
-3.889425

> <Mpro-x1382_dock>
-3.793098

> <Mpro-x0736_dock>
-3.721089

> <Mpro-x1458_dock>
-3.432764

> <Mpro-x1374_dock>
-3.275396

> <Mpro-x0820_dock>
-3.238422

> <Mpro-x0978_dock>
-3.148383

> <Mpro-x1380_dock>
-3.082158

> <Mpro-x1358_dock>
-3.011243

> <Mpro-x0786_dock>
-2.620876

> <Mpro-x1384_dock>
-2.336985

> <Mpro-x0426_dock>
-2.257185

> <Mpro-x1402_dock>
-1.91577

> <Mpro-x1351_dock>
-1.885654

> <Mpro-x0771_dock>
-1.869487

> <Mpro-x0769_dock>
-1.737579

> <Mpro-x0731_dock>
-1.71452

> <Mpro-x1308_dock>
-1.644377

> <Mpro-x1425_dock>
-1.643763

> <Mpro-x0981_dock>
-1.615556

> <Mpro-x0705_dock>
-1.44349

> <Mpro-x0755_dock>
-1.413043

> <Mpro-x0691_dock>
-1.378043

> <Mpro-x0689_dock>
-1.318646

> <Mpro-x0887_dock>
-1.280392

> <Mpro-x0540_dock>
-1.185478

> <site>
active-noncovalent

$$$$
BAR-COM-4e0-50
  -OEChem-04022003013D

 39 41  0     1  0  0  0  0  0999 V2000
   13.9600   -2.3423   23.2437 C   0  0  0  0  0  0  0  0  0  0  0  0
   14.2157   -1.2912   24.1243 C   0  0  0  0  0  0  0  0  0  0  0  0
   12.7060   -2.4608   22.6446 C   0  0  0  0  0  0  0  0  0  0  0  0
   13.2173   -0.3587   24.4059 C   0  0  0  0  0  0  0  0  0  0  0  0
    6.6411    0.6273   19.9724 C   0  0  0  0  0  0  0  0  0  0  0  0
   11.7076   -1.5283   22.9262 C   0  0  0  0  0  0  0  0  0  0  0  0
   11.9632   -0.4772   23.8068 C   0  0  0  0  0  0  0  0  0  0  0  0
    7.5828    0.2738   18.9959 C   0  0  0  0  0  0  0  0  0  0  0  0
   10.3579   -1.2396   20.8231 C   0  0  0  0  0  0  0  0  0  0  0  0
   10.0738    2.6511   24.0666 C   0  0  0  0  0  0  0  0  0  0  0  0
    9.2195    2.4174   22.8366 C   0  0  0  0  0  0  0  0  0  0  0  0
   11.4383    1.9599   22.2767 C   0  0  0  0  0  0  0  0  0  0  0  0
   11.2867    1.8025   23.7761 C   0  0  2  0  0  0  0  0  0  0  0  0
   10.3712   -1.6711   22.2761 C   0  0  0  0  0  0  0  0  0  0  0  0
    8.9716   -0.2670   19.1698 C   0  0  0  0  0  0  0  0  0  0  0  0
    5.5240    1.0671   19.3864 N   0  0  0  0  0  0  0  0  0  0  0  0
    7.0737    0.4839   17.7787 N   0  0  0  0  0  0  0  0  0  0  0  0
    5.8548    0.9530   18.0900 N   0  0  0  0  0  0  0  0  0  0  0  0
   11.3014   -1.3466   20.0515 O   0  0  0  0  0  0  0  0  0  0  0  0
   10.1178    2.1691   21.7471 O   0  0  0  0  0  0  0  0  0  0  0  0
   10.9938    0.4464   24.0948 O   0  0  0  0  0  0  0  0  0  0  0  0
    9.1318   -0.7181   20.5187 O   0  0  0  0  0  0  0  0  0  0  0  0
   14.7370   -3.0690   23.0245 H   0  0  0  0  0  0  0  0  0  0  0  0
   15.1920   -1.1998   24.5912 H   0  0  0  0  0  0  0  0  0  0  0  0
   12.5163   -3.2842   21.9610 H   0  0  0  0  0  0  0  0  0  0  0  0
   13.4224    0.4579   25.0928 H   0  0  0  0  0  0  0  0  0  0  0  0
    6.7057    0.5898   21.0498 H   0  0  0  0  0  0  0  0  0  0  0  0
   10.3619    3.7075   24.1167 H   0  0  0  0  0  0  0  0  0  0  0  0
    9.5448    2.3832   24.9854 H   0  0  0  0  0  0  0  0  0  0  0  0
    8.5839    1.5333   22.9546 H   0  0  0  0  0  0  0  0  0  0  0  0
    8.5818    3.2742   22.6012 H   0  0  0  0  0  0  0  0  0  0  0  0
   12.0286    2.8487   22.0306 H   0  0  0  0  0  0  0  0  0  0  0  0
   11.8786    1.0865   21.7875 H   0  0  0  0  0  0  0  0  0  0  0  0
   12.1758    2.1039   24.3363 H   0  0  0  0  0  0  0  0  0  0  0  0
   10.0377   -2.7196   22.3226 H   0  0  0  0  0  0  0  0  0  0  0  0
    9.6220   -1.0712   22.8160 H   0  0  0  0  0  0  0  0  0  0  0  0
    9.1538   -1.1053   18.4888 H   0  0  0  0  0  0  0  0  0  0  0  0
    9.7181    0.5064   18.9587 H   0  0  0  0  0  0  0  0  0  0  0  0
    5.1993    1.2158   17.3629 H   0  0  0  0  0  0  0  0  0  0  0  0
  1  2  1  0  0  0  0
  1  3  2  0  0  0  0
  2  4  2  0  0  0  0
  3  6  1  0  0  0  0
  4  7  1  0  0  0  0
  5  8  1  0  0  0  0
  5 16  2  0  0  0  0
  6  7  2  0  0  0  0
  6 14  1  0  0  0  0
  7 21  1  0  0  0  0
  8 15  1  0  0  0  0
  8 17  2  0  0  0  0
  9 14  1  0  0  0  0
  9 19  2  0  0  0  0
  9 22  1  0  0  0  0
 10 11  1  0  0  0  0
 10 13  1  0  0  0  0
 11 20  1  0  0  0  0
 12 13  1  0  0  0  0
 12 20  1  0  0  0  0
 13 21  1  0  0  0  0
 15 22  1  0  0  0  0
 16 18  1  0  0  0  0
 17 18  1  0  0  0  0
  1 23  1  0  0  0  0
  2 24  1  0  0  0  0
  3 25  1  0  0  0  0
  4 26  1  0  0  0  0
  5 27  1  0  0  0  0
 10 28  1  0  0  0  0
 10 29  1  0  0  0  0
 11 30  1  0  0  0  0
 11 31  1  0  0  0  0
 12 32  1  0  0  0  0
 12 33  1  0  0  0  0
 13 34  1  0  0  0  0
 14 35  1  0  0  0  0
 14 36  1  0  0  0  0
 15 37  1  0  0  0  0
 15 38  1  0  0  0  0
 18 39  1  0  0  0  0
M  END
> <Hybrid2>
-11.107311

> <fragments>
x0678

> <Mpro-x0678_dock>
-11.107311

> <Mpro-x0107_dock>
-8.029606

> <Mpro-x0397_dock>
-7.849695

> <Mpro-x0195_dock>
-7.700229

> <Mpro-x0831_dock>
-7.57366

> <Mpro-x0830_dock>
-7.225258

> <Mpro-x1385_dock>
-6.894104

> <Mpro-x0387_dock>
-6.856787

> <Mpro-x0305_dock>
-6.782123

> <Mpro-x0434_dock>
-6.612822

> <Mpro-x0692_dock>
-6.596129

> <Mpro-x0774_dock>
-6.342996

> <Mpro-x0072_dock>
-6.341788

> <Mpro-x0967_dock>
-6.292699

> <Mpro-x0161_dock>
-6.247197

> <Mpro-x1334_dock>
-6.242783

> <Mpro-x0104_dock>
-6.214139

> <Mpro-x1093_dock>
-6.145874

> <Mpro-x1412_dock>
-6.111235

> <Mpro-x0946_dock>
-5.956785

> <Mpro-x1077_dock>
-5.698537

> <Mpro-x0874_dock>
-5.515127

> <Mpro-x0708_dock>
-5.504066

> <Mpro-x0734_dock>
-5.084522

> <Mpro-x1418_dock>
-4.985376

> <Mpro-x1392_dock>
-4.943212

> <Mpro-x0395_dock>
-4.925225

> <Mpro-x0749_dock>
-4.917008

> <Mpro-x0354_dock>
-4.743682

> <Mpro-x1386_dock>
-4.494134

> <Mpro-x0770_dock>
-4.32015

> <Mpro-x1458_dock>
-4.253971

> <Mpro-x1249_dock>
-4.110869

> <Mpro-x1348_dock>
-4.076655

> <Mpro-x1187_dock>
-3.835703

> <Mpro-x0736_dock>
-3.51362

> <Mpro-x0759_dock>
-3.471814

> <Mpro-x1380_dock>
-3.308064

> <Mpro-x1382_dock>
-3.164143

> <Mpro-x1311_dock>
-3.095962

> <Mpro-x1493_dock>
-2.921336

> <Mpro-x1375_dock>
-2.903014

> <Mpro-x1358_dock>
-2.836465

> <Mpro-x1374_dock>
-2.740027

> <Mpro-x0755_dock>
-2.695163

> <Mpro-x1478_dock>
-2.555575

> <Mpro-x0540_dock>
-2.555409

> <Mpro-x0769_dock>
-2.407821

> <Mpro-x1351_dock>
-2.354148

> <Mpro-x1308_dock>
-2.332299

> <Mpro-x0771_dock>
-2.323074

> <Mpro-x0820_dock>
-2.269959

> <Mpro-x1402_dock>
-2.16667

> <Mpro-x0426_dock>
-2.13183

> <Mpro-x0689_dock>
-2.007128

> <Mpro-x0705_dock>
-1.833739

> <Mpro-x0731_dock>
-1.690642

> <Mpro-x0691_dock>
-1.57758

> <Mpro-x1425_dock>
-1.104743

> <Mpro-x0752_dock>
-0.907067

> <Mpro-x0978_dock>
-0.849992

> <Mpro-x0786_dock>
-0.795861

> <Mpro-x1384_dock>
-0.566001

> <Mpro-x0981_dock>
-0.552755

> <Mpro-x0887_dock>
0.204139

> <site>
active-noncovalent

$$$$
TRY-UNI-714-22
  -OEChem-04022003013D

 35 36  0     1  0  0  0  0  0999 V2000
   13.9790   -2.0099   23.4647 C   0  0  0  0  0  0  0  0  0  0  0  0
   11.6279    0.7711   24.2359 C   0  0  0  0  0  0  0  0  0  0  0  0
   12.8012    0.0224   24.1439 C   0  0  0  0  0  0  0  0  0  0  0  0
   10.4301    0.2542   23.7421 C   0  0  0  0  0  0  0  0  0  0  0  0
    5.4345    1.3827   18.7113 C   0  0  0  0  0  0  0  0  0  0  0  0
   11.5789   -1.7602   23.0642 C   0  0  0  0  0  0  0  0  0  0  0  0
    6.1431    1.1570   17.5423 C   0  0  0  0  0  0  0  0  0  0  0  0
    7.7671   -0.0316   18.6504 C   0  0  0  0  0  0  0  0  0  0  0  0
   12.7767   -1.2433   23.5581 C   0  0  0  0  0  0  0  0  0  0  0  0
   10.4056   -1.0114   23.1563 C   0  0  0  0  0  0  0  0  0  0  0  0
    5.9465    0.8604   19.8938 C   0  0  0  0  0  0  0  0  0  0  0  0
    7.1347    0.1386   19.8715 C   0  0  0  0  0  0  0  0  0  0  0  0
    8.8731   -1.1482   21.1637 C   0  0  0  0  0  0  0  0  0  0  0  0
    5.2034    1.0891   21.1691 C   0  0  0  0  0  0  0  0  0  0  0  0
    9.0567   -3.0965   22.7702 C   0  0  0  0  0  0  0  0  0  0  0  0
    9.1249   -1.5639   22.6283 C   0  0  1  0  0  0  0  0  0  0  0  0
   14.9554   -2.6325   23.3890 N   0  0  0  0  0  0  0  0  0  0  0  0
    7.3003    0.4608   17.4811 N   0  0  0  0  0  0  0  0  0  0  0  0
    7.6959   -0.4130   21.0476 N   0  0  0  0  0  0  0  0  0  0  0  0
    9.6575   -1.4364   20.2644 O   0  0  0  0  0  0  0  0  0  0  0  0
   11.6468    1.7571   24.6910 H   0  0  0  0  0  0  0  0  0  0  0  0
   13.7271    0.4386   24.5338 H   0  0  0  0  0  0  0  0  0  0  0  0
    9.5211    0.8449   23.8189 H   0  0  0  0  0  0  0  0  0  0  0  0
    4.5104    1.9504   18.6947 H   0  0  0  0  0  0  0  0  0  0  0  0
   11.5537   -2.7464   22.6052 H   0  0  0  0  0  0  0  0  0  0  0  0
    5.7862    1.5434   16.5932 H   0  0  0  0  0  0  0  0  0  0  0  0
    8.6974   -0.5858   18.5682 H   0  0  0  0  0  0  0  0  0  0  0  0
    4.4841    0.2798   21.3398 H   0  0  0  0  0  0  0  0  0  0  0  0
    5.8887    1.1342   22.0245 H   0  0  0  0  0  0  0  0  0  0  0  0
    4.6593    2.0414   21.1453 H   0  0  0  0  0  0  0  0  0  0  0  0
    9.8747   -3.5863   22.2300 H   0  0  0  0  0  0  0  0  0  0  0  0
    9.1242   -3.4106   23.8179 H   0  0  0  0  0  0  0  0  0  0  0  0
    8.1108   -3.4765   22.3687 H   0  0  0  0  0  0  0  0  0  0  0  0
    8.2636   -1.1717   23.2048 H   0  0  0  0  0  0  0  0  0  0  0  0
    7.1680   -0.2415   21.9007 H   0  0  0  0  0  0  0  0  0  0  0  0
  1  9  1  0  0  0  0
  1 17  3  0  0  0  0
  2  3  1  0  0  0  0
  2  4  2  0  0  0  0
  3  9  2  0  0  0  0
  4 10  1  0  0  0  0
  5  7  2  0  0  0  0
  5 11  1  0  0  0  0
  6  9  1  0  0  0  0
  6 10  2  0  0  0  0
  7 18  1  0  0  0  0
  8 12  1  0  0  0  0
  8 18  2  0  0  0  0
 10 16  1  0  0  0  0
 11 12  2  0  0  0  0
 11 14  1  0  0  0  0
 12 19  1  0  0  0  0
 13 16  1  0  0  0  0
 13 19  1  0  0  0  0
 13 20  2  0  0  0  0
 15 16  1  0  0  0  0
  2 21  1  0  0  0  0
  3 22  1  0  0  0  0
  4 23  1  0  0  0  0
  5 24  1  0  0  0  0
  6 25  1  0  0  0  0
  7 26  1  0  0  0  0
  8 27  1  0  0  0  0
 14 28  1  0  0  0  0
 14 29  1  0  0  0  0
 14 30  1  0  0  0  0
 15 31  1  0  0  0  0
 15 32  1  0  0  0  0
 15 33  1  0  0  0  0
 16 34  1  0  0  0  0
 19 35  1  0  0  0  0
M  END
> <Hybrid2>
-11.090258

> <fragments>
x0678

> <Mpro-x0678_dock>
-11.090258

> <Mpro-x0107_dock>
-10.61656

> <Mpro-x0831_dock>
-8.581456

> <Mpro-x1093_dock>
-8.439042

> <Mpro-x0195_dock>
-8.380354

> <Mpro-x1334_dock>
-8.326181

> <Mpro-x0104_dock>
-8.201257

> <Mpro-x0161_dock>
-8.161126

> <Mpro-x0830_dock>
-7.964139

> <Mpro-x0072_dock>
-7.665699

> <Mpro-x0749_dock>
-7.47278

> <Mpro-x0434_dock>
-7.339839

> <Mpro-x0397_dock>
-6.83842

> <Mpro-x1077_dock>
-6.734556

> <Mpro-x1418_dock>
-6.599014

> <Mpro-x0946_dock>
-6.589761

> <Mpro-x0692_dock>
-6.53945

> <Mpro-x1386_dock>
-6.510236

> <Mpro-x1385_dock>
-6.395625

> <Mpro-x0770_dock>
-6.279761

> <Mpro-x0874_dock>
-5.956039

> <Mpro-x1249_dock>
-5.941026

> <Mpro-x1493_dock>
-5.801727

> <Mpro-x1375_dock>
-5.758858

> <Mpro-x0395_dock>
-5.736192

> <Mpro-x1311_dock>
-5.312217

> <Mpro-x0967_dock>
-5.264413

> <Mpro-x1392_dock>
-5.226398

> <Mpro-x1412_dock>
-5.146008

> <Mpro-x1382_dock>
-5.143421

> <Mpro-x0759_dock>
-5.056284

> <Mpro-x0387_dock>
-4.915076

> <Mpro-x1374_dock>
-4.487648

> <Mpro-x0708_dock>
-4.406974

> <Mpro-x0736_dock>
-4.355517

> <Mpro-x0354_dock>
-4.354254

> <Mpro-x1478_dock>
-4.330488

> <Mpro-x0774_dock>
-4.201208

> <Mpro-x1348_dock>
-4.130159

> <Mpro-x0820_dock>
-3.941248

> <Mpro-x1458_dock>
-3.772659

> <Mpro-x0305_dock>
-3.747659

> <Mpro-x0734_dock>
-3.690393

> <Mpro-x0752_dock>
-3.605484

> <Mpro-x1187_dock>
-3.544996

> <Mpro-x0426_dock>
-2.623126

> <Mpro-x1380_dock>
-2.599507

> <Mpro-x0978_dock>
-2.481516

> <Mpro-x0689_dock>
-2.469438

> <Mpro-x0786_dock>
-2.322742

> <Mpro-x0771_dock>
-2.312406

> <Mpro-x1425_dock>
-2.2624

> <Mpro-x1308_dock>
-2.005914

> <Mpro-x1351_dock>
-1.987933

> <Mpro-x0540_dock>
-1.983252

> <Mpro-x1384_dock>
-1.816072

> <Mpro-x1358_dock>
-1.80125

> <Mpro-x0705_dock>
-1.649618

> <Mpro-x1402_dock>
-1.452461

> <Mpro-x0731_dock>
-1.358594

> <Mpro-x0769_dock>
-1.347568

> <Mpro-x0887_dock>
-1.27164

> <Mpro-x0755_dock>
-1.20398

> <Mpro-x0691_dock>
-1.174878

> <Mpro-x0981_dock>
0.007327

> <site>
active-noncovalent

$$$$
BAR-COM-4e0-24
  -OEChem-04022003013D

 49 51  0     1  0  0  0  0  0999 V2000
   13.3637   -2.1562   23.4657 C   0  0  0  0  0  0  0  0  0  0  0  0
   13.2623   -1.7302   22.1414 C   0  0  0  0  0  0  0  0  0  0  0  0
    5.8831   -0.4364   19.2904 C   0  0  0  0  0  0  0  0  0  0  0  0
   12.3542   -1.8467   24.3771 C   0  0  0  0  0  0  0  0  0  0  0  0
    6.5872    0.2432   20.2781 C   0  0  0  0  0  0  0  0  0  0  0  0
   12.1515   -0.9945   21.7285 C   0  0  0  0  0  0  0  0  0  0  0  0
    6.4284   -0.4782   18.0173 C   0  0  0  0  0  0  0  0  0  0  0  0
    8.2578    0.7522   18.6637 C   0  0  0  0  0  0  0  0  0  0  0  0
   11.2434   -1.1109   23.9643 C   0  0  0  0  0  0  0  0  0  0  0  0
    7.7981    0.8518   19.9669 C   0  0  0  0  0  0  0  0  0  0  0  0
   11.1420   -0.6848   22.6400 C   0  0  0  0  0  0  0  0  0  0  0  0
   10.2061   -0.8043   24.9422 C   0  0  0  0  0  0  0  0  0  0  0  0
    9.9895    1.0158   21.1843 C   0  0  0  0  0  0  0  0  0  0  0  0
    8.5828   -2.5002   23.9266 C   0  0  0  0  0  0  0  0  0  0  0  0
    7.7500   -0.4992   25.0920 C   0  0  0  0  0  0  0  0  0  0  0  0
    7.6474   -3.3895   24.7326 C   0  0  0  0  0  0  0  0  0  0  0  0
    6.7920   -1.3510   25.9135 C   0  0  0  0  0  0  0  0  0  0  0  0
    5.4118   -3.4313   25.8461 C   0  0  0  0  0  0  0  0  0  0  0  0
    8.5874    1.5973   21.0179 C   0  0  1  0  0  0  0  0  0  0  0  0
    7.6018    0.1006   17.6773 N   0  0  0  0  0  0  0  0  0  0  0  0
    8.9138   -1.2827   24.6781 N   0  0  0  0  0  0  0  0  0  0  0  0
   10.0392    0.0551   22.2044 N   0  0  0  0  0  0  0  0  0  0  0  0
    6.4238   -2.5878   25.1230 N   0  3  0  0  0  0  0  0  0  0  0  0
   10.4996   -0.1541   25.9449 O   0  0  0  0  0  0  0  0  0  0  0  0
   10.9248    1.3967   20.4862 O   0  0  0  0  0  0  0  0  0  0  0  0
    8.6809    2.9620   20.6366 O   0  0  0  0  0  0  0  0  0  0  0  0
   14.2290   -2.7288   23.7869 H   0  0  0  0  0  0  0  0  0  0  0  0
   14.0485   -1.9717   21.4320 H   0  0  0  0  0  0  0  0  0  0  0  0
    4.9374   -0.9185   19.5101 H   0  0  0  0  0  0  0  0  0  0  0  0
   12.4448   -2.1847   25.4064 H   0  0  0  0  0  0  0  0  0  0  0  0
    6.1853    0.2934   21.2864 H   0  0  0  0  0  0  0  0  0  0  0  0
   12.0843   -0.6683   20.6937 H   0  0  0  0  0  0  0  0  0  0  0  0
    5.9178   -0.9956   17.2118 H   0  0  0  0  0  0  0  0  0  0  0  0
    9.1963    1.2068   18.3617 H   0  0  0  0  0  0  0  0  0  0  0  0
    9.4812   -3.0640   23.6635 H   0  0  0  0  0  0  0  0  0  0  0  0
    8.1104   -2.1887   22.9872 H   0  0  0  0  0  0  0  0  0  0  0  0
    7.2604   -0.1263   24.1845 H   0  0  0  0  0  0  0  0  0  0  0  0
    8.0621    0.3721   25.6766 H   0  0  0  0  0  0  0  0  0  0  0  0
    7.3034   -4.2361   24.1297 H   0  0  0  0  0  0  0  0  0  0  0  0
    8.1174   -3.7561   25.6519 H   0  0  0  0  0  0  0  0  0  0  0  0
    7.2406   -1.6775   26.8584 H   0  0  0  0  0  0  0  0  0  0  0  0
    5.8647   -0.8049   26.1153 H   0  0  0  0  0  0  0  0  0  0  0  0
    5.8685   -3.7781   26.7748 H   0  0  0  0  0  0  0  0  0  0  0  0
    4.5389   -2.8073   26.0468 H   0  0  0  0  0  0  0  0  0  0  0  0
    5.1532   -4.2713   25.1985 H   0  0  0  0  0  0  0  0  0  0  0  0
    8.0681    1.5678   21.9835 H   0  0  0  0  0  0  0  0  0  0  0  0
    9.1539   -0.1280   22.6880 H   0  0  0  0  0  0  0  0  0  0  0  0
    5.9740   -2.2720   24.2526 H   0  0  0  0  0  0  0  0  0  0  0  0
    9.1344    2.9837   19.7780 H   0  0  0  0  0  0  0  0  0  0  0  0
  1  2  1  0  0  0  0
  1  4  2  0  0  0  0
  2  6  2  0  0  0  0
  3  5  2  0  0  0  0
  3  7  1  0  0  0  0
  4  9  1  0  0  0  0
  5 10  1  0  0  0  0
  6 11  1  0  0  0  0
  7 20  2  0  0  0  0
  8 10  2  0  0  0  0
  8 20  1  0  0  0  0
  9 11  2  0  0  0  0
  9 12  1  0  0  0  0
 10 19  1  0  0  0  0
 11 22  1  0  0  0  0
 12 21  1  0  0  0  0
 12 24  2  0  0  0  0
 13 19  1  0  0  0  0
 13 22  1  0  0  0  0
 13 25  2  0  0  0  0
 14 16  1  0  0  0  0
 14 21  1  0  0  0  0
 15 17  1  0  0  0  0
 15 21  1  0  0  0  0
 16 23  1  0  0  0  0
 17 23  1  0  0  0  0
 18 23  1  0  0  0  0
 19 26  1  0  0  0  0
  1 27  1  0  0  0  0
  2 28  1  0  0  0  0
  3 29  1  0  0  0  0
  4 30  1  0  0  0  0
  5 31  1  0  0  0  0
  6 32  1  0  0  0  0
  7 33  1  0  0  0  0
  8 34  1  0  0  0  0
 14 35  1  0  0  0  0
 14 36  1  0  0  0  0
 15 37  1  0  0  0  0
 15 38  1  0  0  0  0
 16 39  1  0  0  0  0
 16 40  1  0  0  0  0
 17 41  1  0  0  0  0
 17 42  1  0  0  0  0
 18 43  1  0  0  0  0
 18 44  1  0  0  0  0
 18 45  1  0  0  0  0
 19 46  1  0  0  0  0
 22 47  1  0  0  0  0
 23 48  1  0  0  0  0
 26 49  1  0  0  0  0
M  CHG  1  23   1
M  END
> <Hybrid2>
-11.048645

> <fragments>
x0678

> <Mpro-x0678_dock>
-11.048645

> <Mpro-x1392_dock>
-7.142921

> <Mpro-x0397_dock>
-7.106661

> <Mpro-x0434_dock>
-6.558448

> <Mpro-x0195_dock>
-6.556335

> <Mpro-x0104_dock>
-6.25755

> <Mpro-x1334_dock>
-6.25669

> <Mpro-x0107_dock>
-6.226214

> <Mpro-x0831_dock>
-6.223252

> <Mpro-x0305_dock>
-5.975825

> <Mpro-x1385_dock>
-5.899795

> <Mpro-x0946_dock>
-5.431784

> <Mpro-x0770_dock>
-5.395019

> <Mpro-x0072_dock>
-5.337478

> <Mpro-x1077_dock>
-5.157171

> <Mpro-x1412_dock>
-5.127808

> <Mpro-x0874_dock>
-5.117128

> <Mpro-x0692_dock>
-5.105024

> <Mpro-x0759_dock>
-5.0943

> <Mpro-x1386_dock>
-5.061709

> <Mpro-x1418_dock>
-4.992239

> <Mpro-x0774_dock>
-4.923887

> <Mpro-x0387_dock>
-4.827654

> <Mpro-x0749_dock>
-4.759866

> <Mpro-x0820_dock>
-4.759137

> <Mpro-x0830_dock>
-3.995073

> <Mpro-x1493_dock>
-3.879604

> <Mpro-x0161_dock>
-3.844392

> <Mpro-x1348_dock>
-3.640445

> <Mpro-x0736_dock>
-3.56637

> <Mpro-x1249_dock>
-3.522953

> <Mpro-x0967_dock>
-3.494133

> <Mpro-x1093_dock>
-3.396067

> <Mpro-x1478_dock>
-3.3932

> <Mpro-x1187_dock>
-3.279608

> <Mpro-x1458_dock>
-3.06025

> <Mpro-x0734_dock>
-3.037944

> <Mpro-x0731_dock>
-3.014578

> <Mpro-x0395_dock>
-2.989217

> <Mpro-x0708_dock>
-2.974174

> <Mpro-x0354_dock>
-2.790369

> <Mpro-x1311_dock>
-2.127246

> <Mpro-x0769_dock>
-1.918357

> <Mpro-x0755_dock>
-1.769546

> <Mpro-x1375_dock>
-1.765848

> <Mpro-x1374_dock>
-1.609427

> <Mpro-x1308_dock>
-1.523629

> <Mpro-x1358_dock>
-1.512612

> <Mpro-x0540_dock>
-1.494978

> <Mpro-x0691_dock>
-1.494345

> <Mpro-x0689_dock>
-1.357435

> <Mpro-x1380_dock>
-1.356117

> <Mpro-x0752_dock>
-1.34073

> <Mpro-x1402_dock>
-1.282641

> <Mpro-x1351_dock>
-1.140763

> <Mpro-x1384_dock>
-1.081144

> <Mpro-x1382_dock>
-0.833987

> <Mpro-x0771_dock>
-0.811819

> <Mpro-x1425_dock>
-0.523151

> <Mpro-x0426_dock>
-0.481346

> <Mpro-x0887_dock>
-0.388994

> <Mpro-x0705_dock>
0.197776

> <Mpro-x0786_dock>
0.843237

> <Mpro-x0978_dock>
0.989391

> <Mpro-x0981_dock>
1.159321

> <site>
active-noncovalent

$$$$
BAR-COM-4e0-64
  -OEChem-04022003013D

 44 47  0     0  0  0  0  0  0999 V2000
    9.0990    6.3133   24.2473 C   0  0  0  0  0  0  0  0  0  0  0  0
   10.1466    5.8985   23.4251 C   0  0  0  0  0  0  0  0  0  0  0  0
    8.3189    5.3680   24.9134 C   0  0  0  0  0  0  0  0  0  0  0  0
   14.2972   -2.1358   23.8598 C   0  0  0  0  0  0  0  0  0  0  0  0
   10.4141    4.5385   23.2687 C   0  0  0  0  0  0  0  0  0  0  0  0
    8.5864    4.0080   24.7570 C   0  0  0  0  0  0  0  0  0  0  0  0
   14.4991   -0.7782   24.0637 C   0  0  0  0  0  0  0  0  0  0  0  0
   13.0891   -2.6054   23.3411 C   0  0  0  0  0  0  0  0  0  0  0  0
    6.6615    1.4047   17.4044 C   0  0  0  0  0  0  0  0  0  0  0  0
    5.9670    1.8442   18.5098 C   0  0  0  0  0  0  0  0  0  0  0  0
    7.3081   -0.4637   18.5535 C   0  0  0  0  0  0  0  0  0  0  0  0
   12.2563   -0.3049   23.2236 C   0  0  0  0  0  0  0  0  0  0  0  0
   11.0893    0.4330   22.8315 C   0  0  0  0  0  0  0  0  0  0  0  0
    9.6339    3.5932   23.9347 C   0  0  0  0  0  0  0  0  0  0  0  0
   13.4927    0.1395   23.7512 C   0  0  0  0  0  0  0  0  0  0  0  0
   12.0765   -1.6776   23.0273 C   0  0  0  0  0  0  0  0  0  0  0  0
   10.0801   -0.3726   22.3603 C   0  0  0  0  0  0  0  0  0  0  0  0
    6.6143   -0.0239   19.6592 C   0  0  0  0  0  0  0  0  0  0  0  0
    8.7838   -0.0104   21.8825 C   0  0  0  0  0  0  0  0  0  0  0  0
   10.9789    1.9125   22.9237 C   0  0  0  0  0  0  0  0  0  0  0  0
    6.5964   -0.8376   20.9209 C   0  0  0  0  0  0  0  0  0  0  0  0
    7.3445    0.2428   17.4064 N   0  0  0  0  0  0  0  0  0  0  0  0
    5.9310    1.1378   19.6571 N   0  0  0  0  0  0  0  0  0  0  0  0
    7.9254   -1.0444   21.4499 N   0  0  0  0  0  0  0  0  0  0  0  0
    8.4162    1.1906   21.8251 O   0  0  0  0  0  0  0  0  0  0  0  0
    9.8950    2.2578   23.7803 O   0  0  0  0  0  0  0  0  0  0  0  0
   13.7166    1.4454   23.9585 F   0  0  0  0  0  0  0  0  0  0  0  0
   10.5150   -2.0205   22.3811 S   0  0  0  0  0  0  0  0  0  0  0  0
    8.8909    7.3721   24.3697 H   0  0  0  0  0  0  0  0  0  0  0  0
   10.7541    6.6344   22.9062 H   0  0  0  0  0  0  0  0  0  0  0  0
    7.5034    5.6918   25.5536 H   0  0  0  0  0  0  0  0  0  0  0  0
   15.0855   -2.8420   24.1059 H   0  0  0  0  0  0  0  0  0  0  0  0
   11.2306    4.2219   22.6256 H   0  0  0  0  0  0  0  0  0  0  0  0
    7.9742    3.2760   25.2769 H   0  0  0  0  0  0  0  0  0  0  0  0
   15.4432   -0.4245   24.4682 H   0  0  0  0  0  0  0  0  0  0  0  0
   12.9400   -3.6701   23.1853 H   0  0  0  0  0  0  0  0  0  0  0  0
    6.6901    1.9730   16.4830 H   0  0  0  0  0  0  0  0  0  0  0  0
    5.4183    2.7779   18.5075 H   0  0  0  0  0  0  0  0  0  0  0  0
    7.8593   -1.3967   18.5477 H   0  0  0  0  0  0  0  0  0  0  0  0
   11.8979    2.3636   23.3272 H   0  0  0  0  0  0  0  0  0  0  0  0
   10.8017    2.3645   21.9362 H   0  0  0  0  0  0  0  0  0  0  0  0
    5.9998   -0.3398   21.6930 H   0  0  0  0  0  0  0  0  0  0  0  0
    6.1483   -1.8216   20.7475 H   0  0  0  0  0  0  0  0  0  0  0  0
    8.2788   -1.9956   21.4512 H   0  0  0  0  0  0  0  0  0  0  0  0
  1  2  1  0  0  0  0
  1  3  2  0  0  0  0
  2  5  2  0  0  0  0
  3  6  1  0  0  0  0
  4  7  1  0  0  0  0
  4  8  2  0  0  0  0
  5 14  1  0  0  0  0
  6 14  2  0  0  0  0
  7 15  2  0  0  0  0
  8 16  1  0  0  0  0
  9 10  2  0  0  0  0
  9 22  1  0  0  0  0
 10 23  1  0  0  0  0
 11 18  1  0  0  0  0
 11 22  2  0  0  0  0
 12 13  1  0  0  0  0
 12 15  1  0  0  0  0
 12 16  2  0  0  0  0
 13 17  2  0  0  0  0
 13 20  1  0  0  0  0
 14 26  1  0  0  0  0
 15 27  1  0  0  0  0
 16 28  1  0  0  0  0
 17 19  1  0  0  0  0
 17 28  1  0  0  0  0
 18 21  1  0  0  0  0
 18 23  2  0  0  0  0
 19 24  1  0  0  0  0
 19 25  2  0  0  0  0
 20 26  1  0  0  0  0
 21 24  1  0  0  0  0
  1 29  1  0  0  0  0
  2 30  1  0  0  0  0
  3 31  1  0  0  0  0
  4 32  1  0  0  0  0
  5 33  1  0  0  0  0
  6 34  1  0  0  0  0
  7 35  1  0  0  0  0
  8 36  1  0  0  0  0
  9 37  1  0  0  0  0
 10 38  1  0  0  0  0
 11 39  1  0  0  0  0
 20 40  1  0  0  0  0
 20 41  1  0  0  0  0
 21 42  1  0  0  0  0
 21 43  1  0  0  0  0
 24 44  1  0  0  0  0
M  END
> <Hybrid2>
-10.726959

> <fragments>
x0678

> <Mpro-x0678_dock>
-10.726959

> <Mpro-x0195_dock>
-8.387394

> <Mpro-x0749_dock>
-8.169627

> <Mpro-x0104_dock>
-7.159947

> <Mpro-x1077_dock>
-6.879305

> <Mpro-x0072_dock>
-6.623471

> <Mpro-x0107_dock>
-6.621051

> <Mpro-x1392_dock>
-6.549394

> <Mpro-x0874_dock>
-6.393781

> <Mpro-x0397_dock>
-6.258034

> <Mpro-x0161_dock>
-6.233707

> <Mpro-x0434_dock>
-4.9476

> <Mpro-x0946_dock>
-4.891747

> <Mpro-x0967_dock>
-4.611968

> <Mpro-x1187_dock>
-4.585014

> <Mpro-x0305_dock>
-4.559659

> <Mpro-x1093_dock>
-4.446756

> <Mpro-x1478_dock>
-3.891555

> <Mpro-x1348_dock>
-3.858409

> <Mpro-x1334_dock>
-3.681756

> <Mpro-x1385_dock>
-3.606274

> <Mpro-x0387_dock>
-3.44896

> <Mpro-x0395_dock>
-3.327178

> <Mpro-x1351_dock>
-3.087942

> <Mpro-x1358_dock>
-2.794497

> <Mpro-x1249_dock>
-2.673096

> <Mpro-x0692_dock>
-2.316087

> <Mpro-x1311_dock>
-2.259672

> <Mpro-x1493_dock>
-2.248205

> <Mpro-x1412_dock>
-2.245973

> <Mpro-x1374_dock>
-2.061652

> <Mpro-x1380_dock>
-2.026572

> <Mpro-x0770_dock>
-1.997388

> <Mpro-x1386_dock>
-1.921297

> <Mpro-x0426_dock>
-1.882685

> <Mpro-x1418_dock>
-1.796027

> <Mpro-x0354_dock>
-1.687715

> <Mpro-x1425_dock>
-1.470722

> <Mpro-x0830_dock>
-1.312525

> <Mpro-x0708_dock>
-0.900401

> <Mpro-x0759_dock>
-0.89622

> <Mpro-x0689_dock>
-0.767499

> <Mpro-x0752_dock>
-0.626178

> <Mpro-x1458_dock>
-0.495855

> <Mpro-x1384_dock>
-0.388076

> <Mpro-x0540_dock>
-0.350391

> <Mpro-x0887_dock>
-0.326647

> <Mpro-x0820_dock>
-0.226551

> <Mpro-x0774_dock>
-0.177641

> <Mpro-x0734_dock>
-0.152345

> <Mpro-x0736_dock>
-0.107364

> <Mpro-x1308_dock>
-0.060167

> <Mpro-x0786_dock>
-0.04703

> <Mpro-x0771_dock>
-0.018399

> <Mpro-x0705_dock>
0.094578

> <Mpro-x1375_dock>
0.149714

> <Mpro-x1402_dock>
0.772391

> <Mpro-x0831_dock>
0.808527

> <Mpro-x1382_dock>
0.887481

> <Mpro-x0731_dock>
1.470538

> <Mpro-x0769_dock>
1.511652

> <Mpro-x0691_dock>
1.594041

> <Mpro-x0755_dock>
1.731751

> <Mpro-x0978_dock>
1.77637

> <Mpro-x0981_dock>
1.79254

> <site>
active-noncovalent

$$$$
BAR-COM-4e0-56
  -OEChem-04022003013D

 46 48  0     1  0  0  0  0  0999 V2000
    8.7632    5.8815   22.6562 C   0  0  0  0  0  0  0  0  0  0  0  0
   10.1565    5.8999   22.5938 C   0  0  0  0  0  0  0  0  0  0  0  0
    8.1067    4.8152   23.2708 C   0  0  0  0  0  0  0  0  0  0  0  0
   10.8933    4.8521   23.1459 C   0  0  0  0  0  0  0  0  0  0  0  0
    8.8435    3.7674   23.8229 C   0  0  0  0  0  0  0  0  0  0  0  0
    6.6380   -0.9096   20.2424 C   0  0  0  0  0  0  0  0  0  0  0  0
    6.0305   -1.2003   19.0375 C   0  0  0  0  0  0  0  0  0  0  0  0
    8.3742    0.0899   18.9793 C   0  0  0  0  0  0  0  0  0  0  0  0
   10.2368    3.7858   23.7605 C   0  0  0  0  0  0  0  0  0  0  0  0
    7.8499   -0.2423   20.2123 C   0  0  0  0  0  0  0  0  0  0  0  0
   12.0686    0.4208   23.9979 C   0  0  0  0  0  0  0  0  0  0  0  0
    9.7504    0.7560   21.5436 C   0  0  0  0  0  0  0  0  0  0  0  0
   14.0631   -2.1878   22.3429 C   0  0  0  0  0  0  0  0  0  0  0  0
   14.1347   -1.0702   21.3099 C   0  0  0  0  0  0  0  0  0  0  0  0
   13.6581   -1.4510   23.6103 C   0  0  0  0  0  0  0  0  0  0  0  0
   12.9675   -0.1728   21.6965 C   0  0  0  0  0  0  0  0  0  0  0  0
   11.0333    2.6518   24.3577 C   0  0  0  0  0  0  0  0  0  0  0  0
   11.2900    1.5381   23.3511 C   0  0  2  0  0  0  0  0  0  0  0  0
    6.5665   -0.8631   17.8454 N   0  0  0  0  0  0  0  0  0  0  0  0
    7.7578   -0.2076   17.8158 N   0  0  0  0  0  0  0  0  0  0  0  0
   12.8429   -0.3402   23.1411 N   0  0  0  0  0  0  0  0  0  0  0  0
    8.5298    0.0888   21.4076 N   0  0  0  0  0  0  0  0  0  0  0  0
   10.0906    0.8941   22.8990 N   0  0  0  0  0  0  0  0  0  0  0  0
   11.9980    0.2332   25.2135 O   0  0  0  0  0  0  0  0  0  0  0  0
   10.4591    1.1794   20.6335 O   0  0  0  0  0  0  0  0  0  0  0  0
    8.1897    6.6981   22.2275 H   0  0  0  0  0  0  0  0  0  0  0  0
   10.6679    6.7306   22.1163 H   0  0  0  0  0  0  0  0  0  0  0  0
    7.0219    4.8010   23.3206 H   0  0  0  0  0  0  0  0  0  0  0  0
   11.9786    4.8749   23.0924 H   0  0  0  0  0  0  0  0  0  0  0  0
    8.3234    2.9407   24.2997 H   0  0  0  0  0  0  0  0  0  0  0  0
    6.1712   -1.1989   21.1781 H   0  0  0  0  0  0  0  0  0  0  0  0
    5.0813   -1.7215   18.9932 H   0  0  0  0  0  0  0  0  0  0  0  0
    9.3193    0.6123   18.8787 H   0  0  0  0  0  0  0  0  0  0  0  0
   13.2909   -2.9136   22.0619 H   0  0  0  0  0  0  0  0  0  0  0  0
   15.0143   -2.7161   22.4512 H   0  0  0  0  0  0  0  0  0  0  0  0
   15.0810   -0.5253   21.4081 H   0  0  0  0  0  0  0  0  0  0  0  0
   14.0533   -1.4443   20.2856 H   0  0  0  0  0  0  0  0  0  0  0  0
   13.0992   -2.0768   24.3123 H   0  0  0  0  0  0  0  0  0  0  0  0
   14.5278   -1.0303   24.1271 H   0  0  0  0  0  0  0  0  0  0  0  0
   13.1363    0.8748   21.4331 H   0  0  0  0  0  0  0  0  0  0  0  0
   12.0325   -0.5126   21.2381 H   0  0  0  0  0  0  0  0  0  0  0  0
   11.9850    3.0532   24.7314 H   0  0  0  0  0  0  0  0  0  0  0  0
   10.5145    2.2644   25.2453 H   0  0  0  0  0  0  0  0  0  0  0  0
   11.8480    1.8771   22.4778 H   0  0  0  0  0  0  0  0  0  0  0  0
    8.0707   -0.1944   22.2697 H   0  0  0  0  0  0  0  0  0  0  0  0
    9.4514    0.5168   23.5986 H   0  0  0  0  0  0  0  0  0  0  0  0
  1  2  1  0  0  0  0
  1  3  2  0  0  0  0
  2  4  2  0  0  0  0
  3  5  1  0  0  0  0
  4  9  1  0  0  0  0
  5  9  2  0  0  0  0
  6  7  2  0  0  0  0
  6 10  1  0  0  0  0
  7 19  1  0  0  0  0
  8 10  2  0  0  0  0
  8 20  1  0  0  0  0
  9 17  1  0  0  0  0
 10 22  1  0  0  0  0
 11 18  1  0  0  0  0
 11 21  1  0  0  0  0
 11 24  2  0  0  0  0
 12 22  1  0  0  0  0
 12 23  1  0  0  0  0
 12 25  2  0  0  0  0
 13 14  1  0  0  0  0
 13 15  1  0  0  0  0
 14 16  1  0  0  0  0
 15 21  1  0  0  0  0
 16 21  1  0  0  0  0
 17 18  1  0  0  0  0
 18 23  1  0  0  0  0
 19 20  2  0  0  0  0
  1 26  1  0  0  0  0
  2 27  1  0  0  0  0
  3 28  1  0  0  0  0
  4 29  1  0  0  0  0
  5 30  1  0  0  0  0
  6 31  1  0  0  0  0
  7 32  1  0  0  0  0
  8 33  1  0  0  0  0
 13 34  1  0  0  0  0
 13 35  1  0  0  0  0
 14 36  1  0  0  0  0
 14 37  1  0  0  0  0
 15 38  1  0  0  0  0
 15 39  1  0  0  0  0
 16 40  1  0  0  0  0
 16 41  1  0  0  0  0
 17 42  1  0  0  0  0
 17 43  1  0  0  0  0
 18 44  1  0  0  0  0
 22 45  1  0  0  0  0
 23 46  1  0  0  0  0
M  END
> <Hybrid2>
-10.695679

> <fragments>
x0678

> <Mpro-x0678_dock>
-10.695679

> <Mpro-x0107_dock>
-8.665943

> <Mpro-x0161_dock>
-7.159065

> <Mpro-x0874_dock>
-6.706126

> <Mpro-x0967_dock>
-6.206763

> <Mpro-x1348_dock>
-6.196864

> <Mpro-x0946_dock>
-6.073677

> <Mpro-x0195_dock>
-6.060069

> <Mpro-x0387_dock>
-6.028911

> <Mpro-x1392_dock>
-5.873184

> <Mpro-x0434_dock>
-5.776395

> <Mpro-x0072_dock>
-5.753808

> <Mpro-x0397_dock>
-5.523847

> <Mpro-x1412_dock>
-5.317045

> <Mpro-x0830_dock>
-5.178309

> <Mpro-x0831_dock>
-4.879295

> <Mpro-x1077_dock>
-4.739487

> <Mpro-x0395_dock>
-4.697211

> <Mpro-x0104_dock>
-4.560631

> <Mpro-x1418_dock>
-4.342994

> <Mpro-x0749_dock>
-3.870948

> <Mpro-x1093_dock>
-3.799353

> <Mpro-x0692_dock>
-3.798337

> <Mpro-x1386_dock>
-3.79226

> <Mpro-x0981_dock>
-3.782104

> <Mpro-x1334_dock>
-3.647507

> <Mpro-x0734_dock>
-3.578821

> <Mpro-x1385_dock>
-3.365536

> <Mpro-x0354_dock>
-3.174346

> <Mpro-x0770_dock>
-3.129522

> <Mpro-x1358_dock>
-3.048202

> <Mpro-x0426_dock>
-2.784697

> <Mpro-x1187_dock>
-2.666153

> <Mpro-x1375_dock>
-2.653467

> <Mpro-x1249_dock>
-2.622953

> <Mpro-x0759_dock>
-2.513826

> <Mpro-x0774_dock>
-2.380152

> <Mpro-x1380_dock>
-2.165164

> <Mpro-x1311_dock>
-2.133096

> <Mpro-x0540_dock>
-1.757301

> <Mpro-x0305_dock>
-1.587342

> <Mpro-x0708_dock>
-1.482554

> <Mpro-x0820_dock>
-1.320821

> <Mpro-x1382_dock>
-1.043404

> <Mpro-x1351_dock>
-1.040741

> <Mpro-x0736_dock>
-0.961085

> <Mpro-x1458_dock>
-0.894985

> <Mpro-x1374_dock>
-0.822514

> <Mpro-x1425_dock>
-0.78964

> <Mpro-x0705_dock>
-0.273326

> <Mpro-x1478_dock>
-0.192751

> <Mpro-x0887_dock>
-0.084189

> <Mpro-x0752_dock>
-0.019968

> <Mpro-x0978_dock>
0.261755

> <Mpro-x0771_dock>
0.428424

> <Mpro-x1402_dock>
0.569223

> <Mpro-x0755_dock>
0.611854

> <Mpro-x1493_dock>
1.095418

> <Mpro-x1308_dock>
1.152232

> <Mpro-x0786_dock>
1.257344

> <Mpro-x0691_dock>
1.434349

> <Mpro-x0689_dock>
1.561399

> <Mpro-x1384_dock>
1.632262

> <Mpro-x0769_dock>
1.814814

> <Mpro-x0731_dock>
2.204243

> <site>
active-noncovalent

$$$$
TRY-UNI-1fd-5
  -OEChem-04022003013D

 35 37  0     0  0  0  0  0  0999 V2000
   12.6106    1.3741   23.8416 C   0  0  0  0  0  0  0  0  0  0  0  0
    5.3883    1.4273   18.6001 C   0  0  0  0  0  0  0  0  0  0  0  0
    5.6248    0.9296   19.8802 C   0  0  0  0  0  0  0  0  0  0  0  0
   11.4116    0.9738   24.4311 C   0  0  0  0  0  0  0  0  0  0  0  0
   13.4245    0.4345   23.2087 C   0  0  0  0  0  0  0  0  0  0  0  0
   11.8402   -1.3057   23.7550 C   0  0  0  0  0  0  0  0  0  0  0  0
    6.2782    1.1063   17.5839 C   0  0  0  0  0  0  0  0  0  0  0  0
    8.4836   -1.1891   20.7040 C   0  0  0  0  0  0  0  0  0  0  0  0
    6.7595    0.1248   20.0716 C   0  0  0  0  0  0  0  0  0  0  0  0
   11.0264   -0.3661   24.3879 C   0  0  0  0  0  0  0  0  0  0  0  0
    7.3492   -0.5586   21.1678 C   0  0  0  0  0  0  0  0  0  0  0  0
   13.0393   -0.9054   23.1654 C   0  0  0  0  0  0  0  0  0  0  0  0
    7.5671   -0.1173   18.9642 C   0  0  0  0  0  0  0  0  0  0  0  0
    7.8366   -0.0707   23.5972 C   0  0  0  0  0  0  0  0  0  0  0  0
    6.8472   -0.5935   22.5560 C   0  0  0  0  0  0  0  0  0  0  0  0
    9.7362   -0.7965   25.0237 C   0  0  0  0  0  0  0  0  0  0  0  0
    7.3849    0.3376   17.7100 N   0  0  0  0  0  0  0  0  0  0  0  0
    8.6062   -0.9144   19.3666 N   0  0  0  0  0  0  0  0  0  0  0  0
    8.7091   -1.0540   24.0417 N   0  0  0  0  0  0  0  0  0  0  0  0
    7.8386    1.0972   23.9777 O   0  0  0  0  0  0  0  0  0  0  0  0
   14.0443   -2.0643   22.3854 Cl  0  0  0  0  0  0  0  0  0  0  0  0
   12.9103    2.4176   23.8756 H   0  0  0  0  0  0  0  0  0  0  0  0
    4.5250    2.0537   18.4028 H   0  0  0  0  0  0  0  0  0  0  0  0
    4.9484    1.1610   20.6966 H   0  0  0  0  0  0  0  0  0  0  0  0
   10.7838    1.7127   24.9222 H   0  0  0  0  0  0  0  0  0  0  0  0
   14.3565    0.7608   22.7537 H   0  0  0  0  0  0  0  0  0  0  0  0
   11.5351   -2.3492   23.7235 H   0  0  0  0  0  0  0  0  0  0  0  0
    6.1091    1.4848   16.5791 H   0  0  0  0  0  0  0  0  0  0  0  0
    9.2147   -1.8090   21.2042 H   0  0  0  0  0  0  0  0  0  0  0  0
    5.9164   -0.0017   22.6564 H   0  0  0  0  0  0  0  0  0  0  0  0
    6.5691   -1.6230   22.8549 H   0  0  0  0  0  0  0  0  0  0  0  0
    9.8804   -1.7113   25.6088 H   0  0  0  0  0  0  0  0  0  0  0  0
    9.3600   -0.0287   25.7081 H   0  0  0  0  0  0  0  0  0  0  0  0
    9.3498   -1.2472   18.7686 H   0  0  0  0  0  0  0  0  0  0  0  0
    8.6220   -1.9918   23.6612 H   0  0  0  0  0  0  0  0  0  0  0  0
  1  4  2  0  0  0  0
  1  5  1  0  0  0  0
  2  3  2  0  0  0  0
  2  7  1  0  0  0  0
  3  9  1  0  0  0  0
  4 10  1  0  0  0  0
  5 12  2  0  0  0  0
  6 10  2  0  0  0  0
  6 12  1  0  0  0  0
  7 17  2  0  0  0  0
  8 11  2  0  0  0  0
  8 18  1  0  0  0  0
  9 11  1  0  0  0  0
  9 13  2  0  0  0  0
 10 16  1  0  0  0  0
 11 15  1  0  0  0  0
 12 21  1  0  0  0  0
 13 17  1  0  0  0  0
 13 18  1  0  0  0  0
 14 15  1  0  0  0  0
 14 19  1  0  0  0  0
 14 20  2  0  0  0  0
 16 19  1  0  0  0  0
  1 22  1  0  0  0  0
  2 23  1  0  0  0  0
  3 24  1  0  0  0  0
  4 25  1  0  0  0  0
  5 26  1  0  0  0  0
  6 27  1  0  0  0  0
  7 28  1  0  0  0  0
  8 29  1  0  0  0  0
 15 30  1  0  0  0  0
 15 31  1  0  0  0  0
 16 32  1  0  0  0  0
 16 33  1  0  0  0  0
 18 34  1  0  0  0  0
 19 35  1  0  0  0  0
M  END
> <Hybrid2>
-10.682974

> <fragments>
x0678

> <Mpro-x0678_dock>
-10.682974

> <Mpro-x0749_dock>
-10.434566

> <Mpro-x0161_dock>
-8.42823

> <Mpro-x0195_dock>
-8.169722

> <Mpro-x0072_dock>
-7.935177

> <Mpro-x1093_dock>
-7.911066

> <Mpro-x0107_dock>
-7.390802

> <Mpro-x1077_dock>
-7.12739

> <Mpro-x0397_dock>
-7.122042

> <Mpro-x0434_dock>
-7.03863

> <Mpro-x0946_dock>
-6.990902

> <Mpro-x0104_dock>
-6.7599

> <Mpro-x1385_dock>
-6.551118

> <Mpro-x0831_dock>
-6.330494

> <Mpro-x0967_dock>
-6.281204

> <Mpro-x0830_dock>
-5.957311

> <Mpro-x1311_dock>
-5.766472

> <Mpro-x0736_dock>
-5.691478

> <Mpro-x0692_dock>
-5.463159

> <Mpro-x1392_dock>
-5.366081

> <Mpro-x1334_dock>
-5.36252

> <Mpro-x1493_dock>
-5.344402

> <Mpro-x0770_dock>
-5.262661

> <Mpro-x0874_dock>
-5.245533

> <Mpro-x1418_dock>
-5.236438

> <Mpro-x1458_dock>
-5.222049

> <Mpro-x1386_dock>
-5.205512

> <Mpro-x1374_dock>
-5.119446

> <Mpro-x0820_dock>
-4.973611

> <Mpro-x1375_dock>
-4.916154

> <Mpro-x1249_dock>
-4.873537

> <Mpro-x0395_dock>
-4.797728

> <Mpro-x1412_dock>
-4.660916

> <Mpro-x0387_dock>
-4.627056

> <Mpro-x1478_dock>
-4.546322

> <Mpro-x0354_dock>
-4.495522

> <Mpro-x1348_dock>
-4.470827

> <Mpro-x0708_dock>
-4.214428

> <Mpro-x0540_dock>
-4.077005

> <Mpro-x0774_dock>
-4.014847

> <Mpro-x0759_dock>
-3.49704

> <Mpro-x0734_dock>
-3.304225

> <Mpro-x0305_dock>
-2.808506

> <Mpro-x0731_dock>
-2.439834

> <Mpro-x1384_dock>
-2.405572

> <Mpro-x0771_dock>
-2.064651

> <Mpro-x0752_dock>
-2.054378

> <Mpro-x1380_dock>
-2.047693

> <Mpro-x1187_dock>
-1.92476

> <Mpro-x0426_dock>
-1.918353

> <Mpro-x1382_dock>
-1.901025

> <Mpro-x1425_dock>
-1.827064

> <Mpro-x1358_dock>
-1.792413

> <Mpro-x1402_dock>
-1.632183

> <Mpro-x0786_dock>
-1.622407

> <Mpro-x0981_dock>
-1.462548

> <Mpro-x0705_dock>
-0.990939

> <Mpro-x1308_dock>
-0.949863

> <Mpro-x1351_dock>
-0.847537

> <Mpro-x0769_dock>
-0.758939

> <Mpro-x0691_dock>
-0.741148

> <Mpro-x0755_dock>
-0.597564

> <Mpro-x0978_dock>
-0.248771

> <Mpro-x0689_dock>
0.080694

> <Mpro-x0887_dock>
0.908274

> <site>
active-noncovalent

$$$$
DAR-DIA-842-16
  -OEChem-04022003013D

 27 28  0     0  0  0  0  0  0999 V2000
    5.6607    1.0211   18.9004 C   0  0  0  0  0  0  0  0  0  0  0  0
    6.2679    0.8679   20.1418 C   0  0  0  0  0  0  0  0  0  0  0  0
    6.4404    0.8374   17.7699 C   0  0  0  0  0  0  0  0  0  0  0  0
    8.3094    0.3778   19.0245 C   0  0  0  0  0  0  0  0  0  0  0  0
   13.2266   -0.4742   24.2557 C   0  0  0  0  0  0  0  0  0  0  0  0
    7.6173    0.5402   20.2138 C   0  0  0  0  0  0  0  0  0  0  0  0
   13.1712   -1.0083   22.9922 C   0  0  0  0  0  0  0  0  0  0  0  0
   11.3028   -0.0957   23.4947 C   0  0  0  0  0  0  0  0  0  0  0  0
    9.6009    0.6199   21.7642 C   0  0  0  0  0  0  0  0  0  0  0  0
   14.1126   -1.7345   22.1342 C   0  0  0  0  0  0  0  0  0  0  0  0
    9.8785    0.3155   23.2279 C   0  0  0  0  0  0  0  0  0  0  0  0
    7.7538    0.5185   17.8000 N   0  0  0  0  0  0  0  0  0  0  0  0
   12.0265    0.1095   24.5719 N   0  0  0  0  0  0  0  0  0  0  0  0
    8.2528    0.3804   21.4427 N   0  0  0  0  0  0  0  0  0  0  0  0
   10.4741    1.0192   21.0006 O   0  0  0  0  0  0  0  0  0  0  0  0
   11.9280   -0.7684   22.4899 O   0  0  0  0  0  0  0  0  0  0  0  0
    4.6101    1.2763   18.8205 H   0  0  0  0  0  0  0  0  0  0  0  0
    5.6809    1.0059   21.0460 H   0  0  0  0  0  0  0  0  0  0  0  0
    6.0141    0.9464   16.7781 H   0  0  0  0  0  0  0  0  0  0  0  0
    9.3647    0.1216   19.0159 H   0  0  0  0  0  0  0  0  0  0  0  0
   14.0555   -0.4774   24.9479 H   0  0  0  0  0  0  0  0  0  0  0  0
   14.0431   -2.8275   22.2873 H   0  0  0  0  0  0  0  0  0  0  0  0
   13.9384   -1.5436   21.0576 H   0  0  0  0  0  0  0  0  0  0  0  0
   15.1650   -1.4447   22.3198 H   0  0  0  0  0  0  0  0  0  0  0  0
    9.1978   -0.4801   23.5568 H   0  0  0  0  0  0  0  0  0  0  0  0
    9.6348    1.2031   23.8254 H   0  0  0  0  0  0  0  0  0  0  0  0
    7.6611    0.0446   22.2130 H   0  0  0  0  0  0  0  0  0  0  0  0
  1  2  2  0  0  0  0
  1  3  1  0  0  0  0
  2  6  1  0  0  0  0
  3 12  2  0  0  0  0
  4  6  2  0  0  0  0
  4 12  1  0  0  0  0
  5  7  2  0  0  0  0
  5 13  1  0  0  0  0
  6 14  1  0  0  0  0
  7 10  1  0  0  0  0
  7 16  1  0  0  0  0
  8 11  1  0  0  0  0
  8 13  2  0  0  0  0
  8 16  1  0  0  0  0
  9 11  1  0  0  0  0
  9 14  1  0  0  0  0
  9 15  2  0  0  0  0
  1 17  1  0  0  0  0
  2 18  1  0  0  0  0
  3 19  1  0  0  0  0
  4 20  1  0  0  0  0
  5 21  1  0  0  0  0
 10 22  1  0  0  0  0
 10 23  1  0  0  0  0
 10 24  1  0  0  0  0
 11 25  1  0  0  0  0
 11 26  1  0  0  0  0
 14 27  1  0  0  0  0
M  END
> <Hybrid2>
-10.643672

> <fragments>
x0678

> <Mpro-x0678_dock>
-10.643672

> <Mpro-x0397_dock>
-9.470078

> <Mpro-x0749_dock>
-8.319584

> <Mpro-x0967_dock>
-7.829569

> <Mpro-x0104_dock>
-7.718012

> <Mpro-x0107_dock>
-7.711469

> <Mpro-x1093_dock>
-7.615253

> <Mpro-x0072_dock>
-7.104104

> <Mpro-x0946_dock>
-6.840622

> <Mpro-x1392_dock>
-6.581008

> <Mpro-x0830_dock>
-6.561348

> <Mpro-x0831_dock>
-6.506318

> <Mpro-x0195_dock>
-6.49347

> <Mpro-x1311_dock>
-6.493065

> <Mpro-x1418_dock>
-6.481808

> <Mpro-x0759_dock>
-6.396419

> <Mpro-x1334_dock>
-6.317008

> <Mpro-x0161_dock>
-6.208733

> <Mpro-x1386_dock>
-6.182939

> <Mpro-x0708_dock>
-6.098443

> <Mpro-x1412_dock>
-6.036214

> <Mpro-x0692_dock>
-5.645544

> <Mpro-x0434_dock>
-5.550553

> <Mpro-x1385_dock>
-5.533381

> <Mpro-x1077_dock>
-5.464272

> <Mpro-x0770_dock>
-5.413635

> <Mpro-x0540_dock>
-4.997913

> <Mpro-x1458_dock>
-4.94105

> <Mpro-x0395_dock>
-4.875383

> <Mpro-x1375_dock>
-4.632867

> <Mpro-x0387_dock>
-4.61641

> <Mpro-x0874_dock>
-4.526377

> <Mpro-x0354_dock>
-4.441473

> <Mpro-x0426_dock>
-4.433225

> <Mpro-x1493_dock>
-4.374467

> <Mpro-x0305_dock>
-4.191416

> <Mpro-x1348_dock>
-3.955168

> <Mpro-x0774_dock>
-3.932358

> <Mpro-x1382_dock>
-3.86267

> <Mpro-x1374_dock>
-3.861735

> <Mpro-x0736_dock>
-3.804478

> <Mpro-x1249_dock>
-3.769595

> <Mpro-x1187_dock>
-3.664869

> <Mpro-x0734_dock>
-3.544678

> <Mpro-x1384_dock>
-3.27618

> <Mpro-x0771_dock>
-3.142916

> <Mpro-x1478_dock>
-3.075012

> <Mpro-x0691_dock>
-3.029215

> <Mpro-x0820_dock>
-3.016403

> <Mpro-x1380_dock>
-2.927337

> <Mpro-x0752_dock>
-2.817521

> <Mpro-x0755_dock>
-2.801982

> <Mpro-x1358_dock>
-2.719529

> <Mpro-x0705_dock>
-2.566207

> <Mpro-x0887_dock>
-2.511693

> <Mpro-x1308_dock>
-2.445826

> <Mpro-x0731_dock>
-2.382884

> <Mpro-x0978_dock>
-2.311151

> <Mpro-x0769_dock>
-2.154034

> <Mpro-x0786_dock>
-1.908881

> <Mpro-x1425_dock>
-1.660083

> <Mpro-x1402_dock>
-1.617875

> <Mpro-x1351_dock>
-1.265768

> <Mpro-x0981_dock>
-1.028068

> <Mpro-x0689_dock>
-0.672206

> <site>
active-noncovalent

$$$$
BAR-COM-4e0-21
  -OEChem-04022003013D

 40 42  0     1  0  0  0  0  0999 V2000
   14.3287   -2.2505   24.0454 C   0  0  0  0  0  0  0  0  0  0  0  0
   13.4118   -3.0628   23.3935 C   0  0  0  0  0  0  0  0  0  0  0  0
   14.2362   -0.8700   23.9117 C   0  0  0  0  0  0  0  0  0  0  0  0
   12.4079   -2.4945   22.6030 C   0  0  0  0  0  0  0  0  0  0  0  0
    5.2958    1.3582   18.0560 C   0  0  0  0  0  0  0  0  0  0  0  0
    6.2409    0.8873   17.1714 C   0  0  0  0  0  0  0  0  0  0  0  0
    6.5819    0.6477   19.8083 C   0  0  0  0  0  0  0  0  0  0  0  0
   13.2219   -0.2911   23.1277 C   0  0  0  0  0  0  0  0  0  0  0  0
   12.2892   -1.1000   22.4370 C   0  0  0  0  0  0  0  0  0  0  0  0
    7.5267    0.1761   18.9238 C   0  0  0  0  0  0  0  0  0  0  0  0
   10.8056    1.7792   23.5586 C   0  0  0  0  0  0  0  0  0  0  0  0
    9.0181   -0.6403   20.7822 C   0  0  0  0  0  0  0  0  0  0  0  0
   13.1841    1.2158   23.0198 C   0  0  0  0  0  0  0  0  0  0  0  0
   11.3788    0.8926   21.3055 C   0  0  0  0  0  0  0  0  0  0  0  0
   11.8548    1.7349   22.4828 C   0  0  1  0  0  0  0  0  0  0  0  0
   10.3531   -1.3499   20.9004 C   0  0  0  0  0  0  0  0  0  0  0  0
    5.4494    1.2469   19.3903 N   0  0  0  0  0  0  0  0  0  0  0  0
    7.3733    0.2877   17.5894 N   0  0  0  0  0  0  0  0  0  0  0  0
   11.2878   -0.5258   21.6538 N   0  0  1  0  0  0  0  0  0  0  0  0
    9.8799    2.7815   23.3895 N   0  0  0  0  0  0  0  0  0  0  0  0
    8.6906   -0.4385   19.4440 N   0  0  0  0  0  0  0  0  0  0  0  0
   10.7864    0.9728   24.4854 O   0  0  0  0  0  0  0  0  0  0  0  0
    8.3573   -0.3223   21.7658 O   0  0  0  0  0  0  0  0  0  0  0  0
   15.1116   -2.6892   24.6563 H   0  0  0  0  0  0  0  0  0  0  0  0
   13.4744   -4.1426   23.4937 H   0  0  0  0  0  0  0  0  0  0  0  0
   14.9574   -0.2388   24.4260 H   0  0  0  0  0  0  0  0  0  0  0  0
   11.7209   -3.1791   22.1112 H   0  0  0  0  0  0  0  0  0  0  0  0
    4.3863    1.8399   17.7193 H   0  0  0  0  0  0  0  0  0  0  0  0
    6.1170    0.9772   16.0995 H   0  0  0  0  0  0  0  0  0  0  0  0
    6.6949    0.5637   20.8833 H   0  0  0  0  0  0  0  0  0  0  0  0
   13.3893    1.6607   24.0018 H   0  0  0  0  0  0  0  0  0  0  0  0
   13.9909    1.5205   22.3409 H   0  0  0  0  0  0  0  0  0  0  0  0
   10.3999    1.2611   20.9749 H   0  0  0  0  0  0  0  0  0  0  0  0
   12.0682    1.0079   20.4593 H   0  0  0  0  0  0  0  0  0  0  0  0
   11.9854    2.7714   22.1522 H   0  0  0  0  0  0  0  0  0  0  0  0
   10.7586   -1.5436   19.9023 H   0  0  0  0  0  0  0  0  0  0  0  0
   10.2040   -2.3056   21.4126 H   0  0  0  0  0  0  0  0  0  0  0  0
    9.9667    3.3940   22.5852 H   0  0  0  0  0  0  0  0  0  0  0  0
    9.1131    2.9334   24.0368 H   0  0  0  0  0  0  0  0  0  0  0  0
    9.3566   -0.7666   18.7478 H   0  0  0  0  0  0  0  0  0  0  0  0
  1  2  1  0  0  0  0
  1  3  2  0  0  0  0
  2  4  2  0  0  0  0
  3  8  1  0  0  0  0
  4  9  1  0  0  0  0
  5  6  2  0  0  0  0
  5 17  1  0  0  0  0
  6 18  1  0  0  0  0
  7 10  1  0  0  0  0
  7 17  2  0  0  0  0
  8  9  2  0  0  0  0
  8 13  1  0  0  0  0
  9 19  1  0  0  0  0
 10 18  2  0  0  0  0
 10 21  1  0  0  0  0
 11 15  1  0  0  0  0
 11 20  1  0  0  0  0
 11 22  2  0  0  0  0
 12 16  1  0  0  0  0
 12 21  1  0  0  0  0
 12 23  2  0  0  0  0
 13 15  1  0  0  0  0
 14 15  1  0  0  0  0
 14 19  1  0  0  0  0
 16 19  1  0  0  0  0
  1 24  1  0  0  0  0
  2 25  1  0  0  0  0
  3 26  1  0  0  0  0
  4 27  1  0  0  0  0
  5 28  1  0  0  0  0
  6 29  1  0  0  0  0
  7 30  1  0  0  0  0
 13 31  1  0  0  0  0
 13 32  1  0  0  0  0
 14 33  1  0  0  0  0
 14 34  1  0  0  0  0
 15 35  1  0  0  0  0
 16 36  1  0  0  0  0
 16 37  1  0  0  0  0
 20 38  1  0  0  0  0
 20 39  1  0  0  0  0
 21 40  1  0  0  0  0
M  END
> <Hybrid2>
-10.617538

> <fragments>
x0678

> <Mpro-x0678_dock>
-10.617538

> <Mpro-x0072_dock>
-9.346179

> <Mpro-x0107_dock>
-9.333097

> <Mpro-x1093_dock>
-7.941104

> <Mpro-x0830_dock>
-7.887774

> <Mpro-x1077_dock>
-7.842574

> <Mpro-x0195_dock>
-7.621412

> <Mpro-x0104_dock>
-7.50969

> <Mpro-x0820_dock>
-6.929784

> <Mpro-x0397_dock>
-6.782161

> <Mpro-x0749_dock>
-6.537468

> <Mpro-x0161_dock>
-6.322675

> <Mpro-x0692_dock>
-6.109282

> <Mpro-x0874_dock>
-6.097018

> <Mpro-x1385_dock>
-5.959498

> <Mpro-x0831_dock>
-5.910221

> <Mpro-x0734_dock>
-5.491235

> <Mpro-x1386_dock>
-5.412025

> <Mpro-x0967_dock>
-5.186968

> <Mpro-x0434_dock>
-5.142529

> <Mpro-x1334_dock>
-4.99545

> <Mpro-x1311_dock>
-4.980185

> <Mpro-x1348_dock>
-4.892545

> <Mpro-x1392_dock>
-4.853196

> <Mpro-x0770_dock>
-4.841323

> <Mpro-x1249_dock>
-4.771377

> <Mpro-x1493_dock>
-4.704695

> <Mpro-x0946_dock>
-4.635573

> <Mpro-x1374_dock>
-4.335379

> <Mpro-x0354_dock>
-4.320507

> <Mpro-x0387_dock>
-4.292189

> <Mpro-x1458_dock>
-4.21856

> <Mpro-x0774_dock>
-4.079972

> <Mpro-x1375_dock>
-4.037095

> <Mpro-x0759_dock>
-3.676455

> <Mpro-x0752_dock>
-3.665106

> <Mpro-x0395_dock>
-3.571624

> <Mpro-x1418_dock>
-3.501163

> <Mpro-x1412_dock>
-3.4712

> <Mpro-x0771_dock>
-3.414959

> <Mpro-x0769_dock>
-3.315581

> <Mpro-x0755_dock>
-3.177076

> <Mpro-x1187_dock>
-3.092699

> <Mpro-x1308_dock>
-3.030337

> <Mpro-x0786_dock>
-2.951383

> <Mpro-x1358_dock>
-2.833714

> <Mpro-x0705_dock>
-2.76933

> <Mpro-x1478_dock>
-2.606916

> <Mpro-x1380_dock>
-2.571443

> <Mpro-x0305_dock>
-2.552958

> <Mpro-x0689_dock>
-2.231038

> <Mpro-x1425_dock>
-2.004045

> <Mpro-x0981_dock>
-2.001436

> <Mpro-x1402_dock>
-1.812497

> <Mpro-x0708_dock>
-1.491001

> <Mpro-x0691_dock>
-1.420672

> <Mpro-x0736_dock>
-1.414389

> <Mpro-x0731_dock>
-1.39555

> <Mpro-x1382_dock>
-1.374814

> <Mpro-x0540_dock>
-1.154279

> <Mpro-x1384_dock>
-1.042402

> <Mpro-x1351_dock>
-0.91059

> <Mpro-x0978_dock>
-0.396141

> <Mpro-x0426_dock>
-0.016742

> <Mpro-x0887_dock>
1.104097

> <site>
active-noncovalent

$$$$
TRY-UNI-714-20
  -OEChem-04022003013D

 32 33  0     0  0  0  0  0  0999 V2000
   13.9948   -1.9481   23.9710 C   0  0  0  0  0  0  0  0  0  0  0  0
   11.7850    0.9899   24.5548 C   0  0  0  0  0  0  0  0  0  0  0  0
   12.9182    0.1774   24.5203 C   0  0  0  0  0  0  0  0  0  0  0  0
   10.5670    0.5088   24.0746 C   0  0  0  0  0  0  0  0  0  0  0  0
    5.6206    1.3917   18.8571 C   0  0  0  0  0  0  0  0  0  0  0  0
   11.6155   -1.5973   23.5252 C   0  0  0  0  0  0  0  0  0  0  0  0
    6.3186    1.0206   17.7191 C   0  0  0  0  0  0  0  0  0  0  0  0
    7.8915   -0.1183   18.9467 C   0  0  0  0  0  0  0  0  0  0  0  0
   12.8335   -1.1162   24.0055 C   0  0  0  0  0  0  0  0  0  0  0  0
   10.4822   -0.7848   23.5597 C   0  0  0  0  0  0  0  0  0  0  0  0
    6.1107    0.9693   20.0878 C   0  0  0  0  0  0  0  0  0  0  0  0
    7.2673    0.1996   20.1422 C   0  0  0  0  0  0  0  0  0  0  0  0
    8.9481   -1.0269   21.5620 C   0  0  0  0  0  0  0  0  0  0  0  0
    5.3784    1.3554   21.3309 C   0  0  0  0  0  0  0  0  0  0  0  0
    9.1798   -1.2989   23.0462 C   0  0  0  0  0  0  0  0  0  0  0  0
   14.9380   -2.6237   23.9430 N   0  0  0  0  0  0  0  0  0  0  0  0
    7.4454    0.2738   17.7323 N   0  0  0  0  0  0  0  0  0  0  0  0
    7.8053   -0.2547   21.3699 N   0  0  0  0  0  0  0  0  0  0  0  0
    9.7049   -1.4612   20.6995 O   0  0  0  0  0  0  0  0  0  0  0  0
   11.8508    1.9976   24.9546 H   0  0  0  0  0  0  0  0  0  0  0  0
   13.8606    0.5664   24.8988 H   0  0  0  0  0  0  0  0  0  0  0  0
    9.6894    1.1492   24.1063 H   0  0  0  0  0  0  0  0  0  0  0  0
    4.7213    1.9932   18.7803 H   0  0  0  0  0  0  0  0  0  0  0  0
   11.5434   -2.6051   23.1213 H   0  0  0  0  0  0  0  0  0  0  0  0
    5.9779    1.3247   16.7348 H   0  0  0  0  0  0  0  0  0  0  0  0
    8.7975   -0.7166   18.9239 H   0  0  0  0  0  0  0  0  0  0  0  0
    4.6257    0.5982   21.5790 H   0  0  0  0  0  0  0  0  0  0  0  0
    6.0653    1.4571   22.1801 H   0  0  0  0  0  0  0  0  0  0  0  0
    4.8749    2.3226   21.2100 H   0  0  0  0  0  0  0  0  0  0  0  0
    9.1066   -2.3870   23.2084 H   0  0  0  0  0  0  0  0  0  0  0  0
    8.3441   -0.8529   23.6101 H   0  0  0  0  0  0  0  0  0  0  0  0
    7.2978    0.0143   22.2103 H   0  0  0  0  0  0  0  0  0  0  0  0
  1  9  1  0  0  0  0
  1 16  3  0  0  0  0
  2  3  1  0  0  0  0
  2  4  2  0  0  0  0
  3  9  2  0  0  0  0
  4 10  1  0  0  0  0
  5  7  2  0  0  0  0
  5 11  1  0  0  0  0
  6  9  1  0  0  0  0
  6 10  2  0  0  0  0
  7 17  1  0  0  0  0
  8 12  1  0  0  0  0
  8 17  2  0  0  0  0
 10 15  1  0  0  0  0
 11 12  2  0  0  0  0
 11 14  1  0  0  0  0
 12 18  1  0  0  0  0
 13 15  1  0  0  0  0
 13 18  1  0  0  0  0
 13 19  2  0  0  0  0
  2 20  1  0  0  0  0
  3 21  1  0  0  0  0
  4 22  1  0  0  0  0
  5 23  1  0  0  0  0
  6 24  1  0  0  0  0
  7 25  1  0  0  0  0
  8 26  1  0  0  0  0
 14 27  1  0  0  0  0
 14 28  1  0  0  0  0
 14 29  1  0  0  0  0
 15 30  1  0  0  0  0
 15 31  1  0  0  0  0
 18 32  1  0  0  0  0
M  END
> <Hybrid2>
-10.601052

> <fragments>
x0678

> <Mpro-x0678_dock>
-10.601052

> <Mpro-x0107_dock>
-9.62482

> <Mpro-x0072_dock>
-8.263727

> <Mpro-x1077_dock>
-8.093008

> <Mpro-x1093_dock>
-8.025873

> <Mpro-x0397_dock>
-7.777974

> <Mpro-x0749_dock>
-7.651124

> <Mpro-x1385_dock>
-7.487854

> <Mpro-x0830_dock>
-7.386796

> <Mpro-x0195_dock>
-7.267849

> <Mpro-x0161_dock>
-7.199183

> <Mpro-x0946_dock>
-7.196764

> <Mpro-x0104_dock>
-6.878659

> <Mpro-x0831_dock>
-6.836585

> <Mpro-x0434_dock>
-6.645129

> <Mpro-x0692_dock>
-6.594841

> <Mpro-x1382_dock>
-6.150922

> <Mpro-x0395_dock>
-5.937305

> <Mpro-x1311_dock>
-5.932835

> <Mpro-x1334_dock>
-5.805998

> <Mpro-x0874_dock>
-5.689213

> <Mpro-x0770_dock>
-5.670959

> <Mpro-x0967_dock>
-5.658342

> <Mpro-x1375_dock>
-5.641277

> <Mpro-x1493_dock>
-5.560471

> <Mpro-x1392_dock>
-5.542678

> <Mpro-x1386_dock>
-5.467776

> <Mpro-x0305_dock>
-5.406009

> <Mpro-x1412_dock>
-5.287758

> <Mpro-x1348_dock>
-5.224202

> <Mpro-x0820_dock>
-5.056139

> <Mpro-x0708_dock>
-5.035513

> <Mpro-x1418_dock>
-4.990268

> <Mpro-x0759_dock>
-4.685576

> <Mpro-x1249_dock>
-4.680722

> <Mpro-x1478_dock>
-4.570427

> <Mpro-x1374_dock>
-4.561967

> <Mpro-x0734_dock>
-4.399834

> <Mpro-x0387_dock>
-4.346549

> <Mpro-x0752_dock>
-4.331021

> <Mpro-x0774_dock>
-3.846321

> <Mpro-x0771_dock>
-3.7794

> <Mpro-x1458_dock>
-3.695767

> <Mpro-x0354_dock>
-3.633824

> <Mpro-x1187_dock>
-3.589805

> <Mpro-x0736_dock>
-3.32815

> <Mpro-x1380_dock>
-3.233426

> <Mpro-x1425_dock>
-2.931399

> <Mpro-x0755_dock>
-2.857222

> <Mpro-x0769_dock>
-2.84101

> <Mpro-x0786_dock>
-2.818708

> <Mpro-x1308_dock>
-2.700376

> <Mpro-x0691_dock>
-2.665092

> <Mpro-x1358_dock>
-2.413722

> <Mpro-x0981_dock>
-2.172036

> <Mpro-x1384_dock>
-2.099517

> <Mpro-x0426_dock>
-2.07204

> <Mpro-x0978_dock>
-2.061458

> <Mpro-x0689_dock>
-2.02529

> <Mpro-x0705_dock>
-1.751686

> <Mpro-x0731_dock>
-1.678065

> <Mpro-x1351_dock>
-1.670659

> <Mpro-x0540_dock>
-1.651664

> <Mpro-x1402_dock>
-1.48634

> <Mpro-x0887_dock>
-0.98125

> <site>
active-noncovalent

$$$$
ALE-HEI-f28-5
  -OEChem-04022003013D

 26 27  0     0  0  0  0  0  0999 V2000
    5.5752    1.2562   18.9232 C   0  0  0  0  0  0  0  0  0  0  0  0
    6.1850    1.1022   20.1632 C   0  0  0  0  0  0  0  0  0  0  0  0
    6.3104    0.9325   17.7942 C   0  0  0  0  0  0  0  0  0  0  0  0
    8.1422    0.3397   19.0477 C   0  0  0  0  0  0  0  0  0  0  0  0
    7.4929    0.6358   20.2354 C   0  0  0  0  0  0  0  0  0  0  0  0
   13.2390   -1.3151   23.4231 C   0  0  0  0  0  0  0  0  0  0  0  0
   11.1486   -0.2236   23.4988 C   0  0  0  0  0  0  0  0  0  0  0  0
    9.5015    0.5812   21.7545 C   0  0  0  0  0  0  0  0  0  0  0  0
   14.4336   -2.1065   23.0655 C   0  0  0  0  0  0  0  0  0  0  0  0
    9.7715    0.3238   23.2286 C   0  0  0  0  0  0  0  0  0  0  0  0
    7.5827    0.4767   17.8246 N   0  0  0  0  0  0  0  0  0  0  0  0
   13.0823   -0.6384   24.5409 N   0  0  0  0  0  0  0  0  0  0  0  0
   11.8557    0.0009   24.5857 N   0  0  0  0  0  0  0  0  0  0  0  0
    8.1299    0.4716   21.4629 N   0  0  0  0  0  0  0  0  0  0  0  0
   10.3983    0.8452   20.9601 O   0  0  0  0  0  0  0  0  0  0  0  0
   11.9137   -1.2276   22.3378 S   0  0  0  0  0  0  0  0  0  0  0  0
    4.5565    1.6182   18.8430 H   0  0  0  0  0  0  0  0  0  0  0  0
    5.6325    1.3483   21.0661 H   0  0  0  0  0  0  0  0  0  0  0  0
    5.8803    1.0360   16.8035 H   0  0  0  0  0  0  0  0  0  0  0  0
    9.1639   -0.0282   19.0394 H   0  0  0  0  0  0  0  0  0  0  0  0
   14.3378   -3.1479   23.4130 H   0  0  0  0  0  0  0  0  0  0  0  0
   14.6022   -2.1302   21.9757 H   0  0  0  0  0  0  0  0  0  0  0  0
   15.3536   -1.6881   23.5078 H   0  0  0  0  0  0  0  0  0  0  0  0
    9.0160   -0.3764   23.6074 H   0  0  0  0  0  0  0  0  0  0  0  0
    9.6345    1.2617   23.7816 H   0  0  0  0  0  0  0  0  0  0  0  0
    7.5199    0.2409   22.2572 H   0  0  0  0  0  0  0  0  0  0  0  0
  1  2  2  0  0  0  0
  1  3  1  0  0  0  0
  2  5  1  0  0  0  0
  3 11  2  0  0  0  0
  4  5  2  0  0  0  0
  4 11  1  0  0  0  0
  5 14  1  0  0  0  0
  6  9  1  0  0  0  0
  6 12  2  0  0  0  0
  6 16  1  0  0  0  0
  7 10  1  0  0  0  0
  7 13  2  0  0  0  0
  7 16  1  0  0  0  0
  8 10  1  0  0  0  0
  8 14  1  0  0  0  0
  8 15  2  0  0  0  0
 12 13  1  0  0  0  0
  1 17  1  0  0  0  0
  2 18  1  0  0  0  0
  3 19  1  0  0  0  0
  4 20  1  0  0  0  0
  9 21  1  0  0  0  0
  9 22  1  0  0  0  0
  9 23  1  0  0  0  0
 10 24  1  0  0  0  0
 10 25  1  0  0  0  0
 14 26  1  0  0  0  0
M  END
> <Hybrid2>
-10.544547

> <fragments>
x0678

> <Mpro-x0678_dock>
-10.544547

> <Mpro-x0397_dock>
-8.298491

> <Mpro-x0749_dock>
-8.135196

> <Mpro-x0107_dock>
-8.053555

> <Mpro-x0770_dock>
-7.414865

> <Mpro-x0104_dock>
-7.263978

> <Mpro-x0195_dock>
-7.052387

> <Mpro-x0830_dock>
-6.839621

> <Mpro-x1093_dock>
-6.776641

> <Mpro-x0967_dock>
-6.748393

> <Mpro-x0072_dock>
-6.747073

> <Mpro-x0759_dock>
-6.716507

> <Mpro-x1418_dock>
-6.615345

> <Mpro-x1386_dock>
-6.494016

> <Mpro-x0708_dock>
-6.473014

> <Mpro-x0161_dock>
-6.383315

> <Mpro-x1385_dock>
-6.291598

> <Mpro-x0831_dock>
-6.225069

> <Mpro-x0946_dock>
-6.210755

> <Mpro-x1077_dock>
-6.040686

> <Mpro-x1334_dock>
-5.883085

> <Mpro-x1392_dock>
-5.48963

> <Mpro-x0692_dock>
-5.445343

> <Mpro-x0540_dock>
-5.398585

> <Mpro-x0434_dock>
-5.121516

> <Mpro-x1348_dock>
-5.117249

> <Mpro-x1458_dock>
-4.943401

> <Mpro-x1249_dock>
-4.856984

> <Mpro-x0305_dock>
-4.843023

> <Mpro-x0387_dock>
-4.555764

> <Mpro-x0426_dock>
-4.488533

> <Mpro-x0734_dock>
-4.487235

> <Mpro-x0395_dock>
-4.444781

> <Mpro-x1412_dock>
-4.359308

> <Mpro-x0874_dock>
-4.357673

> <Mpro-x1375_dock>
-4.298378

> <Mpro-x1311_dock>
-4.287956

> <Mpro-x1478_dock>
-4.176639

> <Mpro-x0736_dock>
-4.158096

> <Mpro-x1187_dock>
-3.843375

> <Mpro-x0774_dock>
-3.622088

> <Mpro-x0820_dock>
-3.382485

> <Mpro-x1380_dock>
-3.242912

> <Mpro-x1374_dock>
-3.178599

> <Mpro-x1384_dock>
-3.077882

> <Mpro-x1493_dock>
-2.991967

> <Mpro-x0354_dock>
-2.911698

> <Mpro-x1382_dock>
-2.891924

> <Mpro-x0705_dock>
-2.881643

> <Mpro-x1358_dock>
-2.849205

> <Mpro-x0978_dock>
-2.795973

> <Mpro-x0691_dock>
-2.52535

> <Mpro-x1308_dock>
-2.380173

> <Mpro-x0887_dock>
-2.256048

> <Mpro-x0771_dock>
-2.219467

> <Mpro-x0689_dock>
-2.161963

> <Mpro-x0755_dock>
-1.923273

> <Mpro-x0731_dock>
-1.906962

> <Mpro-x0981_dock>
-1.862369

> <Mpro-x0769_dock>
-1.837838

> <Mpro-x0752_dock>
-1.612225

> <Mpro-x1402_dock>
-1.58677

> <Mpro-x0786_dock>
-1.551739

> <Mpro-x1425_dock>
-1.465868

> <Mpro-x1351_dock>
-0.899589

> <site>
active-noncovalent

$$$$
ANN-UNI-263-5
  -OEChem-04022003013D

 29 30  0     0  0  0  0  0  0999 V2000
   14.3074   -2.0761   23.5153 C   0  0  0  0  0  0  0  0  0  0  0  0
   12.2920    0.9869   22.8732 C   0  0  0  0  0  0  0  0  0  0  0  0
    6.1148    1.0253   19.2759 C   0  0  0  0  0  0  0  0  0  0  0  0
   13.3866    0.1383   23.0389 C   0  0  0  0  0  0  0  0  0  0  0  0
   10.9964    0.4897   23.0140 C   0  0  0  0  0  0  0  0  0  0  0  0
    6.7994    0.5069   20.3694 C   0  0  0  0  0  0  0  0  0  0  0  0
   11.8899   -1.7048   23.4860 C   0  0  0  0  0  0  0  0  0  0  0  0
    6.6360    0.7906   18.0137 C   0  0  0  0  0  0  0  0  0  0  0  0
    8.4059   -0.3993   18.8680 C   0  0  0  0  0  0  0  0  0  0  0  0
   13.1855   -1.2076   23.3452 C   0  0  0  0  0  0  0  0  0  0  0  0
   10.7953   -0.8562   23.3203 C   0  0  0  0  0  0  0  0  0  0  0  0
    7.9677   -0.2202   20.1702 C   0  0  0  0  0  0  0  0  0  0  0  0
    8.3724   -0.6635   22.6166 C   0  0  0  0  0  0  0  0  0  0  0  0
    9.4100   -1.3877   23.4706 C   0  0  0  0  0  0  0  0  0  0  0  0
   15.2186   -2.7814   23.6535 N   0  0  0  0  0  0  0  0  0  0  0  0
    7.7679    0.0892   17.7807 N   0  0  0  0  0  0  0  0  0  0  0  0
    8.6865   -0.7600   21.2633 N   0  0  0  0  0  0  0  0  0  0  0  0
    7.4108   -0.0888   23.1168 O   0  0  0  0  0  0  0  0  0  0  0  0
   12.4482    2.0347   22.6336 H   0  0  0  0  0  0  0  0  0  0  0  0
    5.2021    1.5951   19.4075 H   0  0  0  0  0  0  0  0  0  0  0  0
   14.3905    0.5407   22.9265 H   0  0  0  0  0  0  0  0  0  0  0  0
   10.1500    1.1588   22.8836 H   0  0  0  0  0  0  0  0  0  0  0  0
    6.4140    0.6752   21.3716 H   0  0  0  0  0  0  0  0  0  0  0  0
   11.7267   -2.7540   23.7238 H   0  0  0  0  0  0  0  0  0  0  0  0
    6.1399    1.1744   17.1284 H   0  0  0  0  0  0  0  0  0  0  0  0
    9.3110   -0.9579   18.6487 H   0  0  0  0  0  0  0  0  0  0  0  0
    9.3797   -2.4581   23.2084 H   0  0  0  0  0  0  0  0  0  0  0  0
    9.0895   -1.3259   24.5237 H   0  0  0  0  0  0  0  0  0  0  0  0
    9.5314   -1.2792   21.0336 H   0  0  0  0  0  0  0  0  0  0  0  0
  1 10  1  0  0  0  0
  1 15  3  0  0  0  0
  2  4  2  0  0  0  0
  2  5  1  0  0  0  0
  3  6  2  0  0  0  0
  3  8  1  0  0  0  0
  4 10  1  0  0  0  0
  5 11  2  0  0  0  0
  6 12  1  0  0  0  0
  7 10  2  0  0  0  0
  7 11  1  0  0  0  0
  8 16  2  0  0  0  0
  9 12  2  0  0  0  0
  9 16  1  0  0  0  0
 11 14  1  0  0  0  0
 12 17  1  0  0  0  0
 13 14  1  0  0  0  0
 13 17  1  0  0  0  0
 13 18  2  0  0  0  0
  2 19  1  0  0  0  0
  3 20  1  0  0  0  0
  4 21  1  0  0  0  0
  5 22  1  0  0  0  0
  6 23  1  0  0  0  0
  7 24  1  0  0  0  0
  8 25  1  0  0  0  0
  9 26  1  0  0  0  0
 14 27  1  0  0  0  0
 14 28  1  0  0  0  0
 17 29  1  0  0  0  0
M  END
> <Hybrid2>
-10.529879

> <fragments>
x0678

> <Mpro-x0678_dock>
-10.529879

> <Mpro-x0107_dock>
-9.569336

> <Mpro-x0072_dock>
-8.433171

> <Mpro-x0104_dock>
-8.423388

> <Mpro-x0397_dock>
-8.306499

> <Mpro-x1093_dock>
-8.117079

> <Mpro-x0749_dock>
-7.882335

> <Mpro-x0195_dock>
-7.762074

> <Mpro-x0161_dock>
-7.570383

> <Mpro-x0831_dock>
-7.559464

> <Mpro-x1077_dock>
-7.545268

> <Mpro-x0830_dock>
-7.34421

> <Mpro-x0434_dock>
-6.889636

> <Mpro-x0708_dock>
-6.743717

> <Mpro-x0946_dock>
-6.735156

> <Mpro-x1375_dock>
-6.478044

> <Mpro-x1311_dock>
-6.404667

> <Mpro-x1385_dock>
-6.14729

> <Mpro-x1386_dock>
-6.035388

> <Mpro-x0759_dock>
-6.015637

> <Mpro-x0770_dock>
-5.978176

> <Mpro-x0692_dock>
-5.745024

> <Mpro-x1412_dock>
-5.6666

> <Mpro-x0395_dock>
-5.609649

> <Mpro-x1348_dock>
-5.609204

> <Mpro-x0967_dock>
-5.56153

> <Mpro-x1374_dock>
-5.452212

> <Mpro-x0874_dock>
-5.451412

> <Mpro-x0774_dock>
-5.250253

> <Mpro-x1392_dock>
-5.159427

> <Mpro-x1382_dock>
-5.139854

> <Mpro-x1493_dock>
-5.112408

> <Mpro-x1334_dock>
-4.960583

> <Mpro-x1418_dock>
-4.916102

> <Mpro-x0820_dock>
-4.875197

> <Mpro-x0387_dock>
-4.699362

> <Mpro-x1249_dock>
-4.536527

> <Mpro-x1478_dock>
-4.275014

> <Mpro-x1187_dock>
-4.182034

> <Mpro-x0354_dock>
-3.99022

> <Mpro-x0540_dock>
-3.778208

> <Mpro-x0734_dock>
-3.456124

> <Mpro-x0426_dock>
-3.35305

> <Mpro-x0771_dock>
-3.335872

> <Mpro-x0736_dock>
-3.161831

> <Mpro-x1458_dock>
-3.131742

> <Mpro-x0786_dock>
-3.116138

> <Mpro-x0305_dock>
-3.094506

> <Mpro-x0752_dock>
-3.086673

> <Mpro-x1380_dock>
-3.084229

> <Mpro-x0981_dock>
-2.548448

> <Mpro-x1308_dock>
-2.463505

> <Mpro-x1358_dock>
-2.432316

> <Mpro-x0691_dock>
-2.174641

> <Mpro-x0769_dock>
-2.007764

> <Mpro-x0887_dock>
-2.000173

> <Mpro-x0755_dock>
-1.909799

> <Mpro-x1425_dock>
-1.815221

> <Mpro-x0689_dock>
-1.714731

> <Mpro-x0705_dock>
-1.660127

> <Mpro-x1384_dock>
-1.658517

> <Mpro-x1351_dock>
-1.396401

> <Mpro-x1402_dock>
-1.38842

> <Mpro-x0978_dock>
-1.361982

> <Mpro-x0731_dock>
-1.345985

> <site>
active-noncovalent

$$$$
DAR-DIA-23a-20
  -OEChem-04022003013D

 34 36  0     0  0  0  0  0  0999 V2000
   14.5035   -1.6332   23.3349 C   0  0  0  0  0  0  0  0  0  0  0  0
    3.8281    1.7710   20.0987 C   0  0  0  0  0  0  0  0  0  0  0  0
    4.4980    1.8697   21.3160 C   0  0  0  0  0  0  0  0  0  0  0  0
   13.9424   -0.7470   24.2544 C   0  0  0  0  0  0  0  0  0  0  0  0
   13.8698   -1.8655   22.1141 C   0  0  0  0  0  0  0  0  0  0  0  0
    4.5140    1.3625   18.9552 C   0  0  0  0  0  0  0  0  0  0  0  0
    5.8570    1.5604   21.3952 C   0  0  0  0  0  0  0  0  0  0  0  0
   12.7476   -0.0933   23.9532 C   0  0  0  0  0  0  0  0  0  0  0  0
   12.6750   -1.2117   21.8130 C   0  0  0  0  0  0  0  0  0  0  0  0
    6.6167    0.6349   17.9106 C   0  0  0  0  0  0  0  0  0  0  0  0
    8.5522    0.4302   19.1300 C   0  0  0  0  0  0  0  0  0  0  0  0
    5.8816    1.0486   19.0233 C   0  0  0  0  0  0  0  0  0  0  0  0
    6.5634    1.1473   20.2537 C   0  0  0  0  0  0  0  0  0  0  0  0
    7.9259    0.8302   20.3006 C   0  0  0  0  0  0  0  0  0  0  0  0
   12.1139   -0.3256   22.7325 C   0  0  0  0  0  0  0  0  0  0  0  0
    9.8614   -0.1219   21.6237 C   0  0  0  0  0  0  0  0  0  0  0  0
    8.7333    0.9035   21.5541 C   0  0  0  0  0  0  0  0  0  0  0  0
    7.9325    0.3243   17.9353 N   0  0  0  0  0  0  0  0  0  0  0  0
   10.9017    0.3379   22.4271 N   0  0  0  0  0  0  0  0  0  0  0  0
    9.8011   -1.1918   21.0264 O   0  0  0  0  0  0  0  0  0  0  0  0
   15.4343   -2.1418   23.5687 H   0  0  0  0  0  0  0  0  0  0  0  0
    2.7707    2.0122   20.0400 H   0  0  0  0  0  0  0  0  0  0  0  0
    3.9621    2.1878   22.2056 H   0  0  0  0  0  0  0  0  0  0  0  0
   14.4359   -0.5653   25.2045 H   0  0  0  0  0  0  0  0  0  0  0  0
   14.3076   -2.5548   21.3979 H   0  0  0  0  0  0  0  0  0  0  0  0
    3.9750    1.2907   18.0133 H   0  0  0  0  0  0  0  0  0  0  0  0
    6.3460    1.6496   22.3624 H   0  0  0  0  0  0  0  0  0  0  0  0
   12.3197    0.5953   24.6776 H   0  0  0  0  0  0  0  0  0  0  0  0
   12.1901   -1.4006   20.8584 H   0  0  0  0  0  0  0  0  0  0  0  0
    6.1525    0.5380   16.9329 H   0  0  0  0  0  0  0  0  0  0  0  0
    9.6073    0.1735   19.1161 H   0  0  0  0  0  0  0  0  0  0  0  0
    9.1762    1.9065   21.6647 H   0  0  0  0  0  0  0  0  0  0  0  0
    8.0847    0.7602   22.4333 H   0  0  0  0  0  0  0  0  0  0  0  0
   10.7756    1.2583   22.8432 H   0  0  0  0  0  0  0  0  0  0  0  0
  1  4  1  0  0  0  0
  1  5  2  0  0  0  0
  2  3  1  0  0  0  0
  2  6  2  0  0  0  0
  3  7  2  0  0  0  0
  4  8  2  0  0  0  0
  5  9  1  0  0  0  0
  6 12  1  0  0  0  0
  7 13  1  0  0  0  0
  8 15  1  0  0  0  0
  9 15  2  0  0  0  0
 10 12  2  0  0  0  0
 10 18  1  0  0  0  0
 11 14  1  0  0  0  0
 11 18  2  0  0  0  0
 12 13  1  0  0  0  0
 13 14  2  0  0  0  0
 14 17  1  0  0  0  0
 15 19  1  0  0  0  0
 16 17  1  0  0  0  0
 16 19  1  0  0  0  0
 16 20  2  0  0  0  0
  1 21  1  0  0  0  0
  2 22  1  0  0  0  0
  3 23  1  0  0  0  0
  4 24  1  0  0  0  0
  5 25  1  0  0  0  0
  6 26  1  0  0  0  0
  7 27  1  0  0  0  0
  8 28  1  0  0  0  0
  9 29  1  0  0  0  0
 10 30  1  0  0  0  0
 11 31  1  0  0  0  0
 17 32  1  0  0  0  0
 17 33  1  0  0  0  0
 19 34  1  0  0  0  0
M  END
> <Hybrid2>
-10.520862

> <fragments>
x0678

> <Mpro-x0678_dock>
-10.520862

> <Mpro-x1093_dock>
-10.248977

> <Mpro-x0107_dock>
-9.667126

> <Mpro-x0831_dock>
-8.804881

> <Mpro-x0104_dock>
-8.492045

> <Mpro-x0397_dock>
-8.360036

> <Mpro-x0830_dock>
-8.2834

> <Mpro-x0072_dock>
-8.217334

> <Mpro-x0749_dock>
-8.108743

> <Mpro-x1392_dock>
-7.919842

> <Mpro-x0195_dock>
-7.562785

> <Mpro-x0161_dock>
-7.421543

> <Mpro-x0434_dock>
-6.906503

> <Mpro-x1077_dock>
-6.715394

> <Mpro-x0967_dock>
-6.571556

> <Mpro-x0946_dock>
-6.50466

> <Mpro-x0874_dock>
-6.464333

> <Mpro-x1348_dock>
-6.205255

> <Mpro-x1375_dock>
-6.057871

> <Mpro-x0708_dock>
-5.882099

> <Mpro-x1386_dock>
-5.780521

> <Mpro-x0395_dock>
-5.777831

> <Mpro-x0692_dock>
-5.676148

> <Mpro-x1249_dock>
-5.55803

> <Mpro-x1187_dock>
-5.514265

> <Mpro-x0820_dock>
-5.205498

> <Mpro-x0387_dock>
-5.177836

> <Mpro-x1374_dock>
-5.116545

> <Mpro-x0759_dock>
-5.051616

> <Mpro-x1418_dock>
-4.961079

> <Mpro-x1311_dock>
-4.913149

> <Mpro-x0734_dock>
-4.894262

> <Mpro-x1385_dock>
-4.700486

> <Mpro-x0736_dock>
-4.567449

> <Mpro-x1334_dock>
-4.560446

> <Mpro-x0305_dock>
-4.540587

> <Mpro-x1380_dock>
-4.498479

> <Mpro-x0540_dock>
-4.416541

> <Mpro-x0752_dock>
-4.349966

> <Mpro-x1308_dock>
-4.175143

> <Mpro-x1493_dock>
-4.153969

> <Mpro-x0770_dock>
-4.129262

> <Mpro-x1478_dock>
-4.091902

> <Mpro-x0354_dock>
-4.085727

> <Mpro-x1412_dock>
-3.753476

> <Mpro-x1384_dock>
-3.737564

> <Mpro-x0771_dock>
-3.735404

> <Mpro-x1382_dock>
-3.705372

> <Mpro-x0731_dock>
-3.675259

> <Mpro-x0774_dock>
-3.659212

> <Mpro-x0426_dock>
-3.226204

> <Mpro-x1358_dock>
-3.073024

> <Mpro-x0691_dock>
-3.051689

> <Mpro-x1402_dock>
-2.921947

> <Mpro-x1458_dock>
-2.807685

> <Mpro-x0769_dock>
-2.596027

> <Mpro-x0755_dock>
-2.40767

> <Mpro-x0786_dock>
-2.254462

> <Mpro-x0705_dock>
-2.097528

> <Mpro-x1351_dock>
-1.896356

> <Mpro-x0978_dock>
-1.712773

> <Mpro-x0689_dock>
-1.547421

> <Mpro-x1425_dock>
-1.36115

> <Mpro-x0981_dock>
-0.571644

> <Mpro-x0887_dock>
0.681776

> <site>
active-noncovalent

$$$$
BAR-COM-4e0-14
  -OEChem-04022003013D

 36 38  0     0  0  0  0  0  0999 V2000
    7.0459   -2.4555   26.2241 C   0  0  0  0  0  0  0  0  0  0  0  0
   13.5985   -0.7267   24.0253 C   0  0  0  0  0  0  0  0  0  0  0  0
   13.4228   -0.1972   22.7469 C   0  0  0  0  0  0  0  0  0  0  0  0
   12.4902   -0.9809   24.8333 C   0  0  0  0  0  0  0  0  0  0  0  0
   12.1389    0.0782   22.2764 C   0  0  0  0  0  0  0  0  0  0  0  0
    6.1457    0.6516   19.2515 C   0  0  0  0  0  0  0  0  0  0  0  0
    6.3386    0.3836   17.8830 C   0  0  0  0  0  0  0  0  0  0  0  0
    8.8922   -0.8280   26.8802 C   0  0  0  0  0  0  0  0  0  0  0  0
    8.2617   -1.7482   26.0215 C   0  0  0  0  0  0  0  0  0  0  0  0
   11.2063   -0.7056   24.3628 C   0  0  0  0  0  0  0  0  0  0  0  0
   11.0306   -0.1760   23.0844 C   0  0  0  0  0  0  0  0  0  0  0  0
    7.4072    0.6012   19.7923 C   0  0  0  0  0  0  0  0  0  0  0  0
    9.0876   -1.8172   24.9262 C   0  0  0  0  0  0  0  0  0  0  0  0
    9.4135    0.6399   21.3339 C   0  0  0  0  0  0  0  0  0  0  0  0
    7.9066    0.7935   21.2003 C   0  0  0  0  0  0  0  0  0  0  0  0
    6.0530   -3.0331   26.3896 N   0  0  0  0  0  0  0  0  0  0  0  0
    7.6216    0.1783   17.5736 N   0  0  0  0  0  0  0  0  0  0  0  0
   10.0308   -0.3470   26.3742 N   0  0  0  0  0  0  0  0  0  0  0  0
    8.2464    0.3174   18.7553 N   0  0  0  0  0  0  0  0  0  0  0  0
   10.1224   -0.9675   25.1856 N   0  0  0  0  0  0  0  0  0  0  0  0
    9.0134   -2.5264   23.7778 N   0  0  0  0  0  0  0  0  0  0  0  0
    9.7551    0.1097   22.5869 N   0  0  0  0  0  0  0  0  0  0  0  0
   10.1868    0.9549   20.4350 O   0  0  0  0  0  0  0  0  0  0  0  0
   14.5983   -0.9410   24.3914 H   0  0  0  0  0  0  0  0  0  0  0  0
   14.2859    0.0007   22.1179 H   0  0  0  0  0  0  0  0  0  0  0  0
   12.6432   -1.3939   25.8275 H   0  0  0  0  0  0  0  0  0  0  0  0
   12.0153    0.4908   21.2782 H   0  0  0  0  0  0  0  0  0  0  0  0
    5.2200    0.8513   19.7712 H   0  0  0  0  0  0  0  0  0  0  0  0
    5.5976    0.3289   17.0984 H   0  0  0  0  0  0  0  0  0  0  0  0
    8.5731   -0.4848   27.8545 H   0  0  0  0  0  0  0  0  0  0  0  0
    7.6217    1.7908   21.5591 H   0  0  0  0  0  0  0  0  0  0  0  0
    7.4178    0.0700   21.8651 H   0  0  0  0  0  0  0  0  0  0  0  0
    9.2524    0.2055   18.7805 H   0  0  0  0  0  0  0  0  0  0  0  0
    8.2577   -3.2034   23.6014 H   0  0  0  0  0  0  0  0  0  0  0  0
    9.7577   -2.4939   23.0667 H   0  0  0  0  0  0  0  0  0  0  0  0
    8.9721   -0.0937   23.2166 H   0  0  0  0  0  0  0  0  0  0  0  0
  1  9  1  0  0  0  0
  1 16  3  0  0  0  0
  2  3  1  0  0  0  0
  2  4  2  0  0  0  0
  3  5  2  0  0  0  0
  4 10  1  0  0  0  0
  5 11  1  0  0  0  0
  6  7  1  0  0  0  0
  6 12  2  0  0  0  0
  7 17  2  0  0  0  0
  8  9  1  0  0  0  0
  8 18  2  0  0  0  0
  9 13  2  0  0  0  0
 10 11  2  0  0  0  0
 10 20  1  0  0  0  0
 11 22  1  0  0  0  0
 12 15  1  0  0  0  0
 12 19  1  0  0  0  0
 13 20  1  0  0  0  0
 13 21  1  0  0  0  0
 14 15  1  0  0  0  0
 14 22  1  0  0  0  0
 14 23  2  0  0  0  0
 17 19  1  0  0  0  0
 18 20  1  0  0  0  0
  2 24  1  0  0  0  0
  3 25  1  0  0  0  0
  4 26  1  0  0  0  0
  5 27  1  0  0  0  0
  6 28  1  0  0  0  0
  7 29  1  0  0  0  0
  8 30  1  0  0  0  0
 15 31  1  0  0  0  0
 15 32  1  0  0  0  0
 19 33  1  0  0  0  0
 21 34  1  0  0  0  0
 21 35  1  0  0  0  0
 22 36  1  0  0  0  0
M  END
> <Hybrid2>
-10.520853

> <fragments>
x0678

> <Mpro-x0678_dock>
-10.520853

> <Mpro-x0107_dock>
-9.971218

> <Mpro-x0397_dock>
-8.835054

> <Mpro-x0195_dock>
-8.335742

> <Mpro-x0434_dock>
-7.956631

> <Mpro-x1392_dock>
-7.93022

> <Mpro-x1385_dock>
-7.848631

> <Mpro-x1386_dock>
-7.813704

> <Mpro-x1418_dock>
-7.558241

> <Mpro-x0104_dock>
-7.526433

> <Mpro-x0831_dock>
-7.332432

> <Mpro-x1093_dock>
-7.197689

> <Mpro-x0946_dock>
-7.143668

> <Mpro-x0759_dock>
-6.945036

> <Mpro-x0874_dock>
-6.673025

> <Mpro-x0692_dock>
-6.602908

> <Mpro-x1334_dock>
-6.465714

> <Mpro-x0161_dock>
-6.333537

> <Mpro-x0749_dock>
-6.240169

> <Mpro-x1077_dock>
-6.208476

> <Mpro-x0770_dock>
-5.996623

> <Mpro-x0830_dock>
-5.872036

> <Mpro-x0072_dock>
-5.76961

> <Mpro-x0774_dock>
-5.706074

> <Mpro-x1348_dock>
-5.554057

> <Mpro-x0305_dock>
-5.406671

> <Mpro-x1412_dock>
-5.300926

> <Mpro-x1249_dock>
-5.273861

> <Mpro-x0736_dock>
-5.233283

> <Mpro-x0967_dock>
-5.197235

> <Mpro-x1493_dock>
-5.103491

> <Mpro-x1374_dock>
-5.068532

> <Mpro-x0395_dock>
-4.893809

> <Mpro-x1458_dock>
-4.828895

> <Mpro-x1311_dock>
-4.736176

> <Mpro-x0387_dock>
-4.376538

> <Mpro-x1358_dock>
-4.242805

> <Mpro-x1187_dock>
-4.165843

> <Mpro-x1478_dock>
-3.817339

> <Mpro-x0708_dock>
-3.752249

> <Mpro-x1375_dock>
-3.731033

> <Mpro-x0820_dock>
-3.671826

> <Mpro-x0734_dock>
-3.423242

> <Mpro-x1308_dock>
-3.400419

> <Mpro-x0354_dock>
-3.167781

> <Mpro-x1351_dock>
-2.935676

> <Mpro-x0752_dock>
-2.59824

> <Mpro-x0691_dock>
-2.371346

> <Mpro-x1382_dock>
-2.256377

> <Mpro-x1425_dock>
-2.050242

> <Mpro-x1380_dock>
-2.005149

> <Mpro-x0769_dock>
-1.998733

> <Mpro-x0755_dock>
-1.799394

> <Mpro-x0731_dock>
-1.649733

> <Mpro-x0426_dock>
-1.433344

> <Mpro-x1384_dock>
-1.276814

> <Mpro-x0540_dock>
-1.121464

> <Mpro-x0771_dock>
-1.090839

> <Mpro-x1402_dock>
-0.940168

> <Mpro-x0705_dock>
-0.912749

> <Mpro-x0689_dock>
-0.795734

> <Mpro-x0786_dock>
-0.325941

> <Mpro-x0887_dock>
-0.210963

> <Mpro-x0978_dock>
0.16444

> <Mpro-x0981_dock>
0.261939

> <site>
active-noncovalent

$$$$
BAR-COM-4e0-6
  -OEChem-04022003013D

 47 50  0     1  0  0  0  0  0999 V2000
   10.6972    5.7091   22.9328 C   0  0  0  0  0  0  0  0  0  0  0  0
   11.2420    4.6675   22.1821 C   0  0  0  0  0  0  0  0  0  0  0  0
    9.8366    5.4281   23.9940 C   0  0  0  0  0  0  0  0  0  0  0  0
   13.9017   -2.5122   22.8584 C   0  0  0  0  0  0  0  0  0  0  0  0
   14.6219   -1.8044   23.8235 C   0  0  0  0  0  0  0  0  0  0  0  0
   10.9263    3.3447   22.4925 C   0  0  0  0  0  0  0  0  0  0  0  0
    9.5208    4.1054   24.3044 C   0  0  0  0  0  0  0  0  0  0  0  0
   12.6154   -2.1088   22.4784 C   0  0  0  0  0  0  0  0  0  0  0  0
   14.0855   -0.6706   24.4428 C   0  0  0  0  0  0  0  0  0  0  0  0
    8.1052    0.1462   18.8335 C   0  0  0  0  0  0  0  0  0  0  0  0
   10.0657    3.0637   23.5537 C   0  0  0  0  0  0  0  0  0  0  0  0
   12.0610   -0.9720   23.0905 C   0  0  0  0  0  0  0  0  0  0  0  0
   12.8032   -0.2874   24.0487 C   0  0  0  0  0  0  0  0  0  0  0  0
    7.1494    0.5208   19.7441 C   0  0  0  0  0  0  0  0  0  0  0  0
   10.8269    0.6520   23.7222 C   0  0  0  0  0  0  0  0  0  0  0  0
    8.5432    1.1234   21.7619 C   0  0  0  0  0  0  0  0  0  0  0  0
   12.3093    1.7544   25.4209 C   0  0  0  0  0  0  0  0  0  0  0  0
    4.7264    1.1312   19.4060 C   0  0  0  0  0  0  0  0  0  0  0  0
    7.1843    0.6993   21.2388 C   0  0  0  0  0  0  0  0  0  0  0  0
    9.7189    1.6140   23.8943 C   0  0  2  0  0  0  0  0  0  0  0  0
    7.5638    0.1333   17.5781 N   0  0  0  0  0  0  0  0  0  0  0  0
   10.8364   -0.3738   22.9009 N   0  0  0  0  0  0  0  0  0  0  0  0
    6.2888    0.4927   17.6797 N   0  0  0  0  0  0  0  0  0  0  0  0
   11.9894    0.7465   24.4355 N   0  0  0  0  0  0  0  0  0  0  0  0
    6.0424    0.7247   18.9791 N   0  0  0  0  0  0  0  0  0  0  0  0
    8.5161    1.2201   23.1268 N   0  0  0  0  0  0  0  0  0  0  0  0
    9.5118    1.3380   21.0375 O   0  0  0  0  0  0  0  0  0  0  0  0
   10.9442    6.7390   22.6919 H   0  0  0  0  0  0  0  0  0  0  0  0
   11.9130    4.8860   21.3565 H   0  0  0  0  0  0  0  0  0  0  0  0
    9.4131    6.2388   24.5794 H   0  0  0  0  0  0  0  0  0  0  0  0
   14.3458   -3.3887   22.3939 H   0  0  0  0  0  0  0  0  0  0  0  0
   15.6184   -2.1407   24.0994 H   0  0  0  0  0  0  0  0  0  0  0  0
   11.3554    2.5395   21.9019 H   0  0  0  0  0  0  0  0  0  0  0  0
    8.8493    3.8959   25.1329 H   0  0  0  0  0  0  0  0  0  0  0  0
   12.0646   -2.6653   21.7270 H   0  0  0  0  0  0  0  0  0  0  0  0
   14.6456   -0.1213   25.1912 H   0  0  0  0  0  0  0  0  0  0  0  0
    9.1381   -0.1129   19.0118 H   0  0  0  0  0  0  0  0  0  0  0  0
   12.7914    2.5892   24.9054 H   0  0  0  0  0  0  0  0  0  0  0  0
   11.3910    2.0876   25.9123 H   0  0  0  0  0  0  0  0  0  0  0  0
   12.9815    1.3268   26.1701 H   0  0  0  0  0  0  0  0  0  0  0  0
    4.6869    2.2234   19.3834 H   0  0  0  0  0  0  0  0  0  0  0  0
    3.9776    0.7074   18.7311 H   0  0  0  0  0  0  0  0  0  0  0  0
    4.5451    0.7618   20.4193 H   0  0  0  0  0  0  0  0  0  0  0  0
    6.4408    1.4495   21.5369 H   0  0  0  0  0  0  0  0  0  0  0  0
    6.8965   -0.2383   21.7309 H   0  0  0  0  0  0  0  0  0  0  0  0
    9.3617    1.5947   24.9449 H   0  0  0  0  0  0  0  0  0  0  0  0
    7.6671    1.0208   23.6150 H   0  0  0  0  0  0  0  0  0  0  0  0
  1  2  1  0  0  0  0
  1  3  2  0  0  0  0
  2  6  2  0  0  0  0
  3  7  1  0  0  0  0
  4  5  1  0  0  0  0
  4  8  2  0  0  0  0
  5  9  2  0  0  0  0
  6 11  1  0  0  0  0
  7 11  2  0  0  0  0
  8 12  1  0  0  0  0
  9 13  1  0  0  0  0
 10 14  2  0  0  0  0
 10 21  1  0  0  0  0
 11 20  1  0  0  0  0
 12 13  2  0  0  0  0
 12 22  1  0  0  0  0
 13 24  1  0  0  0  0
 14 19  1  0  0  0  0
 14 25  1  0  0  0  0
 15 20  1  0  0  0  0
 15 22  2  0  0  0  0
 15 24  1  0  0  0  0
 16 19  1  0  0  0  0
 16 26  1  0  0  0  0
 16 27  2  0  0  0  0
 17 24  1  0  0  0  0
 18 25  1  0  0  0  0
 20 26  1  0  0  0  0
 21 23  2  0  0  0  0
 23 25  1  0  0  0  0
  1 28  1  0  0  0  0
  2 29  1  0  0  0  0
  3 30  1  0  0  0  0
  4 31  1  0  0  0  0
  5 32  1  0  0  0  0
  6 33  1  0  0  0  0
  7 34  1  0  0  0  0
  8 35  1  0  0  0  0
  9 36  1  0  0  0  0
 10 37  1  0  0  0  0
 17 38  1  0  0  0  0
 17 39  1  0  0  0  0
 17 40  1  0  0  0  0
 18 41  1  0  0  0  0
 18 42  1  0  0  0  0
 18 43  1  0  0  0  0
 19 44  1  0  0  0  0
 19 45  1  0  0  0  0
 20 46  1  0  0  0  0
 26 47  1  0  0  0  0
M  END
> <Hybrid2>
-10.500115

> <fragments>
x0678

> <Mpro-x0678_dock>
-10.500115

> <Mpro-x0195_dock>
-7.601815

> <Mpro-x1418_dock>
-7.145319

> <Mpro-x0107_dock>
-7.002666

> <Mpro-x0770_dock>
-6.911748

> <Mpro-x0831_dock>
-6.551768

> <Mpro-x1093_dock>
-6.393104

> <Mpro-x1386_dock>
-5.95339

> <Mpro-x0387_dock>
-5.946247

> <Mpro-x1392_dock>
-5.866765

> <Mpro-x0830_dock>
-5.784884

> <Mpro-x0749_dock>
-5.706995

> <Mpro-x0072_dock>
-5.625816

> <Mpro-x0434_dock>
-5.587635

> <Mpro-x0946_dock>
-5.428238

> <Mpro-x0161_dock>
-5.262395

> <Mpro-x0967_dock>
-4.901064

> <Mpro-x0692_dock>
-4.895427

> <Mpro-x1077_dock>
-4.635869

> <Mpro-x0874_dock>
-4.543935

> <Mpro-x0104_dock>
-4.359765

> <Mpro-x0759_dock>
-3.952935

> <Mpro-x1249_dock>
-3.730739

> <Mpro-x1380_dock>
-3.713326

> <Mpro-x0736_dock>
-3.689059

> <Mpro-x1374_dock>
-3.662771

> <Mpro-x1334_dock>
-3.467753

> <Mpro-x0305_dock>
-3.385107

> <Mpro-x1375_dock>
-3.323445

> <Mpro-x0708_dock>
-3.01375

> <Mpro-x0354_dock>
-2.78118

> <Mpro-x1187_dock>
-2.633495

> <Mpro-x0397_dock>
-2.341718

> <Mpro-x1358_dock>
-2.291506

> <Mpro-x1385_dock>
-2.245275

> <Mpro-x0395_dock>
-2.087081

> <Mpro-x1412_dock>
-1.964987

> <Mpro-x0774_dock>
-1.64427

> <Mpro-x1348_dock>
-1.584935

> <Mpro-x1382_dock>
-1.450949

> <Mpro-x1351_dock>
-1.215119

> <Mpro-x1425_dock>
-1.161511

> <Mpro-x0426_dock>
-1.161014

> <Mpro-x0540_dock>
-1.009631

> <Mpro-x1311_dock>
-0.937783

> <Mpro-x0734_dock>
-0.460225

> <Mpro-x1458_dock>
-0.243199

> <Mpro-x0820_dock>
0.183676

> <Mpro-x0731_dock>
0.474142

> <Mpro-x1402_dock>
0.475146

> <Mpro-x1478_dock>
0.571813

> <Mpro-x0691_dock>
0.595149

> <Mpro-x0769_dock>
0.714002

> <Mpro-x0755_dock>
0.764852

> <Mpro-x1308_dock>
0.78692

> <Mpro-x0887_dock>
0.810256

> <Mpro-x0689_dock>
0.939907

> <Mpro-x0771_dock>
1.123226

> <Mpro-x1384_dock>
1.578441

> <Mpro-x0786_dock>
1.678053

> <Mpro-x0752_dock>
1.967656

> <Mpro-x0705_dock>
2.119813

> <Mpro-x1493_dock>
2.30917

> <Mpro-x0981_dock>
2.718542

> <Mpro-x0978_dock>
3.425256

> <site>
active-noncovalent

$$$$
ALE-HEI-f28-1
  -OEChem-04022003013D

 30 31  0     0  0  0  0  0  0999 V2000
   14.2238   -0.9928   23.9289 C   0  0  0  0  0  0  0  0  0  0  0  0
   13.2682   -0.4429   24.7832 C   0  0  0  0  0  0  0  0  0  0  0  0
   13.9351   -1.1595   22.5745 C   0  0  0  0  0  0  0  0  0  0  0  0
   12.0237   -0.0598   24.2832 C   0  0  0  0  0  0  0  0  0  0  0  0
   12.6905   -0.7765   22.0744 C   0  0  0  0  0  0  0  0  0  0  0  0
    5.7813    1.2555   18.8360 C   0  0  0  0  0  0  0  0  0  0  0  0
    6.3228    0.7972   17.6459 C   0  0  0  0  0  0  0  0  0  0  0  0
    8.3046    0.2321   18.6615 C   0  0  0  0  0  0  0  0  0  0  0  0
    6.5689    1.1841   19.9796 C   0  0  0  0  0  0  0  0  0  0  0  0
   11.7348   -0.2266   22.9288 C   0  0  0  0  0  0  0  0  0  0  0  0
    7.8559    0.6641   19.8992 C   0  0  0  0  0  0  0  0  0  0  0  0
   10.0066    0.0714   21.1003 C   0  0  0  0  0  0  0  0  0  0  0  0
    6.0104    1.6717   21.2761 C   0  0  0  0  0  0  0  0  0  0  0  0
    7.5686    0.2855   17.5287 N   0  0  0  0  0  0  0  0  0  0  0  0
   10.4900    0.1568   22.4288 N   0  0  0  0  0  0  0  0  0  0  0  0
    8.6957    0.5701   21.0340 N   0  0  0  0  0  0  0  0  0  0  0  0
   10.6450   -0.3740   20.1520 O   0  0  0  0  0  0  0  0  0  0  0  0
   15.1933   -1.2905   24.3178 H   0  0  0  0  0  0  0  0  0  0  0  0
   13.4930   -0.3121   25.8376 H   0  0  0  0  0  0  0  0  0  0  0  0
   14.6798   -1.5869   21.9093 H   0  0  0  0  0  0  0  0  0  0  0  0
   11.2867    0.3678   24.9585 H   0  0  0  0  0  0  0  0  0  0  0  0
   12.4767   -0.9111   21.0170 H   0  0  0  0  0  0  0  0  0  0  0  0
    4.7736    1.6559   18.8648 H   0  0  0  0  0  0  0  0  0  0  0  0
    5.7494    0.8311   16.7253 H   0  0  0  0  0  0  0  0  0  0  0  0
    9.2997   -0.1839   18.5348 H   0  0  0  0  0  0  0  0  0  0  0  0
    5.5003    0.8556   21.8008 H   0  0  0  0  0  0  0  0  0  0  0  0
    6.8021    2.0643   21.9261 H   0  0  0  0  0  0  0  0  0  0  0  0
    5.2940    2.4872   21.1173 H   0  0  0  0  0  0  0  0  0  0  0  0
    9.8384    0.5530   23.1143 H   0  0  0  0  0  0  0  0  0  0  0  0
    8.2947    0.9076   21.9055 H   0  0  0  0  0  0  0  0  0  0  0  0
  1  2  1  0  0  0  0
  1  3  2  0  0  0  0
  2  4  2  0  0  0  0
  3  5  1  0  0  0  0
  4 10  1  0  0  0  0
  5 10  2  0  0  0  0
  6  7  2  0  0  0  0
  6  9  1  0  0  0  0
  7 14  1  0  0  0  0
  8 11  1  0  0  0  0
  8 14  2  0  0  0  0
  9 11  2  0  0  0  0
  9 13  1  0  0  0  0
 10 15  1  0  0  0  0
 11 16  1  0  0  0  0
 12 15  1  0  0  0  0
 12 16  1  0  0  0  0
 12 17  2  0  0  0  0
  1 18  1  0  0  0  0
  2 19  1  0  0  0  0
  3 20  1  0  0  0  0
  4 21  1  0  0  0  0
  5 22  1  0  0  0  0
  6 23  1  0  0  0  0
  7 24  1  0  0  0  0
  8 25  1  0  0  0  0
 13 26  1  0  0  0  0
 13 27  1  0  0  0  0
 13 28  1  0  0  0  0
 15 29  1  0  0  0  0
 16 30  1  0  0  0  0
M  END
> <Hybrid2>
-10.495522

> <fragments>
x0678

> <Mpro-x0678_dock>
-10.495522

> <Mpro-x0107_dock>
-9.373429

> <Mpro-x0195_dock>
-7.880612

> <Mpro-x1093_dock>
-7.383397

> <Mpro-x0749_dock>
-7.284367

> <Mpro-x0161_dock>
-6.739873

> <Mpro-x0967_dock>
-6.703766

> <Mpro-x0104_dock>
-6.360288

> <Mpro-x0397_dock>
-6.167268

> <Mpro-x0305_dock>
-6.030975

> <Mpro-x0946_dock>
-5.853413

> <Mpro-x1418_dock>
-5.823652

> <Mpro-x0770_dock>
-5.817967

> <Mpro-x0072_dock>
-5.764309

> <Mpro-x1392_dock>
-5.411153

> <Mpro-x0759_dock>
-5.383743

> <Mpro-x1311_dock>
-5.274778

> <Mpro-x0354_dock>
-4.773233

> <Mpro-x1348_dock>
-4.770787

> <Mpro-x0387_dock>
-4.758735

> <Mpro-x0434_dock>
-4.738038

> <Mpro-x0874_dock>
-4.591927

> <Mpro-x1334_dock>
-4.588807

> <Mpro-x0830_dock>
-4.527791

> <Mpro-x0708_dock>
-4.521681

> <Mpro-x1375_dock>
-4.46208

> <Mpro-x1077_dock>
-4.434925

> <Mpro-x0395_dock>
-4.235008

> <Mpro-x1385_dock>
-4.229107

> <Mpro-x1412_dock>
-4.134764

> <Mpro-x0981_dock>
-3.928053

> <Mpro-x0692_dock>
-3.758828

> <Mpro-x0734_dock>
-3.665686

> <Mpro-x1187_dock>
-3.626625

> <Mpro-x1386_dock>
-3.344229

> <Mpro-x1374_dock>
-3.208307

> <Mpro-x0774_dock>
-2.862734

> <Mpro-x0786_dock>
-2.727216

> <Mpro-x1478_dock>
-2.661184

> <Mpro-x0831_dock>
-2.487415

> <Mpro-x1249_dock>
-2.218673

> <Mpro-x0736_dock>
-2.100713

> <Mpro-x1382_dock>
-2.098313

> <Mpro-x1425_dock>
-2.049186

> <Mpro-x1358_dock>
-2.038559

> <Mpro-x1493_dock>
-1.808463

> <Mpro-x1351_dock>
-1.740235

> <Mpro-x0887_dock>
-1.724619

> <Mpro-x0820_dock>
-1.659297

> <Mpro-x0540_dock>
-1.642568

> <Mpro-x1458_dock>
-1.473094

> <Mpro-x0771_dock>
-1.395491

> <Mpro-x1402_dock>
-1.231

> <Mpro-x1380_dock>
-1.223199

> <Mpro-x0426_dock>
-1.160428

> <Mpro-x0691_dock>
-1.002887

> <Mpro-x0731_dock>
-0.876192

> <Mpro-x0769_dock>
-0.860376

> <Mpro-x0705_dock>
-0.703956

> <Mpro-x1308_dock>
-0.65985

> <Mpro-x0978_dock>
-0.630467

> <Mpro-x1384_dock>
-0.625999

> <Mpro-x0755_dock>
-0.533521

> <Mpro-x0689_dock>
-0.35719

> <Mpro-x0752_dock>
0.864149

> <site>
active-noncovalent

$$$$
GAB-REV-70c-20
  -OEChem-04022003013D

 36 37  0     0  0  0  0  0  0999 V2000
    9.3048   -1.5087   24.8874 C   0  0  0  0  0  0  0  0  0  0  0  0
    8.6549   -2.6702   22.8711 C   0  0  0  0  0  0  0  0  0  0  0  0
    8.6438   -2.4688   25.6535 C   0  0  0  0  0  0  0  0  0  0  0  0
    7.9940   -3.6303   23.6372 C   0  0  0  0  0  0  0  0  0  0  0  0
    5.0326    1.0821   19.5384 C   0  0  0  0  0  0  0  0  0  0  0  0
    5.5367    0.9436   18.2553 C   0  0  0  0  0  0  0  0  0  0  0  0
    7.5883    0.2680   19.0379 C   0  0  0  0  0  0  0  0  0  0  0  0
    9.3103   -1.6093   23.4962 C   0  0  0  0  0  0  0  0  0  0  0  0
    5.8766    0.7905   20.6042 C   0  0  0  0  0  0  0  0  0  0  0  0
    7.1805    0.3751   20.3577 C   0  0  0  0  0  0  0  0  0  0  0  0
    7.9885   -3.5296   25.0284 C   0  0  0  0  0  0  0  0  0  0  0  0
    9.3991   -0.3579   21.2986 C   0  0  0  0  0  0  0  0  0  0  0  0
    5.3595    0.9319   21.9982 C   0  0  0  0  0  0  0  0  0  0  0  0
   10.0162   -0.5825   22.6767 C   0  0  0  0  0  0  0  0  0  0  0  0
    6.7973    0.5426   17.9765 N   0  0  0  0  0  0  0  0  0  0  0  0
    8.4162   -5.8673   26.2355 N   0  0  0  0  0  0  0  0  0  0  0  0
    8.0773    0.0664   21.4081 N   0  0  0  0  0  0  0  0  0  0  0  0
   10.0359   -0.5459   20.2670 O   0  0  0  0  0  0  0  0  0  0  0  0
    6.8090   -4.1362   27.2677 O   0  0  0  0  0  0  0  0  0  0  0  0
    6.1301   -5.3495   25.1665 O   0  0  0  0  0  0  0  0  0  0  0  0
    7.1630   -4.7327   25.9872 S   0  0  0  0  0  0  0  0  0  0  0  0
    9.8124   -0.6855   25.3832 H   0  0  0  0  0  0  0  0  0  0  0  0
    8.6536   -2.7565   21.7877 H   0  0  0  0  0  0  0  0  0  0  0  0
    8.6452   -2.3807   26.7368 H   0  0  0  0  0  0  0  0  0  0  0  0
    7.4862   -4.4525   23.1398 H   0  0  0  0  0  0  0  0  0  0  0  0
    4.0104    1.4087   19.6967 H   0  0  0  0  0  0  0  0  0  0  0  0
    4.9188    1.1588   17.3897 H   0  0  0  0  0  0  0  0  0  0  0  0
    8.5940   -0.0516   18.7814 H   0  0  0  0  0  0  0  0  0  0  0  0
    4.9124   -0.0106   22.3349 H   0  0  0  0  0  0  0  0  0  0  0  0
    6.1629    1.2057   22.6931 H   0  0  0  0  0  0  0  0  0  0  0  0
    4.6002    1.7212   22.0610 H   0  0  0  0  0  0  0  0  0  0  0  0
   10.0312    0.3852   23.2049 H   0  0  0  0  0  0  0  0  0  0  0  0
   11.0724   -0.8660   22.5364 H   0  0  0  0  0  0  0  0  0  0  0  0
    8.8229   -5.9381   27.1762 H   0  0  0  0  0  0  0  0  0  0  0  0
    8.3589   -6.7650   25.7393 H   0  0  0  0  0  0  0  0  0  0  0  0
    7.7138    0.1661   22.3537 H   0  0  0  0  0  0  0  0  0  0  0  0
  1  3  2  0  0  0  0
  1  8  1  0  0  0  0
  2  4  1  0  0  0  0
  2  8  2  0  0  0  0
  3 11  1  0  0  0  0
  4 11  2  0  0  0  0
  5  6  2  0  0  0  0
  5  9  1  0  0  0  0
  6 15  1  0  0  0  0
  7 10  1  0  0  0  0
  7 15  2  0  0  0  0
  8 14  1  0  0  0  0
  9 10  2  0  0  0  0
  9 13  1  0  0  0  0
 10 17  1  0  0  0  0
 11 21  1  0  0  0  0
 12 14  1  0  0  0  0
 12 17  1  0  0  0  0
 12 18  2  0  0  0  0
 16 21  1  0  0  0  0
 19 21  2  0  0  0  0
 20 21  2  0  0  0  0
  1 22  1  0  0  0  0
  2 23  1  0  0  0  0
  3 24  1  0  0  0  0
  4 25  1  0  0  0  0
  5 26  1  0  0  0  0
  6 27  1  0  0  0  0
  7 28  1  0  0  0  0
 13 29  1  0  0  0  0
 13 30  1  0  0  0  0
 13 31  1  0  0  0  0
 14 32  1  0  0  0  0
 14 33  1  0  0  0  0
 16 34  1  0  0  0  0
 16 35  1  0  0  0  0
 17 36  1  0  0  0  0
M  END
> <Hybrid2>
-10.478170

> <fragments>
x0107

> <Mpro-x0107_dock>
-10.47817

> <Mpro-x0161_dock>
-8.127419

> <Mpro-x0678_dock>
-7.737815

> <Mpro-x0104_dock>
-7.488438

> <Mpro-x1077_dock>
-7.410786

> <Mpro-x0946_dock>
-7.073384

> <Mpro-x0072_dock>
-6.664242

> <Mpro-x0830_dock>
-6.277274

> <Mpro-x0967_dock>
-6.219025

> <Mpro-x1493_dock>
-6.007754

> <Mpro-x0397_dock>
-5.993723

> <Mpro-x1348_dock>
-5.956783

> <Mpro-x0195_dock>
-5.81969

> <Mpro-x0874_dock>
-5.736722

> <Mpro-x0749_dock>
-5.637416

> <Mpro-x1093_dock>
-5.602725

> <Mpro-x0692_dock>
-5.45492

> <Mpro-x1392_dock>
-5.265015

> <Mpro-x0831_dock>
-5.201203

> <Mpro-x0434_dock>
-5.082332

> <Mpro-x0395_dock>
-4.600327

> <Mpro-x0387_dock>
-4.586027

> <Mpro-x1334_dock>
-4.455933

> <Mpro-x1478_dock>
-4.40454

> <Mpro-x0734_dock>
-4.164779

> <Mpro-x0820_dock>
-4.079497

> <Mpro-x1386_dock>
-3.892861

> <Mpro-x1418_dock>
-3.856119

> <Mpro-x1425_dock>
-3.689588

> <Mpro-x0770_dock>
-3.670138

> <Mpro-x0708_dock>
-3.550968

> <Mpro-x0759_dock>
-3.414798

> <Mpro-x0736_dock>
-3.375871

> <Mpro-x1187_dock>
-3.340152

> <Mpro-x1458_dock>
-3.252726

> <Mpro-x1385_dock>
-3.079643

> <Mpro-x1249_dock>
-2.853081

> <Mpro-x1311_dock>
-2.680867

> <Mpro-x1380_dock>
-2.259882

> <Mpro-x1358_dock>
-2.235119

> <Mpro-x0774_dock>
-2.182568

> <Mpro-x0354_dock>
-1.984588

> <Mpro-x1308_dock>
-1.945237

> <Mpro-x1351_dock>
-1.920456

> <Mpro-x0305_dock>
-1.776813

> <Mpro-x1382_dock>
-1.672461

> <Mpro-x1384_dock>
-1.570941

> <Mpro-x1374_dock>
-1.53166

> <Mpro-x1375_dock>
-1.522799

> <Mpro-x1412_dock>
-1.498435

> <Mpro-x0752_dock>
-1.398941

> <Mpro-x0755_dock>
-1.356738

> <Mpro-x1402_dock>
-1.267418

> <Mpro-x0769_dock>
-1.129804

> <Mpro-x0978_dock>
-0.801352

> <Mpro-x0771_dock>
-0.629823

> <Mpro-x0689_dock>
-0.397796

> <Mpro-x0981_dock>
0.048923

> <Mpro-x0426_dock>
0.113722

> <Mpro-x0887_dock>
0.129039

> <Mpro-x0786_dock>
0.176405

> <Mpro-x0731_dock>
0.239972

> <Mpro-x0705_dock>
0.329537

> <Mpro-x0691_dock>
0.450782

> <Mpro-x0540_dock>
0.904521

> <site>
active-noncovalent

$$$$
TRY-UNI-714-5
  -OEChem-04022003013D

 31 32  0     0  0  0  0  0  0999 V2000
   14.4414   -2.1141   23.0676 C   0  0  0  0  0  0  0  0  0  0  0  0
   13.9030   -1.3728   24.1193 C   0  0  0  0  0  0  0  0  0  0  0  0
   14.0714   -1.8301   21.7530 C   0  0  0  0  0  0  0  0  0  0  0  0
   12.9945   -0.3476   23.8565 C   0  0  0  0  0  0  0  0  0  0  0  0
   13.1629   -0.8049   21.4902 C   0  0  0  0  0  0  0  0  0  0  0  0
    6.0123    0.3635   19.9815 C   0  0  0  0  0  0  0  0  0  0  0  0
    6.3437    0.1960   18.6466 C   0  0  0  0  0  0  0  0  0  0  0  0
    8.5897    0.3967   19.0865 C   0  0  0  0  0  0  0  0  0  0  0  0
   12.6244   -0.0636   22.5419 C   0  0  0  0  0  0  0  0  0  0  0  0
    7.0473    0.5555   20.8899 C   0  0  0  0  0  0  0  0  0  0  0  0
    8.3635    0.5739   20.4420 C   0  0  0  0  0  0  0  0  0  0  0  0
   10.8066    0.8042   21.0103 C   0  0  0  0  0  0  0  0  0  0  0  0
    6.7185    0.7394   22.3352 C   0  0  0  0  0  0  0  0  0  0  0  0
   11.6527    1.0324   22.2602 C   0  0  0  0  0  0  0  0  0  0  0  0
    7.6103    0.2077   18.1740 N   0  0  0  0  0  0  0  0  0  0  0  0
    9.4511    0.7655   21.3270 N   0  0  0  0  0  0  0  0  0  0  0  0
   11.3141    0.6774   19.9005 O   0  0  0  0  0  0  0  0  0  0  0  0
   15.1499   -2.9115   23.2723 H   0  0  0  0  0  0  0  0  0  0  0  0
   14.1919   -1.5931   25.1429 H   0  0  0  0  0  0  0  0  0  0  0  0
   14.4913   -2.4063   20.9339 H   0  0  0  0  0  0  0  0  0  0  0  0
   12.5799    0.2247   24.6823 H   0  0  0  0  0  0  0  0  0  0  0  0
   12.8803   -0.5908   20.4628 H   0  0  0  0  0  0  0  0  0  0  0  0
    4.9751    0.3442   20.2983 H   0  0  0  0  0  0  0  0  0  0  0  0
    5.5732    0.0430   17.8981 H   0  0  0  0  0  0  0  0  0  0  0  0
    9.5952    0.4007   18.6762 H   0  0  0  0  0  0  0  0  0  0  0  0
    6.6975   -0.2301   22.8462 H   0  0  0  0  0  0  0  0  0  0  0  0
    7.4577    1.3802   22.8313 H   0  0  0  0  0  0  0  0  0  0  0  0
    5.7415    1.2223   22.4610 H   0  0  0  0  0  0  0  0  0  0  0  0
   10.9689    1.1670   23.1145 H   0  0  0  0  0  0  0  0  0  0  0  0
   12.1829    1.9919   22.1439 H   0  0  0  0  0  0  0  0  0  0  0  0
    9.2151    0.8894   22.3094 H   0  0  0  0  0  0  0  0  0  0  0  0
  1  2  1  0  0  0  0
  1  3  2  0  0  0  0
  2  4  2  0  0  0  0
  3  5  1  0  0  0  0
  4  9  1  0  0  0  0
  5  9  2  0  0  0  0
  6  7  2  0  0  0  0
  6 10  1  0  0  0  0
  7 15  1  0  0  0  0
  8 11  1  0  0  0  0
  8 15  2  0  0  0  0
  9 14  1  0  0  0  0
 10 11  2  0  0  0  0
 10 13  1  0  0  0  0
 11 16  1  0  0  0  0
 12 14  1  0  0  0  0
 12 16  1  0  0  0  0
 12 17  2  0  0  0  0
  1 18  1  0  0  0  0
  2 19  1  0  0  0  0
  3 20  1  0  0  0  0
  4 21  1  0  0  0  0
  5 22  1  0  0  0  0
  6 23  1  0  0  0  0
  7 24  1  0  0  0  0
  8 25  1  0  0  0  0
 13 26  1  0  0  0  0
 13 27  1  0  0  0  0
 13 28  1  0  0  0  0
 14 29  1  0  0  0  0
 14 30  1  0  0  0  0
 16 31  1  0  0  0  0
M  END
> <Hybrid2>
-10.434412

> <fragments>
x0678

> <Mpro-x0678_dock>
-10.434412

> <Mpro-x0107_dock>
-9.394628

> <Mpro-x1093_dock>
-9.273668

> <Mpro-x0072_dock>
-8.508113

> <Mpro-x0104_dock>
-7.781057

> <Mpro-x0397_dock>
-7.599353

> <Mpro-x1385_dock>
-7.580281

> <Mpro-x0749_dock>
-7.227275

> <Mpro-x0195_dock>
-7.125738

> <Mpro-x0161_dock>
-7.082084

> <Mpro-x0831_dock>
-7.065467

> <Mpro-x0830_dock>
-6.966624

> <Mpro-x1077_dock>
-6.723082

> <Mpro-x0434_dock>
-6.707099

> <Mpro-x0946_dock>
-6.621971

> <Mpro-x1334_dock>
-6.537431

> <Mpro-x1311_dock>
-6.330978

> <Mpro-x0692_dock>
-6.194641

> <Mpro-x0874_dock>
-6.181176

> <Mpro-x0395_dock>
-6.162342

> <Mpro-x0387_dock>
-6.149814

> <Mpro-x1386_dock>
-6.068541

> <Mpro-x1392_dock>
-6.003312

> <Mpro-x0759_dock>
-5.894478

> <Mpro-x0770_dock>
-5.876195

> <Mpro-x1418_dock>
-5.858281

> <Mpro-x0708_dock>
-5.732487

> <Mpro-x0736_dock>
-5.717495

> <Mpro-x0305_dock>
-5.695601

> <Mpro-x1412_dock>
-5.628769

> <Mpro-x0967_dock>
-5.504932

> <Mpro-x1375_dock>
-5.194033

> <Mpro-x1493_dock>
-5.096183

> <Mpro-x1382_dock>
-4.927125

> <Mpro-x0354_dock>
-4.82304

> <Mpro-x1374_dock>
-4.784352

> <Mpro-x1478_dock>
-4.69298

> <Mpro-x1187_dock>
-4.633526

> <Mpro-x1249_dock>
-4.499432

> <Mpro-x1348_dock>
-4.492027

> <Mpro-x0774_dock>
-4.059678

> <Mpro-x0820_dock>
-4.007628

> <Mpro-x1380_dock>
-3.49202

> <Mpro-x1458_dock>
-3.425745

> <Mpro-x0734_dock>
-2.853751

> <Mpro-x0755_dock>
-2.781435

> <Mpro-x0771_dock>
-2.770623

> <Mpro-x0691_dock>
-2.761605

> <Mpro-x1358_dock>
-2.70733

> <Mpro-x1402_dock>
-2.702061

> <Mpro-x0769_dock>
-2.56989

> <Mpro-x0981_dock>
-2.519395

> <Mpro-x0426_dock>
-2.513501

> <Mpro-x0978_dock>
-2.496118

> <Mpro-x1425_dock>
-2.479034

> <Mpro-x0786_dock>
-2.260301

> <Mpro-x1351_dock>
-2.249162

> <Mpro-x1384_dock>
-1.937055

> <Mpro-x0540_dock>
-1.896916

> <Mpro-x0752_dock>
-1.779261

> <Mpro-x1308_dock>
-1.725511

> <Mpro-x0705_dock>
-1.58584

> <Mpro-x0689_dock>
-1.364971

> <Mpro-x0731_dock>
-1.211679

> <Mpro-x0887_dock>
-0.881286

> <site>
active-noncovalent

$$$$
WAR-XCH-b72-15
  -OEChem-04022003013D

 41 43  0     0  0  0  0  0  0999 V2000
   11.6264    1.2515   23.4209 C   0  0  0  0  0  0  0  0  0  0  0  0
   13.7490    0.5646   22.4936 C   0  0  0  0  0  0  0  0  0  0  0  0
   11.9481    2.5852   23.1693 C   0  0  0  0  0  0  0  0  0  0  0  0
   14.0707    1.8984   22.2420 C   0  0  0  0  0  0  0  0  0  0  0  0
    8.0119   -4.3424   22.3359 C   0  0  0  0  0  0  0  0  0  0  0  0
    7.8630   -2.0527   21.6152 C   0  0  0  0  0  0  0  0  0  0  0  0
    6.7451   -4.5343   21.8085 C   0  0  0  0  0  0  0  0  0  0  0  0
    6.6029   -2.3471   21.1199 C   0  0  0  0  0  0  0  0  0  0  0  0
    8.5744   -3.0750   22.2333 C   0  0  0  0  0  0  0  0  0  0  0  0
   12.5269    0.2411   23.0831 C   0  0  0  0  0  0  0  0  0  0  0  0
   13.1702    2.9087   22.5799 C   0  0  0  0  0  0  0  0  0  0  0  0
    9.9299   -1.7624   23.9286 C   0  0  0  0  0  0  0  0  0  0  0  0
   10.9592   -2.3993   21.6932 C   0  0  0  0  0  0  0  0  0  0  0  0
   11.3422   -1.4866   24.4485 C   0  0  0  0  0  0  0  0  0  0  0  0
   12.3435   -2.1029   22.2817 C   0  0  0  0  0  0  0  0  0  0  0  0
    9.9585   -2.8084   22.7942 C   0  0  0  0  0  0  0  0  0  0  0  0
    6.0235   -3.5659   21.2009 N   0  0  0  0  0  0  0  0  0  0  0  0
   12.2065   -1.0894   23.3337 N   0  0  0  0  0  0  0  0  0  0  0  0
   12.1760    5.3669   22.8506 N   0  0  0  0  0  0  0  0  0  0  0  0
   14.7060    4.9430   23.1054 O   0  0  0  0  0  0  0  0  0  0  0  0
   13.6509    4.7715   20.8240 O   0  0  0  0  0  0  0  0  0  0  0  0
   13.5740    4.5778   22.2653 S   0  0  0  0  0  0  0  0  0  0  0  0
   10.6714    1.0108   23.8809 H   0  0  0  0  0  0  0  0  0  0  0  0
   14.4576   -0.2150   22.2254 H   0  0  0  0  0  0  0  0  0  0  0  0
   11.2390    3.3640   23.4368 H   0  0  0  0  0  0  0  0  0  0  0  0
   15.0258    2.1388   21.7826 H   0  0  0  0  0  0  0  0  0  0  0  0
    8.5405   -5.1608   22.8130 H   0  0  0  0  0  0  0  0  0  0  0  0
    8.2749   -1.0539   21.5197 H   0  0  0  0  0  0  0  0  0  0  0  0
    6.2615   -5.5042   21.8639 H   0  0  0  0  0  0  0  0  0  0  0  0
    6.0075   -1.5845   20.6289 H   0  0  0  0  0  0  0  0  0  0  0  0
    9.3030   -2.1201   24.7514 H   0  0  0  0  0  0  0  0  0  0  0  0
    9.4823   -0.8279   23.5726 H   0  0  0  0  0  0  0  0  0  0  0  0
   10.5944   -1.5134   21.1591 H   0  0  0  0  0  0  0  0  0  0  0  0
   11.0455   -3.1993   20.9500 H   0  0  0  0  0  0  0  0  0  0  0  0
   11.2903   -0.6897   25.1953 H   0  0  0  0  0  0  0  0  0  0  0  0
   11.7417   -2.3817   24.9332 H   0  0  0  0  0  0  0  0  0  0  0  0
   12.7740   -3.0156   22.6942 H   0  0  0  0  0  0  0  0  0  0  0  0
   12.9924   -1.7413   21.4842 H   0  0  0  0  0  0  0  0  0  0  0  0
   10.3044   -3.7857   23.2321 H   0  0  0  0  0  0  0  0  0  0  0  0
   12.2549    5.9027   23.7236 H   0  0  0  0  0  0  0  0  0  0  0  0
   11.5346    5.7832   22.1646 H   0  0  0  0  0  0  0  0  0  0  0  0
  1  3  2  0  0  0  0
  1 10  1  0  0  0  0
  2  4  1  0  0  0  0
  2 10  2  0  0  0  0
  3 11  1  0  0  0  0
  4 11  2  0  0  0  0
  5  7  2  0  0  0  0
  5  9  1  0  0  0  0
  6  8  1  0  0  0  0
  6  9  2  0  0  0  0
  7 17  1  0  0  0  0
  8 17  2  0  0  0  0
  9 16  1  0  0  0  0
 10 18  1  0  0  0  0
 11 22  1  0  0  0  0
 12 14  1  0  0  0  0
 12 16  1  0  0  0  0
 13 15  1  0  0  0  0
 13 16  1  0  0  0  0
 14 18  1  0  0  0  0
 15 18  1  0  0  0  0
 19 22  1  0  0  0  0
 20 22  2  0  0  0  0
 21 22  2  0  0  0  0
  1 23  1  0  0  0  0
  2 24  1  0  0  0  0
  3 25  1  0  0  0  0
  4 26  1  0  0  0  0
  5 27  1  0  0  0  0
  6 28  1  0  0  0  0
  7 29  1  0  0  0  0
  8 30  1  0  0  0  0
 12 31  1  0  0  0  0
 12 32  1  0  0  0  0
 13 33  1  0  0  0  0
 13 34  1  0  0  0  0
 14 35  1  0  0  0  0
 14 36  1  0  0  0  0
 15 37  1  0  0  0  0
 15 38  1  0  0  0  0
 16 39  1  0  0  0  0
 19 40  1  0  0  0  0
 19 41  1  0  0  0  0
M  END
> <Hybrid2>
-10.408019

> <fragments>
x0195

> <Mpro-x0195_dock>
-10.408019

> <Mpro-x0946_dock>
-9.175163

> <Mpro-x0072_dock>
-9.148758

> <Mpro-x0874_dock>
-8.921502

> <Mpro-x0678_dock>
-7.736313

> <Mpro-x1077_dock>
-7.367843

> <Mpro-x0749_dock>
-7.053014

> <Mpro-x0830_dock>
-6.640387

> <Mpro-x1093_dock>
-6.547744

> <Mpro-x0161_dock>
-6.279764

> <Mpro-x0395_dock>
-6.200924

> <Mpro-x1334_dock>
-5.842279

> <Mpro-x0104_dock>
-5.717151

> <Mpro-x0107_dock>
-5.405225

> <Mpro-x1311_dock>
-5.360618

> <Mpro-x0967_dock>
-5.179023

> <Mpro-x1392_dock>
-5.027425

> <Mpro-x0397_dock>
-4.740193

> <Mpro-x0692_dock>
-4.374905

> <Mpro-x0831_dock>
-4.307

> <Mpro-x1385_dock>
-4.282117

> <Mpro-x0387_dock>
-4.247868

> <Mpro-x1187_dock>
-4.125929

> <Mpro-x0708_dock>
-3.978103

> <Mpro-x1249_dock>
-3.605329

> <Mpro-x0770_dock>
-3.584693

> <Mpro-x0354_dock>
-3.484687

> <Mpro-x1418_dock>
-3.305944

> <Mpro-x0540_dock>
-3.217172

> <Mpro-x1412_dock>
-3.185362

> <Mpro-x0305_dock>
-3.074481

> <Mpro-x1375_dock>
-3.02997

> <Mpro-x0774_dock>
-2.987487

> <Mpro-x0426_dock>
-2.946455

> <Mpro-x0434_dock>
-2.905632

> <Mpro-x1348_dock>
-2.798257

> <Mpro-x0820_dock>
-2.772778

> <Mpro-x1380_dock>
-2.697408

> <Mpro-x0759_dock>
-2.643435

> <Mpro-x1358_dock>
-2.318134

> <Mpro-x1374_dock>
-1.952529

> <Mpro-x1351_dock>
-1.938902

> <Mpro-x1493_dock>
-1.718614

> <Mpro-x1478_dock>
-1.532018

> <Mpro-x1458_dock>
-1.293954

> <Mpro-x0736_dock>
-1.232786

> <Mpro-x1425_dock>
-1.21787

> <Mpro-x1386_dock>
-1.106995

> <Mpro-x0887_dock>
-0.837852

> <Mpro-x0734_dock>
-0.516339

> <Mpro-x1382_dock>
-0.433078

> <Mpro-x1384_dock>
-0.116767

> <Mpro-x0752_dock>
0.038229

> <Mpro-x0689_dock>
0.165408

> <Mpro-x0705_dock>
0.265856

> <Mpro-x0691_dock>
0.276923

> <Mpro-x0771_dock>
0.354191

> <Mpro-x1308_dock>
0.800833

> <Mpro-x0755_dock>
0.890069

> <Mpro-x0769_dock>
1.064767

> <Mpro-x0731_dock>
1.070398

> <Mpro-x1402_dock>
1.704286

> <Mpro-x0978_dock>
2.052553

> <Mpro-x0786_dock>
2.178621

> <Mpro-x0981_dock>
2.789766

> <site>
active-noncovalent

$$$$
TRY-UNI-714-6
  -OEChem-04022003013D

 31 32  0     0  0  0  0  0  0999 V2000
   11.9931    0.6923   24.2939 C   0  0  0  0  0  0  0  0  0  0  0  0
   10.7591    0.2220   23.8450 C   0  0  0  0  0  0  0  0  0  0  0  0
   13.1375   -0.0889   24.1334 C   0  0  0  0  0  0  0  0  0  0  0  0
    5.5073    1.3894   18.9945 C   0  0  0  0  0  0  0  0  0  0  0  0
   11.8137   -1.8109   23.0754 C   0  0  0  0  0  0  0  0  0  0  0  0
    6.1456    1.1224   17.7940 C   0  0  0  0  0  0  0  0  0  0  0  0
    7.8068   -0.0712   18.8400 C   0  0  0  0  0  0  0  0  0  0  0  0
   10.6693   -1.0296   23.2358 C   0  0  0  0  0  0  0  0  0  0  0  0
    6.0747    0.8853   20.1595 C   0  0  0  0  0  0  0  0  0  0  0  0
    7.2465    0.1401   20.0894 C   0  0  0  0  0  0  0  0  0  0  0  0
   13.0478   -1.3405   23.5242 C   0  0  0  0  0  0  0  0  0  0  0  0
    9.0280   -1.1530   21.3138 C   0  0  0  0  0  0  0  0  0  0  0  0
    5.4079    1.1586   21.4677 C   0  0  0  0  0  0  0  0  0  0  0  0
    9.3493   -1.5323   22.7572 C   0  0  0  0  0  0  0  0  0  0  0  0
    7.2848    0.4025   17.6863 N   0  0  0  0  0  0  0  0  0  0  0  0
    7.8621   -0.3944   21.2462 N   0  0  0  0  0  0  0  0  0  0  0  0
    9.7419   -1.5027   20.3794 O   0  0  0  0  0  0  0  0  0  0  0  0
   14.4599   -2.3044   23.3276 Cl  0  0  0  0  0  0  0  0  0  0  0  0
   12.0625    1.6669   24.7683 H   0  0  0  0  0  0  0  0  0  0  0  0
    9.8726    0.8374   23.9742 H   0  0  0  0  0  0  0  0  0  0  0  0
   14.0927    0.2903   24.4884 H   0  0  0  0  0  0  0  0  0  0  0  0
    4.5942    1.9745   19.0148 H   0  0  0  0  0  0  0  0  0  0  0  0
   11.7386   -2.7858   22.5993 H   0  0  0  0  0  0  0  0  0  0  0  0
    5.7436    1.4931   16.8568 H   0  0  0  0  0  0  0  0  0  0  0  0
    8.7209   -0.6453   18.7203 H   0  0  0  0  0  0  0  0  0  0  0  0
    4.6846    0.3677   21.6978 H   0  0  0  0  0  0  0  0  0  0  0  0
    6.1403    1.2105   22.2826 H   0  0  0  0  0  0  0  0  0  0  0  0
    4.8807    2.1205   21.4504 H   0  0  0  0  0  0  0  0  0  0  0  0
    9.3055   -2.6310   22.8384 H   0  0  0  0  0  0  0  0  0  0  0  0
    8.5393   -1.1498   23.3998 H   0  0  0  0  0  0  0  0  0  0  0  0
    7.3987   -0.2020   22.1319 H   0  0  0  0  0  0  0  0  0  0  0  0
  1  2  2  0  0  0  0
  1  3  1  0  0  0  0
  2  8  1  0  0  0  0
  3 11  2  0  0  0  0
  4  6  2  0  0  0  0
  4  9  1  0  0  0  0
  5  8  2  0  0  0  0
  5 11  1  0  0  0  0
  6 15  1  0  0  0  0
  7 10  1  0  0  0  0
  7 15  2  0  0  0  0
  8 14  1  0  0  0  0
  9 10  2  0  0  0  0
  9 13  1  0  0  0  0
 10 16  1  0  0  0  0
 11 18  1  0  0  0  0
 12 14  1  0  0  0  0
 12 16  1  0  0  0  0
 12 17  2  0  0  0  0
  1 19  1  0  0  0  0
  2 20  1  0  0  0  0
  3 21  1  0  0  0  0
  4 22  1  0  0  0  0
  5 23  1  0  0  0  0
  6 24  1  0  0  0  0
  7 25  1  0  0  0  0
 13 26  1  0  0  0  0
 13 27  1  0  0  0  0
 13 28  1  0  0  0  0
 14 29  1  0  0  0  0
 14 30  1  0  0  0  0
 16 31  1  0  0  0  0
M  END
> <Hybrid2>
-10.387289

> <fragments>
x0678

> <Mpro-x0678_dock>
-10.387289

> <Mpro-x0107_dock>
-9.714255

> <Mpro-x1093_dock>
-8.542704

> <Mpro-x0161_dock>
-8.341924

> <Mpro-x0072_dock>
-8.180922

> <Mpro-x0749_dock>
-7.710848

> <Mpro-x0397_dock>
-7.595036

> <Mpro-x0104_dock>
-7.519265

> <Mpro-x0830_dock>
-7.470008

> <Mpro-x1077_dock>
-7.092597

> <Mpro-x1385_dock>
-6.722346

> <Mpro-x0946_dock>
-6.668353

> <Mpro-x0195_dock>
-6.584317

> <Mpro-x0434_dock>
-6.524484

> <Mpro-x0831_dock>
-6.499802

> <Mpro-x1334_dock>
-6.01993

> <Mpro-x0692_dock>
-5.801808

> <Mpro-x1386_dock>
-5.755045

> <Mpro-x0708_dock>
-5.715829

> <Mpro-x0874_dock>
-5.712267

> <Mpro-x1375_dock>
-5.652248

> <Mpro-x1392_dock>
-5.557348

> <Mpro-x1311_dock>
-5.509851

> <Mpro-x1493_dock>
-5.453585

> <Mpro-x0759_dock>
-5.413435

> <Mpro-x1412_dock>
-5.250567

> <Mpro-x0395_dock>
-5.18601

> <Mpro-x1348_dock>
-5.184648

> <Mpro-x0387_dock>
-5.045125

> <Mpro-x0770_dock>
-4.932259

> <Mpro-x0967_dock>
-4.900548

> <Mpro-x1418_dock>
-4.849298

> <Mpro-x1478_dock>
-4.760462

> <Mpro-x1374_dock>
-4.658044

> <Mpro-x1382_dock>
-4.592426

> <Mpro-x1249_dock>
-4.561144

> <Mpro-x0354_dock>
-4.407992

> <Mpro-x0736_dock>
-4.3206

> <Mpro-x0734_dock>
-3.954553

> <Mpro-x1380_dock>
-3.939762

> <Mpro-x0820_dock>
-3.617336

> <Mpro-x0752_dock>
-3.530867

> <Mpro-x0774_dock>
-3.499303

> <Mpro-x1187_dock>
-3.445894

> <Mpro-x1358_dock>
-3.342736

> <Mpro-x1458_dock>
-3.21261

> <Mpro-x0305_dock>
-2.845258

> <Mpro-x0771_dock>
-2.809266

> <Mpro-x0755_dock>
-2.751377

> <Mpro-x0786_dock>
-2.67731

> <Mpro-x0691_dock>
-2.578508

> <Mpro-x0769_dock>
-2.571509

> <Mpro-x1402_dock>
-2.490645

> <Mpro-x1308_dock>
-2.485491

> <Mpro-x1384_dock>
-2.431842

> <Mpro-x0978_dock>
-2.234717

> <Mpro-x1425_dock>
-2.222035

> <Mpro-x0426_dock>
-1.930466

> <Mpro-x0981_dock>
-1.881185

> <Mpro-x1351_dock>
-1.869061

> <Mpro-x0540_dock>
-1.760612

> <Mpro-x0731_dock>
-1.494684

> <Mpro-x0689_dock>
-1.329001

> <Mpro-x0705_dock>
-1.226187

> <Mpro-x0887_dock>
-1.153472

> <site>
active-noncovalent

$$$$
WAR-XCH-b68-29
  -OEChem-04022003013D

 44 46  0     0  0  0  0  0  0999 V2000
   13.4187   -0.6772   24.5369 C   0  0  0  0  0  0  0  0  0  0  0  0
   12.3655    0.2373   24.5294 C   0  0  0  0  0  0  0  0  0  0  0  0
   13.3924   -1.7784   23.6811 C   0  0  0  0  0  0  0  0  0  0  0  0
    6.9911   -3.8885   26.4973 C   0  0  0  0  0  0  0  0  0  0  0  0
    6.1769   -5.4659   24.8584 C   0  0  0  0  0  0  0  0  0  0  0  0
   11.2859    0.0506   23.6661 C   0  0  0  0  0  0  0  0  0  0  0  0
   12.3128   -1.9651   22.8178 C   0  0  0  0  0  0  0  0  0  0  0  0
    6.4027   -4.6409   27.5138 C   0  0  0  0  0  0  0  0  0  0  0  0
    5.5886   -6.2184   25.8749 C   0  0  0  0  0  0  0  0  0  0  0  0
    6.8781   -4.3009   25.1696 C   0  0  0  0  0  0  0  0  0  0  0  0
   11.2595   -1.0506   22.8103 C   0  0  0  0  0  0  0  0  0  0  0  0
    5.7015   -5.8058   27.2026 C   0  0  0  0  0  0  0  0  0  0  0  0
    8.2982   -1.3477   23.4995 C   0  0  0  0  0  0  0  0  0  0  0  0
    9.3637   -3.4427   22.6201 C   0  0  0  0  0  0  0  0  0  0  0  0
    7.0784   -2.1616   23.9330 C   0  0  0  0  0  0  0  0  0  0  0  0
    8.1259   -4.2295   23.0433 C   0  0  0  0  0  0  0  0  0  0  0  0
    9.0107   -1.9872   22.3069 C   0  0  0  0  0  0  0  0  0  0  0  0
    7.4587   -3.5585   24.1658 N   0  0  0  0  0  0  0  0  0  0  0  0
    6.2385   -7.8156   28.8692 N   0  0  0  0  0  0  0  0  0  0  0  0
   10.1902   -1.2359   21.9548 N   0  0  0  0  0  0  0  0  0  0  0  0
    4.7162   -5.8717   29.6106 O   0  0  0  0  0  0  0  0  0  0  0  0
    3.8688   -7.5190   27.9030 O   0  0  0  0  0  0  0  0  0  0  0  0
    4.9642   -6.7480   28.4743 S   0  0  0  0  0  0  0  0  0  0  0  0
   14.2593   -0.5318   25.2093 H   0  0  0  0  0  0  0  0  0  0  0  0
   12.3861    1.0944   25.1957 H   0  0  0  0  0  0  0  0  0  0  0  0
   14.2127   -2.4905   23.6871 H   0  0  0  0  0  0  0  0  0  0  0  0
    7.5349   -2.9821   26.7511 H   0  0  0  0  0  0  0  0  0  0  0  0
    6.0837   -5.7969   23.8271 H   0  0  0  0  0  0  0  0  0  0  0  0
   10.4702    0.7689   23.6680 H   0  0  0  0  0  0  0  0  0  0  0  0
   12.3032   -2.8269   22.1552 H   0  0  0  0  0  0  0  0  0  0  0  0
    6.4970   -4.3100   28.5446 H   0  0  0  0  0  0  0  0  0  0  0  0
    5.0445   -7.1242   25.6209 H   0  0  0  0  0  0  0  0  0  0  0  0
    7.9705   -0.3409   23.2202 H   0  0  0  0  0  0  0  0  0  0  0  0
    8.9857   -1.2301   24.3418 H   0  0  0  0  0  0  0  0  0  0  0  0
   10.1242   -3.4941   23.3996 H   0  0  0  0  0  0  0  0  0  0  0  0
    9.7898   -3.9038   21.7268 H   0  0  0  0  0  0  0  0  0  0  0  0
    6.6375   -1.7337   24.8420 H   0  0  0  0  0  0  0  0  0  0  0  0
    6.3217   -2.1009   23.1410 H   0  0  0  0  0  0  0  0  0  0  0  0
    7.4449   -4.2981   22.1851 H   0  0  0  0  0  0  0  0  0  0  0  0
    8.4001   -5.2541   23.3268 H   0  0  0  0  0  0  0  0  0  0  0  0
    8.3287   -1.9687   21.4377 H   0  0  0  0  0  0  0  0  0  0  0  0
    6.7228   -7.6776   29.7646 H   0  0  0  0  0  0  0  0  0  0  0  0
    6.1435   -8.8014   28.5962 H   0  0  0  0  0  0  0  0  0  0  0  0
   10.2295   -0.8273   21.0312 H   0  0  0  0  0  0  0  0  0  0  0  0
  1  2  1  0  0  0  0
  1  3  2  0  0  0  0
  2  6  2  0  0  0  0
  3  7  1  0  0  0  0
  4  8  2  0  0  0  0
  4 10  1  0  0  0  0
  5  9  1  0  0  0  0
  5 10  2  0  0  0  0
  6 11  1  0  0  0  0
  7 11  2  0  0  0  0
  8 12  1  0  0  0  0
  9 12  2  0  0  0  0
 10 18  1  0  0  0  0
 11 20  1  0  0  0  0
 12 23  1  0  0  0  0
 13 15  1  0  0  0  0
 13 17  1  0  0  0  0
 14 16  1  0  0  0  0
 14 17  1  0  0  0  0
 15 18  1  0  0  0  0
 16 18  1  0  0  0  0
 17 20  1  0  0  0  0
 19 23  1  0  0  0  0
 21 23  2  0  0  0  0
 22 23  2  0  0  0  0
  1 24  1  0  0  0  0
  2 25  1  0  0  0  0
  3 26  1  0  0  0  0
  4 27  1  0  0  0  0
  5 28  1  0  0  0  0
  6 29  1  0  0  0  0
  7 30  1  0  0  0  0
  8 31  1  0  0  0  0
  9 32  1  0  0  0  0
 13 33  1  0  0  0  0
 13 34  1  0  0  0  0
 14 35  1  0  0  0  0
 14 36  1  0  0  0  0
 15 37  1  0  0  0  0
 15 38  1  0  0  0  0
 16 39  1  0  0  0  0
 16 40  1  0  0  0  0
 17 41  1  0  0  0  0
 19 42  1  0  0  0  0
 19 43  1  0  0  0  0
 20 44  1  0  0  0  0
M  END
> <Hybrid2>
-10.363422

> <fragments>
x0072

> <Mpro-x0072_dock>
-10.363422

> <Mpro-x0104_dock>
-8.213809

> <Mpro-x0161_dock>
-7.600025

> <Mpro-x1093_dock>
-7.493563

> <Mpro-x0874_dock>
-7.2801

> <Mpro-x0195_dock>
-6.338127

> <Mpro-x0946_dock>
-6.170521

> <Mpro-x0305_dock>
-5.939907

> <Mpro-x1077_dock>
-5.918809

> <Mpro-x0395_dock>
-5.400001

> <Mpro-x1311_dock>
-4.959934

> <Mpro-x0397_dock>
-4.856041

> <Mpro-x0830_dock>
-4.753291

> <Mpro-x0967_dock>
-4.498764

> <Mpro-x0107_dock>
-4.413671

> <Mpro-x1385_dock>
-4.342135

> <Mpro-x0749_dock>
-4.299612

> <Mpro-x0678_dock>
-4.042953

> <Mpro-x0387_dock>
-3.982236

> <Mpro-x1392_dock>
-3.796399

> <Mpro-x1334_dock>
-3.732561

> <Mpro-x1374_dock>
-3.659714

> <Mpro-x1493_dock>
-3.649849

> <Mpro-x0354_dock>
-3.499143

> <Mpro-x1187_dock>
-3.192324

> <Mpro-x1380_dock>
-2.751286

> <Mpro-x1375_dock>
-2.213838

> <Mpro-x1249_dock>
-2.186772

> <Mpro-x0692_dock>
-2.174562

> <Mpro-x0978_dock>
-1.880487

> <Mpro-x0434_dock>
-1.861125

> <Mpro-x0831_dock>
-1.731876

> <Mpro-x0887_dock>
-0.969519

> <Mpro-x1358_dock>
-0.915096

> <Mpro-x0708_dock>
-0.845425

> <Mpro-x1384_dock>
-0.750282

> <Mpro-x0540_dock>
-0.700962

> <Mpro-x1425_dock>
-0.640239

> <Mpro-x1458_dock>
-0.621845

> <Mpro-x0771_dock>
-0.498094

> <Mpro-x0426_dock>
-0.48592

> <Mpro-x1478_dock>
-0.413287

> <Mpro-x1308_dock>
-0.37988

> <Mpro-x0691_dock>
-0.298253

> <Mpro-x0820_dock>
-0.231158

> <Mpro-x1348_dock>
-0.050312

> <Mpro-x1351_dock>
-0.038309

> <Mpro-x1412_dock>
0.141536

> <Mpro-x0689_dock>
0.180597

> <Mpro-x0769_dock>
0.254713

> <Mpro-x0752_dock>
0.437702

> <Mpro-x0774_dock>
0.478034

> <Mpro-x0755_dock>
0.561665

> <Mpro-x0736_dock>
0.91627

> <Mpro-x1382_dock>
0.937078

> <Mpro-x0981_dock>
0.944517

> <Mpro-x1386_dock>
0.94599

> <Mpro-x0731_dock>
1.136882

> <Mpro-x1418_dock>
1.338733

> <Mpro-x1402_dock>
1.439864

> <Mpro-x0734_dock>
1.647335

> <Mpro-x0759_dock>
1.699704

> <Mpro-x0705_dock>
1.74982

> <Mpro-x0770_dock>
1.923995

> <Mpro-x0786_dock>
2.334424

> <site>
active-noncovalent

$$$$
GER-UNI-ec7-1
  -OEChem-04022003013D

 30 32  0     1  0  0  0  0  0999 V2000
   10.0672   -4.9175   24.7169 C   0  0  0  0  0  0  0  0  0  0  0  0
    8.9483   -5.5044   24.1152 C   0  0  0  0  0  0  0  0  0  0  0  0
   12.3834   -0.5697   23.9630 C   0  0  0  0  0  0  0  0  0  0  0  0
   13.4008   -0.6688   24.9159 C   0  0  0  0  0  0  0  0  0  0  0  0
   12.6062   -2.8527   25.6158 C   0  0  0  0  0  0  0  0  0  0  0  0
    8.6706   -3.5893   22.6485 C   0  0  0  0  0  0  0  0  0  0  0  0
   10.4993   -3.6468   24.2824 C   0  0  0  0  0  0  0  0  0  0  0  0
   11.5700   -2.7761   24.6615 C   0  0  0  0  0  0  0  0  0  0  0  0
    8.2618   -4.8482   23.0964 C   0  0  0  0  0  0  0  0  0  0  0  0
   11.4846   -1.6376   23.8597 C   0  0  0  0  0  0  0  0  0  0  0  0
    9.7910   -3.0151   23.2600 C   0  0  0  0  0  0  0  0  0  0  0  0
   13.5125   -1.7926   25.7311 C   0  0  0  0  0  0  0  0  0  0  0  0
    5.8100   -4.6561   22.7813 C   0  0  0  0  0  0  0  0  0  0  0  0
    7.2717   -5.7741   20.9745 C   0  0  0  0  0  0  0  0  0  0  0  0
    7.0713   -5.4976   22.4713 C   0  0  1  0  0  0  0  0  0  0  0  0
   10.4052   -1.8076   23.0251 N   0  0  0  0  0  0  0  0  0  0  0  0
    4.8962   -4.7428   21.9096 O   0  5  0  0  0  0  0  0  0  0  0  0
    5.8259   -3.9875   23.8524 O   0  0  0  0  0  0  0  0  0  0  0  0
   14.7788   -1.8819   26.8958 Cl  0  0  0  0  0  0  0  0  0  0  0  0
   10.5917   -5.4411   25.5112 H   0  0  0  0  0  0  0  0  0  0  0  0
    8.6199   -6.4839   24.4546 H   0  0  0  0  0  0  0  0  0  0  0  0
   12.2964    0.3057   23.3282 H   0  0  0  0  0  0  0  0  0  0  0  0
   14.1082    0.1522   25.0101 H   0  0  0  0  0  0  0  0  0  0  0  0
   12.6935   -3.7288   26.2533 H   0  0  0  0  0  0  0  0  0  0  0  0
    8.1408   -3.0715   21.8549 H   0  0  0  0  0  0  0  0  0  0  0  0
    7.4652   -4.8404   20.4346 H   0  0  0  0  0  0  0  0  0  0  0  0
    8.1214   -6.4441   20.8034 H   0  0  0  0  0  0  0  0  0  0  0  0
    6.3903   -6.2416   20.5217 H   0  0  0  0  0  0  0  0  0  0  0  0
    6.8831   -6.4838   22.9369 H   0  0  0  0  0  0  0  0  0  0  0  0
   10.1036   -1.1352   22.3337 H   0  0  0  0  0  0  0  0  0  0  0  0
  1  2  2  0  0  0  0
  1  7  1  0  0  0  0
  2  9  1  0  0  0  0
  3  4  2  0  0  0  0
  3 10  1  0  0  0  0
  4 12  1  0  0  0  0
  5  8  1  0  0  0  0
  5 12  2  0  0  0  0
  6  9  2  0  0  0  0
  6 11  1  0  0  0  0
  7  8  1  0  0  0  0
  7 11  2  0  0  0  0
  8 10  2  0  0  0  0
  9 15  1  0  0  0  0
 10 16  1  0  0  0  0
 11 16  1  0  0  0  0
 12 19  1  0  0  0  0
 13 15  1  0  0  0  0
 13 17  1  0  0  0  0
 13 18  2  0  0  0  0
 14 15  1  0  0  0  0
  1 20  1  0  0  0  0
  2 21  1  0  0  0  0
  3 22  1  0  0  0  0
  4 23  1  0  0  0  0
  5 24  1  0  0  0  0
  6 25  1  0  0  0  0
 14 26  1  0  0  0  0
 14 27  1  0  0  0  0
 14 28  1  0  0  0  0
 15 29  1  0  0  0  0
 16 30  1  0  0  0  0
M  CHG  1  17  -1
M  END
> <Hybrid2>
-10.343470

> <fragments>
x0749

> <Mpro-x0749_dock>
-10.34347

> <Mpro-x0830_dock>
-9.429029

> <Mpro-x0678_dock>
-9.346262

> <Mpro-x0708_dock>
-9.291564

> <Mpro-x1386_dock>
-9.24053

> <Mpro-x1418_dock>
-8.872727

> <Mpro-x0770_dock>
-8.527731

> <Mpro-x0831_dock>
-8.351287

> <Mpro-x0692_dock>
-8.070108

> <Mpro-x1093_dock>
-8.060263

> <Mpro-x1077_dock>
-7.753067

> <Mpro-x0195_dock>
-7.627395

> <Mpro-x0104_dock>
-7.534659

> <Mpro-x0161_dock>
-7.396525

> <Mpro-x0395_dock>
-7.351048

> <Mpro-x0759_dock>
-7.258185

> <Mpro-x1392_dock>
-6.90142

> <Mpro-x1382_dock>
-6.814651

> <Mpro-x0434_dock>
-6.768413

> <Mpro-x0874_dock>
-6.766913

> <Mpro-x0072_dock>
-6.718811

> <Mpro-x0946_dock>
-6.594505

> <Mpro-x0107_dock>
-6.456459

> <Mpro-x0967_dock>
-6.274725

> <Mpro-x1385_dock>
-6.262702

> <Mpro-x1334_dock>
-6.107265

> <Mpro-x0397_dock>
-5.632108

> <Mpro-x0774_dock>
-5.609039

> <Mpro-x0354_dock>
-5.489831

> <Mpro-x1380_dock>
-5.085832

> <Mpro-x0305_dock>
-4.981955

> <Mpro-x1187_dock>
-4.891154

> <Mpro-x1311_dock>
-4.828257

> <Mpro-x0387_dock>
-4.80425

> <Mpro-x1249_dock>
-4.729117

> <Mpro-x1412_dock>
-4.624017

> <Mpro-x0978_dock>
-4.323155

> <Mpro-x0540_dock>
-4.180429

> <Mpro-x1348_dock>
-3.63546

> <Mpro-x1358_dock>
-3.48294

> <Mpro-x0736_dock>
-3.440454

> <Mpro-x1375_dock>
-3.397407

> <Mpro-x1493_dock>
-3.394923

> <Mpro-x1351_dock>
-3.174753

> <Mpro-x0689_dock>
-3.12625

> <Mpro-x0769_dock>
-3.074593

> <Mpro-x1478_dock>
-2.950858

> <Mpro-x0981_dock>
-2.864645

> <Mpro-x0755_dock>
-2.86249

> <Mpro-x1402_dock>
-2.85272

> <Mpro-x1374_dock>
-2.784556

> <Mpro-x0734_dock>
-2.763293

> <Mpro-x1384_dock>
-2.717683

> <Mpro-x0705_dock>
-2.252665

> <Mpro-x0691_dock>
-2.177383

> <Mpro-x0887_dock>
-2.118985

> <Mpro-x1425_dock>
-2.097866

> <Mpro-x0426_dock>
-2.041344

> <Mpro-x0752_dock>
-1.923846

> <Mpro-x1308_dock>
-1.923206

> <Mpro-x1458_dock>
-1.895546

> <Mpro-x0786_dock>
-1.812045

> <Mpro-x0820_dock>
-1.589978

> <Mpro-x0771_dock>
-1.548724

> <Mpro-x0731_dock>
-0.456877

> <site>
active-covalent

$$$$
BAR-COM-4e0-34
  -OEChem-04022003013D

 43 45  0     1  0  0  0  0  0999 V2000
   13.9716   -0.3598   23.5587 C   0  0  0  0  0  0  0  0  0  0  0  0
   13.8238   -1.7239   23.3077 C   0  0  0  0  0  0  0  0  0  0  0  0
   12.8634    0.4850   23.4964 C   0  0  0  0  0  0  0  0  0  0  0  0
   12.5677   -2.2432   22.9942 C   0  0  0  0  0  0  0  0  0  0  0  0
    6.4923    0.8893   17.7245 C   0  0  0  0  0  0  0  0  0  0  0  0
    6.0102    0.8028   19.0064 C   0  0  0  0  0  0  0  0  0  0  0  0
   11.6073   -0.0344   23.1829 C   0  0  0  0  0  0  0  0  0  0  0  0
   11.4595   -1.3985   22.9318 C   0  0  0  0  0  0  0  0  0  0  0  0
   10.4405    0.8832   23.1218 C   0  0  0  0  0  0  0  0  0  0  0  0
    8.1136   -3.4271   24.8243 C   0  0  0  0  0  0  0  0  0  0  0  0
    9.2998   -2.4488   24.9152 C   0  0  0  0  0  0  0  0  0  0  0  0
    8.2482   -3.3417   23.2924 C   0  0  0  0  0  0  0  0  0  0  0  0
    9.7249   -2.9346   23.5096 C   0  0  0  0  0  0  0  0  0  0  0  0
    7.0761   -0.1127   21.1173 C   0  0  0  0  0  0  0  0  0  0  0  0
    8.6504    1.8130   21.6773 C   0  0  0  0  0  0  0  0  0  0  0  0
    7.3234    1.1173   21.9997 C   0  0  2  0  0  0  0  0  0  0  0  0
    7.7585    0.3759   17.6743 N   0  0  0  0  0  0  0  0  0  0  0  0
    8.0823   -0.0323   18.8964 N   0  0  0  0  0  0  0  0  0  0  0  0
    7.0326    0.2244   19.6936 N   0  0  0  0  0  0  0  0  0  0  0  0
    9.7957    0.9418   21.9035 N   0  0  0  0  0  0  0  0  0  0  0  0
   10.1357    1.5334   24.1182 O   0  0  0  0  0  0  0  0  0  0  0  0
    7.3708    0.6873   23.3622 O   0  0  0  0  0  0  0  0  0  0  0  0
   10.2401   -1.9251   22.6259 O   0  0  0  0  0  0  0  0  0  0  0  0
   14.9500    0.0443   23.8028 H   0  0  0  0  0  0  0  0  0  0  0  0
   14.6871   -2.3809   23.3559 H   0  0  0  0  0  0  0  0  0  0  0  0
   12.9904    1.5463   23.6944 H   0  0  0  0  0  0  0  0  0  0  0  0
   12.4594   -3.3068   22.7999 H   0  0  0  0  0  0  0  0  0  0  0  0
    6.0025    1.2886   16.8495 H   0  0  0  0  0  0  0  0  0  0  0  0
    5.0744    1.0880   19.4654 H   0  0  0  0  0  0  0  0  0  0  0  0
    8.3307   -4.4216   25.2306 H   0  0  0  0  0  0  0  0  0  0  0  0
    7.1686   -3.0693   25.2401 H   0  0  0  0  0  0  0  0  0  0  0  0
    9.0063   -1.3935   24.9544 H   0  0  0  0  0  0  0  0  0  0  0  0
   10.0106   -2.6502   25.7209 H   0  0  0  0  0  0  0  0  0  0  0  0
    8.0901   -4.2812   22.7566 H   0  0  0  0  0  0  0  0  0  0  0  0
    7.6320   -2.5602   22.8333 H   0  0  0  0  0  0  0  0  0  0  0  0
   10.4053   -3.7935   23.5451 H   0  0  0  0  0  0  0  0  0  0  0  0
    6.1215   -0.5915   21.3678 H   0  0  0  0  0  0  0  0  0  0  0  0
    7.8649   -0.8647   21.2337 H   0  0  0  0  0  0  0  0  0  0  0  0
    8.6484    2.1443   20.6320 H   0  0  0  0  0  0  0  0  0  0  0  0
    8.7536    2.7209   22.2832 H   0  0  0  0  0  0  0  0  0  0  0  0
    6.4935    1.8289   21.9100 H   0  0  0  0  0  0  0  0  0  0  0  0
   10.1352    0.4279   21.1035 H   0  0  0  0  0  0  0  0  0  0  0  0
    7.5275    1.4823   23.8929 H   0  0  0  0  0  0  0  0  0  0  0  0
  1  2  1  0  0  0  0
  1  3  2  0  0  0  0
  2  4  2  0  0  0  0
  3  7  1  0  0  0  0
  4  8  1  0  0  0  0
  5  6  2  0  0  0  0
  5 17  1  0  0  0  0
  6 19  1  0  0  0  0
  7  8  2  0  0  0  0
  7  9  1  0  0  0  0
  8 23  1  0  0  0  0
  9 20  1  0  0  0  0
  9 21  2  0  0  0  0
 10 11  1  0  0  0  0
 10 12  1  0  0  0  0
 11 13  1  0  0  0  0
 12 13  1  0  0  0  0
 13 23  1  0  0  0  0
 14 16  1  0  0  0  0
 14 19  1  0  0  0  0
 15 16  1  0  0  0  0
 15 20  1  0  0  0  0
 16 22  1  0  0  0  0
 17 18  2  0  0  0  0
 18 19  1  0  0  0  0
  1 24  1  0  0  0  0
  2 25  1  0  0  0  0
  3 26  1  0  0  0  0
  4 27  1  0  0  0  0
  5 28  1  0  0  0  0
  6 29  1  0  0  0  0
 10 30  1  0  0  0  0
 10 31  1  0  0  0  0
 11 32  1  0  0  0  0
 11 33  1  0  0  0  0
 12 34  1  0  0  0  0
 12 35  1  0  0  0  0
 13 36  1  0  0  0  0
 14 37  1  0  0  0  0
 14 38  1  0  0  0  0
 15 39  1  0  0  0  0
 15 40  1  0  0  0  0
 16 41  1  0  0  0  0
 20 42  1  0  0  0  0
 22 43  1  0  0  0  0
M  END
> <Hybrid2>
-10.300408

> <fragments>
x0678

> <Mpro-x0678_dock>
-10.300408

> <Mpro-x0195_dock>
-7.365211

> <Mpro-x0874_dock>
-6.928249

> <Mpro-x1334_dock>
-6.430315

> <Mpro-x0072_dock>
-6.277908

> <Mpro-x1385_dock>
-6.240542

> <Mpro-x0397_dock>
-6.018776

> <Mpro-x0830_dock>
-6.007329

> <Mpro-x0107_dock>
-5.905233

> <Mpro-x0831_dock>
-5.744304

> <Mpro-x0434_dock>
-5.620691

> <Mpro-x0104_dock>
-5.565209

> <Mpro-x1093_dock>
-5.506276

> <Mpro-x0161_dock>
-5.431829

> <Mpro-x0749_dock>
-5.324035

> <Mpro-x0946_dock>
-5.276418

> <Mpro-x0759_dock>
-5.261177

> <Mpro-x0967_dock>
-5.066655

> <Mpro-x1077_dock>
-5.063751

> <Mpro-x1392_dock>
-4.911741

> <Mpro-x1375_dock>
-4.819114

> <Mpro-x1374_dock>
-4.742539

> <Mpro-x0734_dock>
-4.67668

> <Mpro-x0387_dock>
-4.632591

> <Mpro-x1418_dock>
-4.457134

> <Mpro-x0708_dock>
-4.277812

> <Mpro-x0692_dock>
-3.864687

> <Mpro-x0395_dock>
-3.689789

> <Mpro-x0305_dock>
-3.609605

> <Mpro-x1311_dock>
-3.536333

> <Mpro-x1478_dock>
-3.437427

> <Mpro-x1458_dock>
-3.375034

> <Mpro-x1412_dock>
-3.352555

> <Mpro-x1249_dock>
-3.22684

> <Mpro-x0354_dock>
-3.217351

> <Mpro-x1348_dock>
-3.178221

> <Mpro-x1386_dock>
-3.087504

> <Mpro-x0770_dock>
-2.900312

> <Mpro-x1380_dock>
-2.888769

> <Mpro-x0774_dock>
-2.519223

> <Mpro-x1493_dock>
-2.336873

> <Mpro-x0820_dock>
-2.178611

> <Mpro-x1382_dock>
-1.888032

> <Mpro-x1384_dock>
-1.886834

> <Mpro-x0736_dock>
-1.87645

> <Mpro-x1187_dock>
-1.849463

> <Mpro-x1358_dock>
-1.487568

> <Mpro-x0771_dock>
-1.172776

> <Mpro-x0731_dock>
-0.986094

> <Mpro-x1351_dock>
-0.953373

> <Mpro-x0540_dock>
-0.81698

> <Mpro-x0755_dock>
-0.809281

> <Mpro-x0752_dock>
-0.779816

> <Mpro-x0981_dock>
-0.766339

> <Mpro-x0769_dock>
-0.618943

> <Mpro-x0426_dock>
-0.606267

> <Mpro-x1308_dock>
-0.576036

> <Mpro-x1402_dock>
-0.554509

> <Mpro-x0786_dock>
-0.412564

> <Mpro-x1425_dock>
-0.230187

> <Mpro-x0705_dock>
0.000587

> <Mpro-x0689_dock>
0.103476

> <Mpro-x0978_dock>
0.27457

> <Mpro-x0691_dock>
0.347664

> <Mpro-x0887_dock>
0.74999

> <site>
active-noncovalent

$$$$
TRY-UNI-1fd-8
  -OEChem-04022003013D

 36 38  0     0  0  0  0  0  0999 V2000
   15.2184   -1.2998   22.2665 C   0  0  0  0  0  0  0  0  0  0  0  0
    5.2880    0.8004   18.4666 C   0  0  0  0  0  0  0  0  0  0  0  0
   13.0589   -2.1451   23.0424 C   0  0  0  0  0  0  0  0  0  0  0  0
   13.6760    0.1466   23.4944 C   0  0  0  0  0  0  0  0  0  0  0  0
    5.7480    0.8493   19.7813 C   0  0  0  0  0  0  0  0  0  0  0  0
   11.8449   -1.9479   23.7005 C   0  0  0  0  0  0  0  0  0  0  0  0
   12.4620    0.3438   24.1524 C   0  0  0  0  0  0  0  0  0  0  0  0
    6.1698    0.4192   17.4643 C   0  0  0  0  0  0  0  0  0  0  0  0
    9.1760    0.0207   20.7311 C   0  0  0  0  0  0  0  0  0  0  0  0
   13.9745   -1.0978   22.9394 C   0  0  0  0  0  0  0  0  0  0  0  0
    7.0889    0.5073   20.0200 C   0  0  0  0  0  0  0  0  0  0  0  0
   11.5465   -0.7035   24.2554 C   0  0  0  0  0  0  0  0  0  0  0  0
    7.9308    0.4262   21.1606 C   0  0  0  0  0  0  0  0  0  0  0  0
    7.8622    0.1434   18.9215 C   0  0  0  0  0  0  0  0  0  0  0  0
    8.7342    0.8557   23.5159 C   0  0  0  0  0  0  0  0  0  0  0  0
    7.5517    0.7211   22.5569 C   0  0  0  0  0  0  0  0  0  0  0  0
   10.2391   -0.4908   24.9623 C   0  0  0  0  0  0  0  0  0  0  0  0
   16.2289   -1.4640   21.7198 N   0  0  0  0  0  0  0  0  0  0  0  0
    7.4687    0.0800   17.6353 N   0  0  0  0  0  0  0  0  0  0  0  0
    9.1231   -0.1474   19.3716 N   0  0  0  0  0  0  0  0  0  0  0  0
    9.1381   -0.3657   24.0362 N   0  0  0  0  0  0  0  0  0  0  0  0
    9.2526    1.9384   23.7765 O   0  0  0  0  0  0  0  0  0  0  0  0
    4.2601    1.0559   18.2322 H   0  0  0  0  0  0  0  0  0  0  0  0
   13.2780   -3.1214   22.6167 H   0  0  0  0  0  0  0  0  0  0  0  0
   14.3786    0.9736   23.4212 H   0  0  0  0  0  0  0  0  0  0  0  0
    5.0843    1.1426   20.5883 H   0  0  0  0  0  0  0  0  0  0  0  0
   11.1380   -2.7698   23.7767 H   0  0  0  0  0  0  0  0  0  0  0  0
   12.2372    1.3173   24.5801 H   0  0  0  0  0  0  0  0  0  0  0  0
    5.8283    0.3746   16.4334 H   0  0  0  0  0  0  0  0  0  0  0  0
   10.0952   -0.1640   21.2696 H   0  0  0  0  0  0  0  0  0  0  0  0
    6.9654    1.6586   22.6194 H   0  0  0  0  0  0  0  0  0  0  0  0
    6.8857   -0.0643   22.9647 H   0  0  0  0  0  0  0  0  0  0  0  0
   10.0220   -1.3293   25.6331 H   0  0  0  0  0  0  0  0  0  0  0  0
   10.2665    0.4167   25.5745 H   0  0  0  0  0  0  0  0  0  0  0  0
    9.8958   -0.4397   18.7896 H   0  0  0  0  0  0  0  0  0  0  0  0
    8.6396   -1.2048   23.7546 H   0  0  0  0  0  0  0  0  0  0  0  0
  1 10  1  0  0  0  0
  1 18  3  0  0  0  0
  2  5  2  0  0  0  0
  2  8  1  0  0  0  0
  3  6  2  0  0  0  0
  3 10  1  0  0  0  0
  4  7  1  0  0  0  0
  4 10  2  0  0  0  0
  5 11  1  0  0  0  0
  6 12  1  0  0  0  0
  7 12  2  0  0  0  0
  8 19  2  0  0  0  0
  9 13  2  0  0  0  0
  9 20  1  0  0  0  0
 11 13  1  0  0  0  0
 11 14  2  0  0  0  0
 12 17  1  0  0  0  0
 13 16  1  0  0  0  0
 14 19  1  0  0  0  0
 14 20  1  0  0  0  0
 15 16  1  0  0  0  0
 15 21  1  0  0  0  0
 15 22  2  0  0  0  0
 17 21  1  0  0  0  0
  2 23  1  0  0  0  0
  3 24  1  0  0  0  0
  4 25  1  0  0  0  0
  5 26  1  0  0  0  0
  6 27  1  0  0  0  0
  7 28  1  0  0  0  0
  8 29  1  0  0  0  0
  9 30  1  0  0  0  0
 16 31  1  0  0  0  0
 16 32  1  0  0  0  0
 17 33  1  0  0  0  0
 17 34  1  0  0  0  0
 20 35  1  0  0  0  0
 21 36  1  0  0  0  0
M  END
> <Hybrid2>
-10.255539

> <fragments>
x0678

> <Mpro-x0678_dock>
-10.255539

> <Mpro-x1077_dock>
-9.792452

> <Mpro-x0749_dock>
-8.891986

> <Mpro-x0161_dock>
-8.564989

> <Mpro-x1385_dock>
-8.182295

> <Mpro-x0104_dock>
-8.063462

> <Mpro-x0107_dock>
-7.92819

> <Mpro-x1392_dock>
-7.806879

> <Mpro-x0397_dock>
-7.656688

> <Mpro-x0774_dock>
-7.643942

> <Mpro-x1412_dock>
-7.594103

> <Mpro-x1093_dock>
-7.522401

> <Mpro-x1334_dock>
-7.321796

> <Mpro-x0946_dock>
-6.774286

> <Mpro-x0195_dock>
-6.605093

> <Mpro-x0072_dock>
-6.517148

> <Mpro-x0434_dock>
-6.402699

> <Mpro-x0759_dock>
-6.38573

> <Mpro-x0831_dock>
-6.160296

> <Mpro-x0387_dock>
-6.09122

> <Mpro-x1458_dock>
-6.009437

> <Mpro-x0830_dock>
-5.982377

> <Mpro-x1311_dock>
-5.813803

> <Mpro-x0874_dock>
-5.725155

> <Mpro-x0692_dock>
-5.636448

> <Mpro-x1386_dock>
-5.598352

> <Mpro-x0770_dock>
-5.581833

> <Mpro-x1249_dock>
-5.5442

> <Mpro-x1374_dock>
-5.482584

> <Mpro-x1348_dock>
-5.410988

> <Mpro-x1418_dock>
-5.398504

> <Mpro-x1187_dock>
-5.18013

> <Mpro-x0967_dock>
-5.072161

> <Mpro-x0734_dock>
-5.056528

> <Mpro-x0395_dock>
-4.738371

> <Mpro-x0736_dock>
-4.573046

> <Mpro-x1375_dock>
-4.572088

> <Mpro-x0820_dock>
-4.50835

> <Mpro-x1493_dock>
-4.461565

> <Mpro-x0305_dock>
-4.073195

> <Mpro-x1478_dock>
-3.998798

> <Mpro-x1358_dock>
-3.957306

> <Mpro-x0708_dock>
-3.866584

> <Mpro-x0354_dock>
-3.824628

> <Mpro-x1351_dock>
-3.561343

> <Mpro-x0540_dock>
-3.349238

> <Mpro-x0731_dock>
-2.904494

> <Mpro-x1384_dock>
-2.622753

> <Mpro-x1308_dock>
-2.501981

> <Mpro-x0771_dock>
-2.103473

> <Mpro-x0426_dock>
-2.066221

> <Mpro-x1425_dock>
-2.029628

> <Mpro-x0691_dock>
-1.91514

> <Mpro-x0705_dock>
-1.901833

> <Mpro-x0755_dock>
-1.729606

> <Mpro-x0769_dock>
-1.59702

> <Mpro-x1402_dock>
-1.586364

> <Mpro-x1382_dock>
-1.421548

> <Mpro-x1380_dock>
-1.274136

> <Mpro-x0689_dock>
-1.227542

> <Mpro-x0786_dock>
-1.223561

> <Mpro-x0752_dock>
-1.186923

> <Mpro-x0887_dock>
-0.773638

> <Mpro-x0981_dock>
-0.596995

> <Mpro-x0978_dock>
-0.230165

> <site>
active-noncovalent

$$$$
BAR-COM-4e0-60
  -OEChem-04022003013D

 37 39  0     0  0  0  0  0  0999 V2000
    6.1260   -6.5802   22.4702 C   0  0  0  0  0  0  0  0  0  0  0  0
    5.1817    1.8232   19.3084 C   0  0  0  0  0  0  0  0  0  0  0  0
    6.2204   -6.3921   23.8490 C   0  0  0  0  0  0  0  0  0  0  0  0
    6.4324   -5.5332   21.6008 C   0  0  0  0  0  0  0  0  0  0  0  0
    5.6385    0.5170   19.2951 C   0  0  0  0  0  0  0  0  0  0  0  0
    6.9275   -4.1100   23.4893 C   0  0  0  0  0  0  0  0  0  0  0  0
    5.4260    2.6044   18.1969 C   0  0  0  0  0  0  0  0  0  0  0  0
    6.6212   -5.1570   24.3586 C   0  0  0  0  0  0  0  0  0  0  0  0
    6.8331   -4.2981   22.1104 C   0  0  0  0  0  0  0  0  0  0  0  0
    6.3092    0.0785   18.1711 C   0  0  0  0  0  0  0  0  0  0  0  0
    7.0699   -3.9023   26.4741 C   0  0  0  0  0  0  0  0  0  0  0  0
    6.6093   -2.9910   19.9606 C   0  0  0  0  0  0  0  0  0  0  0  0
    6.8565   -4.7183   27.7631 C   0  0  0  0  0  0  0  0  0  0  0  0
    6.4672   -5.8818   26.8293 C   0  0  0  0  0  0  0  0  0  0  0  0
    6.8241   -1.3302   18.1046 C   0  0  0  0  0  0  0  0  0  0  0  0
    6.0852    2.1489   17.1105 N   0  0  0  0  0  0  0  0  0  0  0  0
    6.5338    0.8651   17.0974 N   0  0  0  0  0  0  0  0  0  0  0  0
    6.7159   -4.9698   25.7380 N   0  0  0  0  0  0  0  0  0  0  0  0
    7.1395   -3.2513   21.2404 N   0  0  0  0  0  0  0  0  0  0  0  0
    7.1787   -1.8385   19.4097 N   0  0  0  0  0  0  0  0  0  0  0  0
    7.4127   -2.7743   26.2035 O   0  0  0  0  0  0  0  0  0  0  0  0
    5.7614   -3.6644   19.3798 O   0  0  0  0  0  0  0  0  0  0  0  0
    5.8150   -7.5421   22.0733 H   0  0  0  0  0  0  0  0  0  0  0  0
    4.6488    2.2199   20.1649 H   0  0  0  0  0  0  0  0  0  0  0  0
    5.9783   -7.2152   24.5167 H   0  0  0  0  0  0  0  0  0  0  0  0
    6.3541   -5.6916   20.5282 H   0  0  0  0  0  0  0  0  0  0  0  0
    5.4705   -0.1339   20.1464 H   0  0  0  0  0  0  0  0  0  0  0  0
    7.2398   -3.1465   23.8869 H   0  0  0  0  0  0  0  0  0  0  0  0
    5.0941    3.6348   18.1460 H   0  0  0  0  0  0  0  0  0  0  0  0
    7.7679   -4.8709   28.3463 H   0  0  0  0  0  0  0  0  0  0  0  0
    6.0533   -4.3393   28.3995 H   0  0  0  0  0  0  0  0  0  0  0  0
    7.1437   -6.7409   26.8461 H   0  0  0  0  0  0  0  0  0  0  0  0
    5.4260   -6.2086   26.8992 H   0  0  0  0  0  0  0  0  0  0  0  0
    6.0683   -1.9978   17.6766 H   0  0  0  0  0  0  0  0  0  0  0  0
    7.7126   -1.3942   17.4676 H   0  0  0  0  0  0  0  0  0  0  0  0
    7.8401   -2.5752   21.5618 H   0  0  0  0  0  0  0  0  0  0  0  0
    7.8738   -1.3354   19.9523 H   0  0  0  0  0  0  0  0  0  0  0  0
  1  3  1  0  0  0  0
  1  4  2  0  0  0  0
  2  5  2  0  0  0  0
  2  7  1  0  0  0  0
  3  8  2  0  0  0  0
  4  9  1  0  0  0  0
  5 10  1  0  0  0  0
  6  8  1  0  0  0  0
  6  9  2  0  0  0  0
  7 16  2  0  0  0  0
  8 18  1  0  0  0  0
  9 19  1  0  0  0  0
 10 15  1  0  0  0  0
 10 17  2  0  0  0  0
 11 13  1  0  0  0  0
 11 18  1  0  0  0  0
 11 21  2  0  0  0  0
 12 19  1  0  0  0  0
 12 20  1  0  0  0  0
 12 22  2  0  0  0  0
 13 14  1  0  0  0  0
 14 18  1  0  0  0  0
 15 20  1  0  0  0  0
 16 17  1  0  0  0  0
  1 23  1  0  0  0  0
  2 24  1  0  0  0  0
  3 25  1  0  0  0  0
  4 26  1  0  0  0  0
  5 27  1  0  0  0  0
  6 28  1  0  0  0  0
  7 29  1  0  0  0  0
 13 30  1  0  0  0  0
 13 31  1  0  0  0  0
 14 32  1  0  0  0  0
 14 33  1  0  0  0  0
 15 34  1  0  0  0  0
 15 35  1  0  0  0  0
 19 36  1  0  0  0  0
 20 37  1  0  0  0  0
M  END
> <Hybrid2>
-10.245558

> <fragments>
x0397

> <Mpro-x0397_dock>
-10.245558

> <Mpro-x0195_dock>
-8.776148

> <Mpro-x0749_dock>
-7.594732

> <Mpro-x0107_dock>
-7.443611

> <Mpro-x0678_dock>
-7.143356

> <Mpro-x0104_dock>
-7.043513

> <Mpro-x1093_dock>
-7.043211

> <Mpro-x0161_dock>
-6.907454

> <Mpro-x1077_dock>
-6.647281

> <Mpro-x0946_dock>
-6.320424

> <Mpro-x0967_dock>
-6.225634

> <Mpro-x0830_dock>
-6.089013

> <Mpro-x0874_dock>
-5.749286

> <Mpro-x0072_dock>
-5.562501

> <Mpro-x1187_dock>
-5.474072

> <Mpro-x1385_dock>
-5.404995

> <Mpro-x0434_dock>
-5.02106

> <Mpro-x0692_dock>
-4.657015

> <Mpro-x1334_dock>
-4.209187

> <Mpro-x1392_dock>
-4.034871

> <Mpro-x0831_dock>
-3.9825

> <Mpro-x1418_dock>
-3.610778

> <Mpro-x1311_dock>
-3.498902

> <Mpro-x0708_dock>
-3.370243

> <Mpro-x1348_dock>
-3.030916

> <Mpro-x1249_dock>
-3.02194

> <Mpro-x0387_dock>
-2.967938

> <Mpro-x1358_dock>
-2.936213

> <Mpro-x0426_dock>
-2.906797

> <Mpro-x0395_dock>
-2.836662

> <Mpro-x1412_dock>
-2.82202

> <Mpro-x0305_dock>
-2.788334

> <Mpro-x1380_dock>
-2.446405

> <Mpro-x1493_dock>
-2.435312

> <Mpro-x1375_dock>
-2.364008

> <Mpro-x0354_dock>
-2.257768

> <Mpro-x1374_dock>
-2.179882

> <Mpro-x0981_dock>
-2.159187

> <Mpro-x0736_dock>
-2.053076

> <Mpro-x0540_dock>
-1.876827

> <Mpro-x1351_dock>
-1.670457

> <Mpro-x1386_dock>
-1.553813

> <Mpro-x0734_dock>
-1.372949

> <Mpro-x1384_dock>
-1.36904

> <Mpro-x1478_dock>
-1.297267

> <Mpro-x0771_dock>
-1.296754

> <Mpro-x0887_dock>
-1.282182

> <Mpro-x0759_dock>
-1.27853

> <Mpro-x0770_dock>
-1.083424

> <Mpro-x0786_dock>
-0.554011

> <Mpro-x1425_dock>
-0.536371

> <Mpro-x0752_dock>
-0.40223

> <Mpro-x1458_dock>
-0.150508

> <Mpro-x0769_dock>
-0.106428

> <Mpro-x0774_dock>
-0.022961

> <Mpro-x0691_dock>
0.058843

> <Mpro-x0731_dock>
0.194147

> <Mpro-x0820_dock>
0.411696

> <Mpro-x1308_dock>
0.533114

> <Mpro-x0689_dock>
0.739006

> <Mpro-x0705_dock>
0.997744

> <Mpro-x1402_dock>
1.072144

> <Mpro-x0755_dock>
1.116957

> <Mpro-x1382_dock>
1.234276

> <Mpro-x0978_dock>
1.46643

> <site>
active-noncovalent

$$$$
BAR-COM-4e0-47
  -OEChem-04022003013D

 48 50  0     0  0  0  0  0  0999 V2000
   10.1320    6.4931   23.3470 C   0  0  0  0  0  0  0  0  0  0  0  0
   11.2802    5.7017   23.3192 C   0  0  0  0  0  0  0  0  0  0  0  0
    8.8720    5.8958   23.3070 C   0  0  0  0  0  0  0  0  0  0  0  0
    5.6864    1.3776   19.3339 C   0  0  0  0  0  0  0  0  0  0  0  0
   11.1686    4.3130   23.2514 C   0  0  0  0  0  0  0  0  0  0  0  0
    8.7604    4.5071   23.2391 C   0  0  0  0  0  0  0  0  0  0  0  0
    6.3445    0.9574   20.4844 C   0  0  0  0  0  0  0  0  0  0  0  0
    6.2279    1.0199   18.1097 C   0  0  0  0  0  0  0  0  0  0  0  0
    7.9674   -0.1023   19.1063 C   0  0  0  0  0  0  0  0  0  0  0  0
   14.8851   -1.5425   23.4336 C   0  0  0  0  0  0  0  0  0  0  0  0
    9.9087    3.7156   23.2113 C   0  0  0  0  0  0  0  0  0  0  0  0
    7.5075    0.2030   20.3771 C   0  0  0  0  0  0  0  0  0  0  0  0
   13.6550   -1.0974   23.0190 C   0  0  0  0  0  0  0  0  0  0  0  0
   10.7204   -0.6250   21.6258 C   0  0  0  0  0  0  0  0  0  0  0  0
   15.6985   -2.2037   25.7197 C   0  0  0  0  0  0  0  0  0  0  0  0
    9.7872    2.2133   23.1376 C   0  0  0  0  0  0  0  0  0  0  0  0
    8.2407   -0.2662   21.6004 C   0  0  0  0  0  0  0  0  0  0  0  0
   13.2041   -0.7142   21.6392 C   0  0  0  0  0  0  0  0  0  0  0  0
    9.7520    1.6883   21.7045 C   0  0  0  0  0  0  0  0  0  0  0  0
    7.3555    0.2882   17.9657 N   0  0  0  0  0  0  0  0  0  0  0  0
   12.8042   -1.0366   24.0877 N   0  0  0  0  0  0  0  0  0  0  0  0
   13.4732   -1.4329   25.1650 N   0  0  0  0  0  0  0  0  0  0  0  0
   14.7206   -1.7356   24.7707 N   0  0  0  0  0  0  0  0  0  0  0  0
   11.9562    0.0150   21.6608 N   0  0  0  0  0  0  0  0  0  0  0  0
    9.6077    0.2360   21.6429 N   0  0  0  0  0  0  0  0  0  0  0  0
   10.6204   -1.8546   21.5740 O   0  0  0  0  0  0  0  0  0  0  0  0
   10.2190    7.5744   23.4012 H   0  0  0  0  0  0  0  0  0  0  0  0
   12.2613    6.1665   23.3515 H   0  0  0  0  0  0  0  0  0  0  0  0
    7.9778    6.5116   23.3297 H   0  0  0  0  0  0  0  0  0  0  0  0
    4.7781    1.9663   19.3935 H   0  0  0  0  0  0  0  0  0  0  0  0
   12.0687    3.7043   23.2300 H   0  0  0  0  0  0  0  0  0  0  0  0
    7.7747    4.0505   23.2082 H   0  0  0  0  0  0  0  0  0  0  0  0
    5.9441    1.2220   21.4593 H   0  0  0  0  0  0  0  0  0  0  0  0
    5.7524    1.3235   17.1829 H   0  0  0  0  0  0  0  0  0  0  0  0
    8.8697   -0.6880   18.9600 H   0  0  0  0  0  0  0  0  0  0  0  0
   15.8172   -1.7308   22.9198 H   0  0  0  0  0  0  0  0  0  0  0  0
   16.2240   -1.3327   26.1200 H   0  0  0  0  0  0  0  0  0  0  0  0
   15.1946   -2.7486   26.5229 H   0  0  0  0  0  0  0  0  0  0  0  0
   16.3986   -2.8757   25.2155 H   0  0  0  0  0  0  0  0  0  0  0  0
    8.8682    1.9126   23.6566 H   0  0  0  0  0  0  0  0  0  0  0  0
   10.6125    1.7468   23.6906 H   0  0  0  0  0  0  0  0  0  0  0  0
    7.7296    0.0695   22.5094 H   0  0  0  0  0  0  0  0  0  0  0  0
    8.2845   -1.3598   21.6370 H   0  0  0  0  0  0  0  0  0  0  0  0
   13.9544   -0.0842   21.1489 H   0  0  0  0  0  0  0  0  0  0  0  0
   13.0632   -1.6004   21.0115 H   0  0  0  0  0  0  0  0  0  0  0  0
    8.8951    2.1135   21.1725 H   0  0  0  0  0  0  0  0  0  0  0  0
   10.6610    1.9535   21.1546 H   0  0  0  0  0  0  0  0  0  0  0  0
   11.9818    1.0268   21.7030 H   0  0  0  0  0  0  0  0  0  0  0  0
  1  2  1  0  0  0  0
  1  3  2  0  0  0  0
  2  5  2  0  0  0  0
  3  6  1  0  0  0  0
  4  7  2  0  0  0  0
  4  8  1  0  0  0  0
  5 11  1  0  0  0  0
  6 11  2  0  0  0  0
  7 12  1  0  0  0  0
  8 20  2  0  0  0  0
  9 12  2  0  0  0  0
  9 20  1  0  0  0  0
 10 13  2  0  0  0  0
 10 23  1  0  0  0  0
 11 16  1  0  0  0  0
 12 17  1  0  0  0  0
 13 18  1  0  0  0  0
 13 21  1  0  0  0  0
 14 24  1  0  0  0  0
 14 25  1  0  0  0  0
 14 26  2  0  0  0  0
 15 23  1  0  0  0  0
 16 19  1  0  0  0  0
 17 25  1  0  0  0  0
 18 24  1  0  0  0  0
 19 25  1  0  0  0  0
 21 22  2  0  0  0  0
 22 23  1  0  0  0  0
  1 27  1  0  0  0  0
  2 28  1  0  0  0  0
  3 29  1  0  0  0  0
  4 30  1  0  0  0  0
  5 31  1  0  0  0  0
  6 32  1  0  0  0  0
  7 33  1  0  0  0  0
  8 34  1  0  0  0  0
  9 35  1  0  0  0  0
 10 36  1  0  0  0  0
 15 37  1  0  0  0  0
 15 38  1  0  0  0  0
 15 39  1  0  0  0  0
 16 40  1  0  0  0  0
 16 41  1  0  0  0  0
 17 42  1  0  0  0  0
 17 43  1  0  0  0  0
 18 44  1  0  0  0  0
 18 45  1  0  0  0  0
 19 46  1  0  0  0  0
 19 47  1  0  0  0  0
 24 48  1  0  0  0  0
M  END
> <Hybrid2>
-10.219568

> <fragments>
x0678

> <Mpro-x0678_dock>
-10.219568

> <Mpro-x0107_dock>
-8.615365

> <Mpro-x0967_dock>
-7.526193

> <Mpro-x0434_dock>
-7.415563

> <Mpro-x1093_dock>
-6.845838

> <Mpro-x0397_dock>
-6.715467

> <Mpro-x0195_dock>
-6.594805

> <Mpro-x1077_dock>
-5.927277

> <Mpro-x0749_dock>
-5.813755

> <Mpro-x0161_dock>
-5.651948

> <Mpro-x1386_dock>
-5.593738

> <Mpro-x0874_dock>
-5.396478

> <Mpro-x0946_dock>
-5.098097

> <Mpro-x0072_dock>
-5.06142

> <Mpro-x0736_dock>
-4.775106

> <Mpro-x0831_dock>
-4.674538

> <Mpro-x1418_dock>
-4.445882

> <Mpro-x0692_dock>
-4.049305

> <Mpro-x1392_dock>
-3.980896

> <Mpro-x1385_dock>
-3.858692

> <Mpro-x0708_dock>
-3.845734

> <Mpro-x0387_dock>
-3.455355

> <Mpro-x0759_dock>
-3.368127

> <Mpro-x1412_dock>
-3.265965

> <Mpro-x0770_dock>
-3.217831

> <Mpro-x0774_dock>
-3.074059

> <Mpro-x1425_dock>
-2.90935

> <Mpro-x1375_dock>
-2.719003

> <Mpro-x1311_dock>
-2.70841

> <Mpro-x0830_dock>
-2.545036

> <Mpro-x0104_dock>
-2.446265

> <Mpro-x0305_dock>
-2.444422

> <Mpro-x0395_dock>
-2.378321

> <Mpro-x0691_dock>
-2.122441

> <Mpro-x1308_dock>
-1.98835

> <Mpro-x1334_dock>
-1.987741

> <Mpro-x0426_dock>
-1.943055

> <Mpro-x0786_dock>
-1.743553

> <Mpro-x1187_dock>
-1.724787

> <Mpro-x1358_dock>
-1.723656

> <Mpro-x0731_dock>
-1.655814

> <Mpro-x0354_dock>
-1.497413

> <Mpro-x1249_dock>
-1.440325

> <Mpro-x0540_dock>
-1.35148

> <Mpro-x1380_dock>
-1.293347

> <Mpro-x0769_dock>
-1.243532

> <Mpro-x0734_dock>
-1.227557

> <Mpro-x0755_dock>
-1.17249

> <Mpro-x1374_dock>
-0.642558

> <Mpro-x1351_dock>
-0.580779

> <Mpro-x1458_dock>
-0.473662

> <Mpro-x1348_dock>
-0.471042

> <Mpro-x0752_dock>
-0.28736

> <Mpro-x0689_dock>
-0.246671

> <Mpro-x0820_dock>
0.254081

> <Mpro-x0771_dock>
0.343899

> <Mpro-x1382_dock>
0.439059

> <Mpro-x0705_dock>
0.671495

> <Mpro-x1402_dock>
0.824945

> <Mpro-x0887_dock>
0.991822

> <Mpro-x1493_dock>
1.360246

> <Mpro-x1478_dock>
1.369483

> <Mpro-x1384_dock>
1.728967

> <Mpro-x0981_dock>
1.879665

> <Mpro-x0978_dock>
3.48158

> <site>
active-noncovalent

$$$$
DAR-DIA-23a-17
  -OEChem-04022003013D

 28 29  0     0  0  0  0  0  0999 V2000
   13.6228   -0.4992   22.7815 C   0  0  0  0  0  0  0  0  0  0  0  0
    5.7055    1.4959   18.5525 C   0  0  0  0  0  0  0  0  0  0  0  0
    6.0807    1.0731   19.8228 C   0  0  0  0  0  0  0  0  0  0  0  0
   11.2068   -0.8960   22.9257 C   0  0  0  0  0  0  0  0  0  0  0  0
    6.4474    1.0440   17.4731 C   0  0  0  0  0  0  0  0  0  0  0  0
   12.3591   -0.0629   24.8323 C   0  0  0  0  0  0  0  0  0  0  0  0
   10.0962   -0.4320   24.9769 C   0  0  0  0  0  0  0  0  0  0  0  0
    7.8472   -0.1718   18.8298 C   0  0  0  0  0  0  0  0  0  0  0  0
   12.3983   -0.4855   23.5133 C   0  0  0  0  0  0  0  0  0  0  0  0
   10.0292   -0.8717   23.6647 C   0  0  0  0  0  0  0  0  0  0  0  0
    7.1710    0.2233   19.9728 C   0  0  0  0  0  0  0  0  0  0  0  0
    8.6403   -1.0694   21.5588 C   0  0  0  0  0  0  0  0  0  0  0  0
    8.7388   -1.3055   23.0654 C   0  0  0  0  0  0  0  0  0  0  0  0
   14.6189   -0.5102   22.1862 N   0  0  0  0  0  0  0  0  0  0  0  0
    7.5124    0.2181   17.5794 N   0  0  0  0  0  0  0  0  0  0  0  0
   11.2348   -0.0255   25.5819 N   0  0  0  0  0  0  0  0  0  0  0  0
    7.5770   -0.2237   21.2528 N   0  0  0  0  0  0  0  0  0  0  0  0
    9.4264   -1.5887   20.7730 O   0  0  0  0  0  0  0  0  0  0  0  0
    4.8589    2.1582   18.4119 H   0  0  0  0  0  0  0  0  0  0  0  0
    5.5171    1.4115   20.6883 H   0  0  0  0  0  0  0  0  0  0  0  0
   11.1897   -1.2368   21.8928 H   0  0  0  0  0  0  0  0  0  0  0  0
    6.1958    1.3456   16.4617 H   0  0  0  0  0  0  0  0  0  0  0  0
   13.2550    0.2705   25.3483 H   0  0  0  0  0  0  0  0  0  0  0  0
    9.2095   -0.3891   25.6021 H   0  0  0  0  0  0  0  0  0  0  0  0
    8.7060   -0.8344   18.8826 H   0  0  0  0  0  0  0  0  0  0  0  0
    8.5679   -2.3803   23.2506 H   0  0  0  0  0  0  0  0  0  0  0  0
    7.8946   -0.7817   23.5466 H   0  0  0  0  0  0  0  0  0  0  0  0
    7.0280    0.1120   22.0414 H   0  0  0  0  0  0  0  0  0  0  0  0
  1  9  1  0  0  0  0
  1 14  3  0  0  0  0
  2  3  2  0  0  0  0
  2  5  1  0  0  0  0
  3 11  1  0  0  0  0
  4  9  2  0  0  0  0
  4 10  1  0  0  0  0
  5 15  2  0  0  0  0
  6  9  1  0  0  0  0
  6 16  2  0  0  0  0
  7 10  2  0  0  0  0
  7 16  1  0  0  0  0
  8 11  2  0  0  0  0
  8 15  1  0  0  0  0
 10 13  1  0  0  0  0
 11 17  1  0  0  0  0
 12 13  1  0  0  0  0
 12 17  1  0  0  0  0
 12 18  2  0  0  0  0
  2 19  1  0  0  0  0
  3 20  1  0  0  0  0
  4 21  1  0  0  0  0
  5 22  1  0  0  0  0
  6 23  1  0  0  0  0
  7 24  1  0  0  0  0
  8 25  1  0  0  0  0
 13 26  1  0  0  0  0
 13 27  1  0  0  0  0
 17 28  1  0  0  0  0
M  END
> <Hybrid2>
-10.204250

> <fragments>
x0678

> <Mpro-x0678_dock>
-10.20425

> <Mpro-x0397_dock>
-9.106993

> <Mpro-x0107_dock>
-8.757595

> <Mpro-x1093_dock>
-8.704556

> <Mpro-x0104_dock>
-8.094498

> <Mpro-x0195_dock>
-7.283627

> <Mpro-x0749_dock>
-7.208405

> <Mpro-x0946_dock>
-7.055508

> <Mpro-x1334_dock>
-6.768854

> <Mpro-x1077_dock>
-6.662136

> <Mpro-x1311_dock>
-6.568547

> <Mpro-x0830_dock>
-6.395646

> <Mpro-x0831_dock>
-6.274673

> <Mpro-x0161_dock>
-6.192813

> <Mpro-x0072_dock>
-6.143416

> <Mpro-x0967_dock>
-6.055706

> <Mpro-x1392_dock>
-5.915942

> <Mpro-x0708_dock>
-5.912073

> <Mpro-x1375_dock>
-5.844322

> <Mpro-x0434_dock>
-5.814838

> <Mpro-x0692_dock>
-5.787533

> <Mpro-x0759_dock>
-5.571284

> <Mpro-x1418_dock>
-5.388599

> <Mpro-x0774_dock>
-5.273526

> <Mpro-x1385_dock>
-5.257256

> <Mpro-x1374_dock>
-5.234044

> <Mpro-x1348_dock>
-5.160779

> <Mpro-x0874_dock>
-5.02574

> <Mpro-x0540_dock>
-5.024019

> <Mpro-x0770_dock>
-5.003839

> <Mpro-x0426_dock>
-4.931707

> <Mpro-x1386_dock>
-4.752677

> <Mpro-x0395_dock>
-4.680982

> <Mpro-x0387_dock>
-4.573607

> <Mpro-x1382_dock>
-4.323198

> <Mpro-x1187_dock>
-4.295146

> <Mpro-x1493_dock>
-4.139231

> <Mpro-x1478_dock>
-4.036611

> <Mpro-x0736_dock>
-4.029133

> <Mpro-x1249_dock>
-4.01004

> <Mpro-x0354_dock>
-3.797859

> <Mpro-x1412_dock>
-3.611902

> <Mpro-x1358_dock>
-3.401992

> <Mpro-x0820_dock>
-3.380734

> <Mpro-x0734_dock>
-3.311995

> <Mpro-x1380_dock>
-3.279962

> <Mpro-x0752_dock>
-3.260982

> <Mpro-x1458_dock>
-2.558969

> <Mpro-x1425_dock>
-2.530403

> <Mpro-x0305_dock>
-2.525043

> <Mpro-x1384_dock>
-2.512162

> <Mpro-x0786_dock>
-2.158084

> <Mpro-x0887_dock>
-2.146801

> <Mpro-x0755_dock>
-2.116549

> <Mpro-x1351_dock>
-2.007931

> <Mpro-x0771_dock>
-2.005426

> <Mpro-x0769_dock>
-1.878486

> <Mpro-x0691_dock>
-1.841469

> <Mpro-x0689_dock>
-1.621246

> <Mpro-x0981_dock>
-1.562405

> <Mpro-x1308_dock>
-1.512801

> <Mpro-x0705_dock>
-1.258949

> <Mpro-x0731_dock>
-1.157851

> <Mpro-x1402_dock>
-1.025525

> <Mpro-x0978_dock>
-0.759364

> <site>
active-noncovalent

$$$$
BAR-COM-4e0-68
  -OEChem-04022003013D

 36 38  0     1  0  0  0  0  0999 V2000
   14.3396   -0.7922   21.9038 C   0  0  0  0  0  0  0  0  0  0  0  0
    9.6024    6.8528   23.6227 C   0  0  0  0  0  0  0  0  0  0  0  0
   13.2229   -1.4797   22.3791 C   0  0  0  0  0  0  0  0  0  0  0  0
   10.5622    5.9800   23.1223 C   0  0  0  0  0  0  0  0  0  0  0  0
   14.3999    0.5974   22.0086 C   0  0  0  0  0  0  0  0  0  0  0  0
   10.1852   -1.1044   24.5176 C   0  0  0  0  0  0  0  0  0  0  0  0
   12.2266    0.6121   23.0639 C   0  0  0  0  0  0  0  0  0  0  0  0
    9.9607    7.6740   24.6796 C   0  0  0  0  0  0  0  0  0  0  0  0
   12.0915    6.8171   24.7400 C   0  0  0  0  0  0  0  0  0  0  0  0
    9.2401   -2.0984   24.5897 C   0  0  0  0  0  0  0  0  0  0  0  0
   12.1664   -0.7776   22.9591 C   0  0  0  0  0  0  0  0  0  0  0  0
   11.8330    5.9556   23.6861 C   0  0  0  0  0  0  0  0  0  0  0  0
   13.3433    1.2996   22.5886 C   0  0  0  0  0  0  0  0  0  0  0  0
   11.0169   -1.4864   23.4479 C   0  0  0  0  0  0  0  0  0  0  0  0
   12.4511    3.5612   23.2432 C   0  0  0  0  0  0  0  0  0  0  0  0
   12.8982    5.0192   23.1645 C   0  0  1  0  0  0  0  0  0  0  0  0
   11.1848    7.6787   25.2532 N   0  0  0  0  0  0  0  0  0  0  0  0
   10.6339   -2.6337   22.8813 N   0  0  0  0  0  0  0  0  0  0  0  0
    9.5513   -2.9812   23.5977 N   0  0  0  0  0  0  0  0  0  0  0  0
   13.4038    2.6897   22.6928 N   0  0  0  0  0  0  0  0  0  0  0  0
   11.3669    3.2519   23.7291 O   0  0  0  0  0  0  0  0  0  0  0  0
   13.1825    5.3570   21.8149 O   0  0  0  0  0  0  0  0  0  0  0  0
   15.1621   -1.3392   21.4524 H   0  0  0  0  0  0  0  0  0  0  0  0
    8.6055    6.8892   23.1987 H   0  0  0  0  0  0  0  0  0  0  0  0
   13.1913   -2.5633   22.2914 H   0  0  0  0  0  0  0  0  0  0  0  0
   10.3115    5.3234   22.2936 H   0  0  0  0  0  0  0  0  0  0  0  0
   15.2749    1.1230   21.6343 H   0  0  0  0  0  0  0  0  0  0  0  0
   10.2549   -0.2325   25.1522 H   0  0  0  0  0  0  0  0  0  0  0  0
   11.4047    1.1644   23.5161 H   0  0  0  0  0  0  0  0  0  0  0  0
    9.2478    8.3721   25.1059 H   0  0  0  0  0  0  0  0  0  0  0  0
   13.0649    6.8429   25.2200 H   0  0  0  0  0  0  0  0  0  0  0  0
    8.3931   -2.2531   25.2425 H   0  0  0  0  0  0  0  0  0  0  0  0
   13.8299    5.1414   23.7300 H   0  0  0  0  0  0  0  0  0  0  0  0
    9.0701   -3.8378   23.3536 H   0  0  0  0  0  0  0  0  0  0  0  0
   14.2516    3.1353   22.3243 H   0  0  0  0  0  0  0  0  0  0  0  0
   12.3538    5.2549   21.3187 H   0  0  0  0  0  0  0  0  0  0  0  0
  1  3  1  0  0  0  0
  1  5  2  0  0  0  0
  2  4  2  0  0  0  0
  2  8  1  0  0  0  0
  3 11  2  0  0  0  0
  4 12  1  0  0  0  0
  5 13  1  0  0  0  0
  6 10  2  0  0  0  0
  6 14  1  0  0  0  0
  7 11  1  0  0  0  0
  7 13  2  0  0  0  0
  8 17  2  0  0  0  0
  9 12  2  0  0  0  0
  9 17  1  0  0  0  0
 10 19  1  0  0  0  0
 11 14  1  0  0  0  0
 12 16  1  0  0  0  0
 13 20  1  0  0  0  0
 14 18  2  0  0  0  0
 15 16  1  0  0  0  0
 15 20  1  0  0  0  0
 15 21  2  0  0  0  0
 16 22  1  0  0  0  0
 18 19  1  0  0  0  0
  1 23  1  0  0  0  0
  2 24  1  0  0  0  0
  3 25  1  0  0  0  0
  4 26  1  0  0  0  0
  5 27  1  0  0  0  0
  6 28  1  0  0  0  0
  7 29  1  0  0  0  0
  8 30  1  0  0  0  0
  9 31  1  0  0  0  0
 10 32  1  0  0  0  0
 16 33  1  0  0  0  0
 19 34  1  0  0  0  0
 20 35  1  0  0  0  0
 22 36  1  0  0  0  0
M  END
> <Hybrid2>
-10.195171

> <fragments>
x0195

> <Mpro-x0195_dock>
-10.195171

> <Mpro-x0749_dock>
-9.435439

> <Mpro-x0107_dock>
-9.271053

> <Mpro-x0104_dock>
-9.179114

> <Mpro-x0678_dock>
-8.930996

> <Mpro-x0397_dock>
-8.902431

> <Mpro-x0946_dock>
-8.018198

> <Mpro-x1093_dock>
-7.907517

> <Mpro-x0072_dock>
-7.644091

> <Mpro-x0830_dock>
-7.63615

> <Mpro-x0387_dock>
-7.266159

> <Mpro-x1077_dock>
-7.018928

> <Mpro-x0434_dock>
-6.988405

> <Mpro-x1412_dock>
-6.485341

> <Mpro-x1385_dock>
-6.426528

> <Mpro-x0831_dock>
-6.32909

> <Mpro-x0874_dock>
-6.253106

> <Mpro-x0161_dock>
-5.942247

> <Mpro-x1334_dock>
-5.814363

> <Mpro-x1392_dock>
-5.777657

> <Mpro-x1418_dock>
-5.726598

> <Mpro-x0305_dock>
-5.564715

> <Mpro-x1375_dock>
-5.562718

> <Mpro-x1187_dock>
-5.501086

> <Mpro-x1249_dock>
-5.430285

> <Mpro-x0692_dock>
-4.880731

> <Mpro-x1386_dock>
-4.763632

> <Mpro-x1358_dock>
-4.749289

> <Mpro-x0395_dock>
-4.598068

> <Mpro-x0967_dock>
-4.580898

> <Mpro-x0759_dock>
-4.54796

> <Mpro-x1493_dock>
-4.449884

> <Mpro-x0708_dock>
-4.415586

> <Mpro-x1458_dock>
-4.403267

> <Mpro-x0354_dock>
-4.314411

> <Mpro-x0736_dock>
-4.174027

> <Mpro-x1311_dock>
-3.935174

> <Mpro-x1380_dock>
-3.67256

> <Mpro-x1348_dock>
-3.633158

> <Mpro-x0770_dock>
-3.327157

> <Mpro-x1351_dock>
-3.122576

> <Mpro-x0981_dock>
-2.947925

> <Mpro-x0426_dock>
-2.725467

> <Mpro-x0734_dock>
-2.596748

> <Mpro-x0887_dock>
-2.363937

> <Mpro-x0774_dock>
-2.25222

> <Mpro-x1374_dock>
-2.120011

> <Mpro-x1384_dock>
-1.815703

> <Mpro-x1478_dock>
-1.787855

> <Mpro-x1425_dock>
-1.779202

> <Mpro-x0769_dock>
-1.736289

> <Mpro-x0731_dock>
-1.71126

> <Mpro-x0786_dock>
-1.621933

> <Mpro-x0540_dock>
-1.498748

> <Mpro-x0752_dock>
-1.27551

> <Mpro-x1308_dock>
-1.261719

> <Mpro-x0691_dock>
-1.085189

> <Mpro-x0820_dock>
-1.000176

> <Mpro-x1382_dock>
-0.907941

> <Mpro-x1402_dock>
-0.579339

> <Mpro-x0978_dock>
-0.504919

> <Mpro-x0771_dock>
-0.202623

> <Mpro-x0689_dock>
-0.068608

> <Mpro-x0705_dock>
0.912569

> <Mpro-x0755_dock>
1.070716

> <site>
active-noncovalent

$$$$
BAR-COM-4e0-23
  -OEChem-04022003013D

 47 50  0     0  0  0  0  0  0999 V2000
   14.3987   -2.0665   23.1663 C   0  0  0  0  0  0  0  0  0  0  0  0
   10.3569    6.0932   24.5603 C   0  0  0  0  0  0  0  0  0  0  0  0
   13.0619   -2.4615   23.2162 C   0  0  0  0  0  0  0  0  0  0  0  0
   14.7224   -0.7183   23.0138 C   0  0  0  0  0  0  0  0  0  0  0  0
   11.0764    5.7672   23.4241 C   0  0  0  0  0  0  0  0  0  0  0  0
   12.3724   -0.1601   22.9611 C   0  0  0  0  0  0  0  0  0  0  0  0
   11.0370    6.1552   25.7599 C   0  0  0  0  0  0  0  0  0  0  0  0
    8.7262   -2.9275   22.6344 C   0  0  0  0  0  0  0  0  0  0  0  0
   12.0487   -1.5083   23.1136 C   0  0  0  0  0  0  0  0  0  0  0  0
   13.7092    0.2349   22.9112 C   0  0  0  0  0  0  0  0  0  0  0  0
    8.4845   -2.1589   23.7476 C   0  0  0  0  0  0  0  0  0  0  0  0
   12.4283    5.5252   23.5626 C   0  0  0  0  0  0  0  0  0  0  0  0
   10.6254   -1.9280   23.1674 C   0  0  0  0  0  0  0  0  0  0  0  0
   13.1650    2.6866   22.6396 C   0  0  0  0  0  0  0  0  0  0  0  0
    7.2801   -1.9457   24.5749 C   0  0  0  0  0  0  0  0  0  0  0  0
    7.4098   -0.6978   25.4499 C   0  0  0  0  0  0  0  0  0  0  0  0
    8.7636   -0.6554   26.1617 C   0  0  0  0  0  0  0  0  0  0  0  0
    9.9036   -0.5973   25.1483 C   0  0  0  0  0  0  0  0  0  0  0  0
   13.2555    5.1692   22.3613 C   0  0  0  0  0  0  0  0  0  0  0  0
   12.3608    5.9135   25.8662 N   0  0  0  0  0  0  0  0  0  0  0  0
   13.0679    5.5935   24.7494 N   0  0  0  0  0  0  0  0  0  0  0  0
    9.6992   -1.5462   24.0582 N   0  0  0  0  0  0  0  0  0  0  0  0
   10.0463   -2.7649   22.3028 N   0  3  0  0  0  0  0  0  0  0  0  0
   14.0340    1.5833   22.7587 N   0  0  0  0  0  0  0  0  0  0  0  0
   13.8862    3.8771   22.5028 N   0  0  0  0  0  0  0  0  0  0  0  0
   11.9371    2.6429   22.6508 O   0  0  0  0  0  0  0  0  0  0  0  0
   15.1877   -2.8089   23.2453 H   0  0  0  0  0  0  0  0  0  0  0  0
    9.2929    6.2934   24.5094 H   0  0  0  0  0  0  0  0  0  0  0  0
   12.8190   -3.5142   23.3355 H   0  0  0  0  0  0  0  0  0  0  0  0
   15.7676   -0.4217   22.9766 H   0  0  0  0  0  0  0  0  0  0  0  0
   10.5843    5.7056   22.4593 H   0  0  0  0  0  0  0  0  0  0  0  0
   11.5802    0.5809   22.8804 H   0  0  0  0  0  0  0  0  0  0  0  0
   10.5303    6.4050   26.6848 H   0  0  0  0  0  0  0  0  0  0  0  0
    8.1409   -3.5840   22.0209 H   0  0  0  0  0  0  0  0  0  0  0  0
    6.4012   -1.8590   23.9272 H   0  0  0  0  0  0  0  0  0  0  0  0
    7.1449   -2.8310   25.2069 H   0  0  0  0  0  0  0  0  0  0  0  0
    7.2985    0.2019   24.8313 H   0  0  0  0  0  0  0  0  0  0  0  0
    6.5988   -0.6826   26.1867 H   0  0  0  0  0  0  0  0  0  0  0  0
    8.8163    0.2115   26.8288 H   0  0  0  0  0  0  0  0  0  0  0  0
    8.8719   -1.5521   26.7848 H   0  0  0  0  0  0  0  0  0  0  0  0
    9.9654    0.4025   24.7035 H   0  0  0  0  0  0  0  0  0  0  0  0
   10.8553   -0.8154   25.6440 H   0  0  0  0  0  0  0  0  0  0  0  0
   12.6349    5.1446   21.4588 H   0  0  0  0  0  0  0  0  0  0  0  0
   14.0441    5.9101   22.1936 H   0  0  0  0  0  0  0  0  0  0  0  0
   10.5118   -3.2121   21.5176 H   0  0  0  0  0  0  0  0  0  0  0  0
   15.0322    1.8161   22.7284 H   0  0  0  0  0  0  0  0  0  0  0  0
   14.9003    3.8311   22.5029 H   0  0  0  0  0  0  0  0  0  0  0  0
  1  3  1  0  0  0  0
  1  4  2  0  0  0  0
  2  5  2  0  0  0  0
  2  7  1  0  0  0  0
  3  9  2  0  0  0  0
  4 10  1  0  0  0  0
  5 12  1  0  0  0  0
  6  9  1  0  0  0  0
  6 10  2  0  0  0  0
  7 20  2  0  0  0  0
  8 11  2  0  0  0  0
  8 23  1  0  0  0  0
  9 13  1  0  0  0  0
 10 24  1  0  0  0  0
 11 15  1  0  0  0  0
 11 22  1  0  0  0  0
 12 19  1  0  0  0  0
 12 21  2  0  0  0  0
 13 22  1  0  0  0  0
 13 23  2  0  0  0  0
 14 24  1  0  0  0  0
 14 25  1  0  0  0  0
 14 26  2  0  0  0  0
 15 16  1  0  0  0  0
 16 17  1  0  0  0  0
 17 18  1  0  0  0  0
 18 22  1  0  0  0  0
 19 25  1  0  0  0  0
 20 21  1  0  0  0  0
  1 27  1  0  0  0  0
  2 28  1  0  0  0  0
  3 29  1  0  0  0  0
  4 30  1  0  0  0  0
  5 31  1  0  0  0  0
  6 32  1  0  0  0  0
  7 33  1  0  0  0  0
  8 34  1  0  0  0  0
 15 35  1  0  0  0  0
 15 36  1  0  0  0  0
 16 37  1  0  0  0  0
 16 38  1  0  0  0  0
 17 39  1  0  0  0  0
 17 40  1  0  0  0  0
 18 41  1  0  0  0  0
 18 42  1  0  0  0  0
 19 43  1  0  0  0  0
 19 44  1  0  0  0  0
 23 45  1  0  0  0  0
 24 46  1  0  0  0  0
 25 47  1  0  0  0  0
M  CHG  1  23   1
M  END
> <Hybrid2>
-10.191785

> <fragments>
x0195

> <Mpro-x0195_dock>
-10.191785

> <Mpro-x0107_dock>
-8.842298

> <Mpro-x0397_dock>
-7.844045

> <Mpro-x0104_dock>
-7.796954

> <Mpro-x0387_dock>
-7.508135

> <Mpro-x0967_dock>
-6.889019

> <Mpro-x0830_dock>
-6.883497

> <Mpro-x1077_dock>
-6.848423

> <Mpro-x0831_dock>
-6.274871

> <Mpro-x0678_dock>
-6.184806

> <Mpro-x0946_dock>
-6.096221

> <Mpro-x0434_dock>
-6.076511

> <Mpro-x0161_dock>
-5.786152

> <Mpro-x0072_dock>
-5.471492

> <Mpro-x1093_dock>
-5.239924

> <Mpro-x0874_dock>
-4.777893

> <Mpro-x0708_dock>
-3.94208

> <Mpro-x0749_dock>
-3.778104

> <Mpro-x0734_dock>
-3.659877

> <Mpro-x0305_dock>
-3.584752

> <Mpro-x1392_dock>
-2.863006

> <Mpro-x0354_dock>
-2.758318

> <Mpro-x1249_dock>
-2.663377

> <Mpro-x0692_dock>
-2.60338

> <Mpro-x0426_dock>
-2.462777

> <Mpro-x0395_dock>
-2.410664

> <Mpro-x1187_dock>
-2.265009

> <Mpro-x1380_dock>
-1.689107

> <Mpro-x1311_dock>
-1.306975

> <Mpro-x0770_dock>
-1.125331

> <Mpro-x1418_dock>
-1.045675

> <Mpro-x0887_dock>
-1.031733

> <Mpro-x0981_dock>
-0.863582

> <Mpro-x0752_dock>
-0.840269

> <Mpro-x1386_dock>
-0.801397

> <Mpro-x0771_dock>
-0.618543

> <Mpro-x1384_dock>
-0.599964

> <Mpro-x1374_dock>
-0.487013

> <Mpro-x1425_dock>
-0.354427

> <Mpro-x1458_dock>
-0.340163

> <Mpro-x0736_dock>
-0.002055

> <Mpro-x1493_dock>
0.056506

> <Mpro-x0978_dock>
0.16719

> <Mpro-x1348_dock>
0.273042

> <Mpro-x0820_dock>
0.434562

> <Mpro-x1308_dock>
0.589675

> <Mpro-x0769_dock>
0.591556

> <Mpro-x1375_dock>
0.5978

> <Mpro-x1402_dock>
0.673678

> <Mpro-x0759_dock>
0.718333

> <Mpro-x0689_dock>
0.721397

> <Mpro-x1334_dock>
0.854612

> <Mpro-x0786_dock>
1.15921

> <Mpro-x0731_dock>
1.159902

> <Mpro-x0691_dock>
1.184172

> <Mpro-x1382_dock>
1.318223

> <Mpro-x0755_dock>
1.419955

> <Mpro-x0540_dock>
1.680968

> <Mpro-x1358_dock>
1.69811

> <Mpro-x1385_dock>
1.988465

> <Mpro-x0774_dock>
2.067615

> <Mpro-x1478_dock>
2.570472

> <Mpro-x1351_dock>
2.989042

> <Mpro-x1412_dock>
2.99267

> <Mpro-x0705_dock>
3.05926

> <site>
active-noncovalent

$$$$
BAR-COM-4e0-63
  -OEChem-04022003013D

 54 56  0     1  0  0  0  0  0999 V2000
   14.6913   -0.2740   21.8973 C   0  0  0  0  0  0  0  0  0  0  0  0
   13.8437   -1.3168   22.2711 C   0  0  0  0  0  0  0  0  0  0  0  0
   14.3045    1.0493   22.1093 C   0  0  0  0  0  0  0  0  0  0  0  0
    7.9336    4.4047   23.8602 C   0  0  0  0  0  0  0  0  0  0  0  0
   12.2224    0.2871   23.0689 C   0  0  0  0  0  0  0  0  0  0  0  0
    7.0602    4.3450   22.8018 C   0  0  0  0  0  0  0  0  0  0  0  0
   12.6092   -1.0363   22.8569 C   0  0  0  0  0  0  0  0  0  0  0  0
   13.0701    1.3298   22.6951 C   0  0  0  0  0  0  0  0  0  0  0  0
    9.0940    4.9963   23.3260 C   0  0  0  0  0  0  0  0  0  0  0  0
   11.4902    3.1378   23.4799 C   0  0  0  0  0  0  0  0  0  0  0  0
    7.4430   -4.2176   22.1469 C   0  0  0  0  0  0  0  0  0  0  0  0
    6.8002   -3.9177   23.4995 C   0  0  0  0  0  0  0  0  0  0  0  0
    8.5152   -3.1926   21.7963 C   0  0  0  0  0  0  0  0  0  0  0  0
    8.9227   -2.7729   24.2522 C   0  0  0  0  0  0  0  0  0  0  0  0
    7.8489   -3.8058   24.6150 C   0  0  1  0  0  0  0  0  0  0  0  0
    9.5648   -3.0768   22.8986 C   0  0  2  0  0  0  0  0  0  0  0  0
    7.1859   -3.4510   25.9445 C   0  0  0  0  0  0  0  0  0  0  0  0
   10.7196    6.7977   24.0361 C   0  0  0  0  0  0  0  0  0  0  0  0
   11.6977   -2.1584   23.2588 C   0  0  0  0  0  0  0  0  0  0  0  0
   10.3865    5.3072   24.0494 C   0  0  2  0  0  0  0  0  0  0  0  0
    8.9721    5.2913   22.0290 N   0  0  0  0  0  0  0  0  0  0  0  0
    7.7248    4.8833   21.7393 N   0  0  0  0  0  0  0  0  0  0  0  0
   12.6839    2.6536   22.9076 N   0  0  0  0  0  0  0  0  0  0  0  0
   11.4851    4.5359   23.5150 N   0  0  0  0  0  0  0  0  0  0  0  0
   10.5615    2.4522   23.9007 O   0  0  0  0  0  0  0  0  0  0  0  0
   10.4707   -2.0340   22.5543 O   0  0  0  0  0  0  0  0  0  0  0  0
   15.6527   -0.4924   21.4416 H   0  0  0  0  0  0  0  0  0  0  0  0
   14.1534   -2.3443   22.1014 H   0  0  0  0  0  0  0  0  0  0  0  0
   14.9731    1.8540   21.8139 H   0  0  0  0  0  0  0  0  0  0  0  0
    7.7518    4.0672   24.8702 H   0  0  0  0  0  0  0  0  0  0  0  0
   11.2589    0.5034   23.5251 H   0  0  0  0  0  0  0  0  0  0  0  0
    6.0488    3.9760   22.7112 H   0  0  0  0  0  0  0  0  0  0  0  0
    7.8886   -5.2197   22.1685 H   0  0  0  0  0  0  0  0  0  0  0  0
    6.6728   -4.2274   21.3675 H   0  0  0  0  0  0  0  0  0  0  0  0
    6.2308   -2.9821   23.4279 H   0  0  0  0  0  0  0  0  0  0  0  0
    6.0803   -4.7089   23.7407 H   0  0  0  0  0  0  0  0  0  0  0  0
    8.9994   -3.4636   20.8503 H   0  0  0  0  0  0  0  0  0  0  0  0
    8.0519   -2.2127   21.6219 H   0  0  0  0  0  0  0  0  0  0  0  0
    8.4906   -1.7631   24.2335 H   0  0  0  0  0  0  0  0  0  0  0  0
    9.7000   -2.7454   25.0264 H   0  0  0  0  0  0  0  0  0  0  0  0
    8.3354   -4.7835   24.7312 H   0  0  0  0  0  0  0  0  0  0  0  0
   10.1370   -4.0104   22.9576 H   0  0  0  0  0  0  0  0  0  0  0  0
    6.6923   -2.4839   25.8641 H   0  0  0  0  0  0  0  0  0  0  0  0
    7.9377   -3.4036   26.7305 H   0  0  0  0  0  0  0  0  0  0  0  0
    6.4473   -4.2082   26.2021 H   0  0  0  0  0  0  0  0  0  0  0  0
   10.8231    7.1697   23.0110 H   0  0  0  0  0  0  0  0  0  0  0  0
    9.9266    7.3727   24.5274 H   0  0  0  0  0  0  0  0  0  0  0  0
   11.6518    7.0142   24.5699 H   0  0  0  0  0  0  0  0  0  0  0  0
   12.1464   -3.1301   23.0260 H   0  0  0  0  0  0  0  0  0  0  0  0
   11.4983   -2.1292   24.3355 H   0  0  0  0  0  0  0  0  0  0  0  0
   10.2960    4.9954   25.0973 H   0  0  0  0  0  0  0  0  0  0  0  0
    7.3887    5.0031   20.7920 H   0  0  0  0  0  0  0  0  0  0  0  0
   13.3460    3.3795   22.6141 H   0  0  0  0  0  0  0  0  0  0  0  0
   12.2911    5.0320   23.1478 H   0  0  0  0  0  0  0  0  0  0  0  0
  1  2  2  0  0  0  0
  1  3  1  0  0  0  0
  2  7  1  0  0  0  0
  3  8  2  0  0  0  0
  4  6  2  0  0  0  0
  4  9  1  0  0  0  0
  5  7  2  0  0  0  0
  5  8  1  0  0  0  0
  6 22  1  0  0  0  0
  7 19  1  0  0  0  0
  8 23  1  0  0  0  0
  9 20  1  0  0  0  0
  9 21  2  0  0  0  0
 10 23  1  0  0  0  0
 10 24  1  0  0  0  0
 10 25  2  0  0  0  0
 11 12  1  0  0  0  0
 11 13  1  0  0  0  0
 12 15  1  0  0  0  0
 13 16  1  0  0  0  0
 14 15  1  0  0  0  0
 14 16  1  0  0  0  0
 15 17  1  0  0  0  0
 16 26  1  0  0  0  0
 18 20  1  0  0  0  0
 19 26  1  0  0  0  0
 20 24  1  0  0  0  0
 21 22  1  0  0  0  0
  1 27  1  0  0  0  0
  2 28  1  0  0  0  0
  3 29  1  0  0  0  0
  4 30  1  0  0  0  0
  5 31  1  0  0  0  0
  6 32  1  0  0  0  0
 11 33  1  0  0  0  0
 11 34  1  0  0  0  0
 12 35  1  0  0  0  0
 12 36  1  0  0  0  0
 13 37  1  0  0  0  0
 13 38  1  0  0  0  0
 14 39  1  0  0  0  0
 14 40  1  0  0  0  0
 15 41  1  0  0  0  0
 16 42  1  0  0  0  0
 17 43  1  0  0  0  0
 17 44  1  0  0  0  0
 17 45  1  0  0  0  0
 18 46  1  0  0  0  0
 18 47  1  0  0  0  0
 18 48  1  0  0  0  0
 19 49  1  0  0  0  0
 19 50  1  0  0  0  0
 20 51  1  0  0  0  0
 22 52  1  0  0  0  0
 23 53  1  0  0  0  0
 24 54  1  0  0  0  0
M  END
> <Hybrid2>
-10.126563

> <fragments>
x0195

> <Mpro-x0195_dock>
-10.126563

> <Mpro-x0104_dock>
-9.620703

> <Mpro-x0161_dock>
-9.314384

> <Mpro-x0678_dock>
-8.239332

> <Mpro-x0874_dock>
-7.96438

> <Mpro-x0395_dock>
-7.903813

> <Mpro-x0946_dock>
-7.870008

> <Mpro-x0072_dock>
-6.469141

> <Mpro-x1093_dock>
-6.303265

> <Mpro-x0967_dock>
-5.948664

> <Mpro-x0434_dock>
-5.371047

> <Mpro-x1077_dock>
-5.130098

> <Mpro-x0830_dock>
-4.971612

> <Mpro-x0397_dock>
-4.845869

> <Mpro-x0749_dock>
-4.58765

> <Mpro-x0387_dock>
-4.507618

> <Mpro-x1187_dock>
-4.080264

> <Mpro-x0981_dock>
-3.225314

> <Mpro-x0305_dock>
-3.170011

> <Mpro-x1249_dock>
-3.144835

> <Mpro-x0107_dock>
-3.141811

> <Mpro-x1384_dock>
-2.708921

> <Mpro-x1392_dock>
-2.483368

> <Mpro-x0708_dock>
-2.342958

> <Mpro-x0831_dock>
-2.211867

> <Mpro-x1458_dock>
-1.741751

> <Mpro-x0759_dock>
-1.614979

> <Mpro-x0426_dock>
-1.431307

> <Mpro-x0692_dock>
-1.365427

> <Mpro-x1311_dock>
-1.051503

> <Mpro-x0887_dock>
-0.918478

> <Mpro-x0354_dock>
-0.849397

> <Mpro-x1380_dock>
-0.223185

> <Mpro-x1374_dock>
0.200878

> <Mpro-x0820_dock>
0.209452

> <Mpro-x1425_dock>
0.354802

> <Mpro-x1308_dock>
0.607599

> <Mpro-x1358_dock>
0.77479

> <Mpro-x0771_dock>
0.929706

> <Mpro-x1375_dock>
0.935896

> <Mpro-x0736_dock>
1.13593

> <Mpro-x0769_dock>
1.356829

> <Mpro-x1334_dock>
1.760061

> <Mpro-x0691_dock>
1.881656

> <Mpro-x0770_dock>
2.005668

> <Mpro-x0689_dock>
2.052842

> <Mpro-x1351_dock>
2.283452

> <Mpro-x1493_dock>
2.401864

> <Mpro-x1385_dock>
2.414639

> <Mpro-x1478_dock>
2.431364

> <Mpro-x0786_dock>
2.444138

> <Mpro-x0540_dock>
2.537868

> <Mpro-x0731_dock>
2.613969

> <Mpro-x0978_dock>
2.644507

> <Mpro-x0752_dock>
2.676373

> <Mpro-x1418_dock>
2.696147

> <Mpro-x0774_dock>
2.697955

> <Mpro-x0755_dock>
2.766752

> <Mpro-x1386_dock>
2.949189

> <Mpro-x1402_dock>
3.042191

> <Mpro-x1348_dock>
3.23648

> <Mpro-x0705_dock>
3.731908

> <Mpro-x0734_dock>
3.999274

> <Mpro-x1412_dock>
4.212478

> <Mpro-x1382_dock>
4.310677

> <site>
active-noncovalent

$$$$
TRY-UNI-1fd-7
  -OEChem-04022003013D

 35 37  0     0  0  0  0  0  0999 V2000
    5.7179    1.0113   18.7480 C   0  0  0  0  0  0  0  0  0  0  0  0
    6.2970    1.0661   20.0145 C   0  0  0  0  0  0  0  0  0  0  0  0
   12.6030   -2.1929   23.7758 C   0  0  0  0  0  0  0  0  0  0  0  0
   13.1490    0.1499   23.5520 C   0  0  0  0  0  0  0  0  0  0  0  0
   13.7317   -2.5275   23.0277 C   0  0  0  0  0  0  0  0  0  0  0  0
   14.2778   -0.1847   22.8039 C   0  0  0  0  0  0  0  0  0  0  0  0
    6.4680    0.5119   17.6918 C   0  0  0  0  0  0  0  0  0  0  0  0
    9.7081   -0.0437   20.7019 C   0  0  0  0  0  0  0  0  0  0  0  0
    7.6177    0.6092   20.1520 C   0  0  0  0  0  0  0  0  0  0  0  0
   12.3116   -0.8542   24.0380 C   0  0  0  0  0  0  0  0  0  0  0  0
    8.5482    0.4924   21.2182 C   0  0  0  0  0  0  0  0  0  0  0  0
   14.5691   -1.5234   22.5418 C   0  0  0  0  0  0  0  0  0  0  0  0
    8.2531    0.1337   19.0086 C   0  0  0  0  0  0  0  0  0  0  0  0
    9.5959    0.9327   23.4734 C   0  0  0  0  0  0  0  0  0  0  0  0
    8.3245    0.8735   22.6272 C   0  0  0  0  0  0  0  0  0  0  0  0
   11.0977   -0.4938   24.8446 C   0  0  0  0  0  0  0  0  0  0  0  0
    7.7412    0.0592   17.7654 N   0  0  0  0  0  0  0  0  0  0  0  0
    9.5181   -0.2569   19.3611 N   0  0  0  0  0  0  0  0  0  0  0  0
    9.9334   -0.3008   24.0121 N   0  0  0  0  0  0  0  0  0  0  0  0
   10.2309    1.9711   23.6388 O   0  0  0  0  0  0  0  0  0  0  0  0
   15.9615   -1.9363   21.6191 Cl  0  0  0  0  0  0  0  0  0  0  0  0
    4.7003    1.3529   18.5917 H   0  0  0  0  0  0  0  0  0  0  0  0
    5.7378    1.4502   20.8615 H   0  0  0  0  0  0  0  0  0  0  0  0
   11.9553   -2.9811   24.1508 H   0  0  0  0  0  0  0  0  0  0  0  0
   12.9292    1.1953   23.7521 H   0  0  0  0  0  0  0  0  0  0  0  0
   13.9462   -3.5749   22.8317 H   0  0  0  0  0  0  0  0  0  0  0  0
   14.9211    0.6084   22.4317 H   0  0  0  0  0  0  0  0  0  0  0  0
    6.0324    0.4609   16.6973 H   0  0  0  0  0  0  0  0  0  0  0  0
   10.6517   -0.2934   21.1670 H   0  0  0  0  0  0  0  0  0  0  0  0
    7.8329    1.8635   22.6972 H   0  0  0  0  0  0  0  0  0  0  0  0
    7.6300    0.1698   23.1263 H   0  0  0  0  0  0  0  0  0  0  0  0
   10.8673   -1.2825   25.5690 H   0  0  0  0  0  0  0  0  0  0  0  0
   11.2616    0.4295   25.4101 H   0  0  0  0  0  0  0  0  0  0  0  0
   10.2058   -0.6418   18.7286 H   0  0  0  0  0  0  0  0  0  0  0  0
    9.3382   -1.0995   23.8131 H   0  0  0  0  0  0  0  0  0  0  0  0
  1  2  2  0  0  0  0
  1  7  1  0  0  0  0
  2  9  1  0  0  0  0
  3  5  2  0  0  0  0
  3 10  1  0  0  0  0
  4  6  1  0  0  0  0
  4 10  2  0  0  0  0
  5 12  1  0  0  0  0
  6 12  2  0  0  0  0
  7 17  2  0  0  0  0
  8 11  2  0  0  0  0
  8 18  1  0  0  0  0
  9 11  1  0  0  0  0
  9 13  2  0  0  0  0
 10 16  1  0  0  0  0
 11 15  1  0  0  0  0
 12 21  1  0  0  0  0
 13 17  1  0  0  0  0
 13 18  1  0  0  0  0
 14 15  1  0  0  0  0
 14 19  1  0  0  0  0
 14 20  2  0  0  0  0
 16 19  1  0  0  0  0
  1 22  1  0  0  0  0
  2 23  1  0  0  0  0
  3 24  1  0  0  0  0
  4 25  1  0  0  0  0
  5 26  1  0  0  0  0
  6 27  1  0  0  0  0
  7 28  1  0  0  0  0
  8 29  1  0  0  0  0
 15 30  1  0  0  0  0
 15 31  1  0  0  0  0
 16 32  1  0  0  0  0
 16 33  1  0  0  0  0
 18 34  1  0  0  0  0
 19 35  1  0  0  0  0
M  END
> <Hybrid2>
-10.089762

> <fragments>
x0678

> <Mpro-x0678_dock>
-10.089762

> <Mpro-x0104_dock>
-8.706849

> <Mpro-x0749_dock>
-8.646444

> <Mpro-x1093_dock>
-8.566909

> <Mpro-x0161_dock>
-7.995559

> <Mpro-x0107_dock>
-7.978275

> <Mpro-x0072_dock>
-7.468348

> <Mpro-x0397_dock>
-7.321276

> <Mpro-x0830_dock>
-7.229578

> <Mpro-x0967_dock>
-7.223787

> <Mpro-x1412_dock>
-7.206396

> <Mpro-x1385_dock>
-7.204483

> <Mpro-x1334_dock>
-7.184489

> <Mpro-x0195_dock>
-6.878716

> <Mpro-x1311_dock>
-6.619389

> <Mpro-x1249_dock>
-6.557302

> <Mpro-x0774_dock>
-6.545074

> <Mpro-x1077_dock>
-6.41254

> <Mpro-x0831_dock>
-6.325437

> <Mpro-x1458_dock>
-6.177348

> <Mpro-x1392_dock>
-6.110685

> <Mpro-x1374_dock>
-5.75104

> <Mpro-x0946_dock>
-5.745919

> <Mpro-x1386_dock>
-5.702483

> <Mpro-x0692_dock>
-5.635052

> <Mpro-x0434_dock>
-5.410885

> <Mpro-x1418_dock>
-5.347117

> <Mpro-x0874_dock>
-5.333686

> <Mpro-x0734_dock>
-5.174421

> <Mpro-x0770_dock>
-5.149743

> <Mpro-x1375_dock>
-5.00785

> <Mpro-x0759_dock>
-4.904562

> <Mpro-x1493_dock>
-4.878643

> <Mpro-x0395_dock>
-4.684204

> <Mpro-x1187_dock>
-4.68225

> <Mpro-x0387_dock>
-4.613633

> <Mpro-x0736_dock>
-4.463133

> <Mpro-x1478_dock>
-4.393985

> <Mpro-x0354_dock>
-4.298763

> <Mpro-x0708_dock>
-4.161698

> <Mpro-x0305_dock>
-3.958309

> <Mpro-x0540_dock>
-3.771933

> <Mpro-x1348_dock>
-3.480222

> <Mpro-x0820_dock>
-3.317503

> <Mpro-x1308_dock>
-3.000035

> <Mpro-x1358_dock>
-2.952471

> <Mpro-x0426_dock>
-2.852459

> <Mpro-x1384_dock>
-2.80419

> <Mpro-x1380_dock>
-2.700336

> <Mpro-x0771_dock>
-2.50225

> <Mpro-x0769_dock>
-2.218757

> <Mpro-x0691_dock>
-2.129865

> <Mpro-x1402_dock>
-2.031292

> <Mpro-x0755_dock>
-1.995084

> <Mpro-x0731_dock>
-1.92009

> <Mpro-x1382_dock>
-1.853047

> <Mpro-x0705_dock>
-1.785281

> <Mpro-x1425_dock>
-1.709577

> <Mpro-x0752_dock>
-1.555315

> <Mpro-x1351_dock>
-1.506099

> <Mpro-x0981_dock>
-1.196427

> <Mpro-x0689_dock>
-1.002382

> <Mpro-x0887_dock>
-0.661202

> <Mpro-x0978_dock>
-0.288424

> <Mpro-x0786_dock>
-0.169899

> <site>
active-noncovalent

$$$$
DAR-DIA-842-3
  -OEChem-04022003013D

 27 28  0     0  0  0  0  0  0999 V2000
    5.9856    1.2247   19.3553 C   0  0  0  0  0  0  0  0  0  0  0  0
    6.8945    0.9737   20.3772 C   0  0  0  0  0  0  0  0  0  0  0  0
   14.3589   -1.9717   22.4937 C   0  0  0  0  0  0  0  0  0  0  0  0
   13.2120   -1.5776   21.7456 C   0  0  0  0  0  0  0  0  0  0  0  0
    6.3518    0.8833   18.0634 C   0  0  0  0  0  0  0  0  0  0  0  0
    8.3948    0.0928   18.7557 C   0  0  0  0  0  0  0  0  0  0  0  0
    8.1244    0.3973   20.0801 C   0  0  0  0  0  0  0  0  0  0  0  0
   14.2107   -1.7187   23.8397 C   0  0  0  0  0  0  0  0  0  0  0  0
   12.2308   -1.0386   22.5485 C   0  0  0  0  0  0  0  0  0  0  0  0
   10.3448   -0.4427   20.9652 C   0  0  0  0  0  0  0  0  0  0  0  0
   15.1680   -1.9799   24.9365 C   0  0  0  0  0  0  0  0  0  0  0  0
    7.5372    0.3218   17.7361 N   0  0  0  0  0  0  0  0  0  0  0  0
    9.0550    0.1344   21.0824 N   0  0  0  0  0  0  0  0  0  0  0  0
   10.9507   -0.5275   22.2290 N   0  0  0  0  0  0  0  0  0  0  0  0
   10.8502   -0.8113   19.9098 O   0  0  0  0  0  0  0  0  0  0  0  0
   12.6937   -1.0091   24.1969 S   0  0  0  0  0  0  0  0  0  0  0  0
    5.0210    1.6733   19.5638 H   0  0  0  0  0  0  0  0  0  0  0  0
    6.6344    1.2311   21.4006 H   0  0  0  0  0  0  0  0  0  0  0  0
   15.2462   -2.4174   22.0622 H   0  0  0  0  0  0  0  0  0  0  0  0
   13.1162   -1.6863   20.6727 H   0  0  0  0  0  0  0  0  0  0  0  0
    5.6785    1.0595   17.2309 H   0  0  0  0  0  0  0  0  0  0  0  0
    9.3376   -0.3587   18.4614 H   0  0  0  0  0  0  0  0  0  0  0  0
   15.8287   -1.1138   25.0977 H   0  0  0  0  0  0  0  0  0  0  0  0
   14.6542   -2.1943   25.8878 H   0  0  0  0  0  0  0  0  0  0  0  0
   15.8040   -2.8555   24.7268 H   0  0  0  0  0  0  0  0  0  0  0  0
    8.7687    0.3932   22.0337 H   0  0  0  0  0  0  0  0  0  0  0  0
   10.4078   -0.1812   23.0160 H   0  0  0  0  0  0  0  0  0  0  0  0
  1  2  2  0  0  0  0
  1  5  1  0  0  0  0
  2  7  1  0  0  0  0
  3  4  1  0  0  0  0
  3  8  2  0  0  0  0
  4  9  2  0  0  0  0
  5 12  2  0  0  0  0
  6  7  2  0  0  0  0
  6 12  1  0  0  0  0
  7 13  1  0  0  0  0
  8 11  1  0  0  0  0
  8 16  1  0  0  0  0
  9 14  1  0  0  0  0
  9 16  1  0  0  0  0
 10 13  1  0  0  0  0
 10 14  1  0  0  0  0
 10 15  2  0  0  0  0
  1 17  1  0  0  0  0
  2 18  1  0  0  0  0
  3 19  1  0  0  0  0
  4 20  1  0  0  0  0
  5 21  1  0  0  0  0
  6 22  1  0  0  0  0
 11 23  1  0  0  0  0
 11 24  1  0  0  0  0
 11 25  1  0  0  0  0
 13 26  1  0  0  0  0
 14 27  1  0  0  0  0
M  END
> <Hybrid2>
-10.044557

> <fragments>
x0678

> <Mpro-x0678_dock>
-10.044557

> <Mpro-x0749_dock>
-9.505499

> <Mpro-x0107_dock>
-8.299018

> <Mpro-x0195_dock>
-7.189485

> <Mpro-x1093_dock>
-7.088463

> <Mpro-x0967_dock>
-6.506436

> <Mpro-x0161_dock>
-6.393086

> <Mpro-x0946_dock>
-6.259703

> <Mpro-x0708_dock>
-6.208942

> <Mpro-x0397_dock>
-6.169759

> <Mpro-x1348_dock>
-5.637044

> <Mpro-x0072_dock>
-5.562769

> <Mpro-x0104_dock>
-5.516146

> <Mpro-x0305_dock>
-5.502211

> <Mpro-x0540_dock>
-5.386059

> <Mpro-x0434_dock>
-5.229851

> <Mpro-x1077_dock>
-4.939635

> <Mpro-x1311_dock>
-4.833365

> <Mpro-x0874_dock>
-4.679703

> <Mpro-x0830_dock>
-4.498602

> <Mpro-x1334_dock>
-4.45219

> <Mpro-x0759_dock>
-4.402586

> <Mpro-x1418_dock>
-4.376174

> <Mpro-x1392_dock>
-4.352953

> <Mpro-x0426_dock>
-4.348193

> <Mpro-x1385_dock>
-4.295794

> <Mpro-x0354_dock>
-4.170938

> <Mpro-x0387_dock>
-4.161862

> <Mpro-x1187_dock>
-4.147076

> <Mpro-x1375_dock>
-4.140544

> <Mpro-x0770_dock>
-4.069805

> <Mpro-x0692_dock>
-4.066688

> <Mpro-x0395_dock>
-4.002259

> <Mpro-x1249_dock>
-3.821673

> <Mpro-x0831_dock>
-3.658704

> <Mpro-x1386_dock>
-3.549748

> <Mpro-x0981_dock>
-3.50297

> <Mpro-x1358_dock>
-3.486035

> <Mpro-x1412_dock>
-3.410448

> <Mpro-x1374_dock>
-3.251868

> <Mpro-x1351_dock>
-3.249588

> <Mpro-x1380_dock>
-2.901342

> <Mpro-x0774_dock>
-2.614926

> <Mpro-x0769_dock>
-2.552783

> <Mpro-x0755_dock>
-2.514865

> <Mpro-x0734_dock>
-2.309742

> <Mpro-x1382_dock>
-2.308798

> <Mpro-x1402_dock>
-2.190933

> <Mpro-x1478_dock>
-2.148695

> <Mpro-x1425_dock>
-2.088022

> <Mpro-x0978_dock>
-1.927309

> <Mpro-x0786_dock>
-1.882326

> <Mpro-x0689_dock>
-1.607522

> <Mpro-x0736_dock>
-1.45636

> <Mpro-x0887_dock>
-1.372228

> <Mpro-x1458_dock>
-0.976081

> <Mpro-x1493_dock>
-0.907378

> <Mpro-x0771_dock>
-0.739647

> <Mpro-x1384_dock>
-0.598545

> <Mpro-x0691_dock>
-0.592

> <Mpro-x1308_dock>
-0.556013

> <Mpro-x0731_dock>
-0.435074

> <Mpro-x0820_dock>
-0.404767

> <Mpro-x0705_dock>
0.023472

> <Mpro-x0752_dock>
0.931477

> <site>
active-noncovalent

$$$$
BAR-COM-4e0-45
  -OEChem-04022003013D

 48 50  0     1  0  0  0  0  0999 V2000
    6.7780   -5.5486   23.6497 C   0  0  0  0  0  0  0  0  0  0  0  0
    7.0056   -5.1643   22.3283 C   0  0  0  0  0  0  0  0  0  0  0  0
    7.3398   -4.8164   24.6956 C   0  0  0  0  0  0  0  0  0  0  0  0
    7.7949   -4.0478   22.0527 C   0  0  0  0  0  0  0  0  0  0  0  0
    8.1291   -3.6998   24.4201 C   0  0  0  0  0  0  0  0  0  0  0  0
    6.3318   -0.2744   18.0365 C   0  0  0  0  0  0  0  0  0  0  0  0
    6.1612    0.3286   19.2573 C   0  0  0  0  0  0  0  0  0  0  0  0
    8.3567   -3.3155   23.0987 C   0  0  0  0  0  0  0  0  0  0  0  0
    8.7404    0.1266   21.8018 C   0  0  0  0  0  0  0  0  0  0  0  0
   12.3099   -1.7344   22.4299 C   0  0  0  0  0  0  0  0  0  0  0  0
   12.1228   -0.3082   24.4579 C   0  0  0  0  0  0  0  0  0  0  0  0
   13.3339   -0.7422   21.9053 C   0  0  0  0  0  0  0  0  0  0  0  0
   13.1569    0.6100   23.8287 C   0  0  0  0  0  0  0  0  0  0  0  0
    7.6924    1.2244   21.8223 C   0  0  0  0  0  0  0  0  0  0  0  0
    7.6206    1.9813   20.4999 C   0  0  0  0  0  0  0  0  0  0  0  0
   10.2799   -1.8934   23.8784 C   0  0  0  0  0  0  0  0  0  0  0  0
    9.2143   -2.1030   22.8002 C   0  0  2  0  0  0  0  0  0  0  0  0
    7.5053    0.1473   17.4757 N   0  0  0  0  0  0  0  0  0  0  0  0
    8.0764    1.0014   18.3180 N   0  0  0  0  0  0  0  0  0  0  0  0
    7.2690    1.1086   19.3856 N   0  0  0  0  0  0  0  0  0  0  0  0
    8.3899   -0.9263   22.6327 N   0  0  0  0  0  0  0  0  0  0  0  0
   11.3636   -0.9986   23.3491 N   0  3  0  0  0  0  0  0  0  0  0  0
    9.7639    0.1873   21.1259 O   0  0  0  0  0  0  0  0  0  0  0  0
   14.0401   -0.1323   22.9866 O   0  0  0  0  0  0  0  0  0  0  0  0
    6.1622   -6.4172   23.8641 H   0  0  0  0  0  0  0  0  0  0  0  0
    6.5673   -5.7337   21.5138 H   0  0  0  0  0  0  0  0  0  0  0  0
    7.1619   -5.1146   25.7245 H   0  0  0  0  0  0  0  0  0  0  0  0
    7.9670   -3.7558   21.0201 H   0  0  0  0  0  0  0  0  0  0  0  0
    8.5628   -3.1354   25.2414 H   0  0  0  0  0  0  0  0  0  0  0  0
    5.6814   -0.9780   17.5394 H   0  0  0  0  0  0  0  0  0  0  0  0
    5.3862    0.2720   20.0082 H   0  0  0  0  0  0  0  0  0  0  0  0
   11.7193   -2.1665   21.6165 H   0  0  0  0  0  0  0  0  0  0  0  0
   12.7818   -2.5272   23.0206 H   0  0  0  0  0  0  0  0  0  0  0  0
   12.5927   -1.0920   25.0620 H   0  0  0  0  0  0  0  0  0  0  0  0
   11.4015    0.2540   25.0585 H   0  0  0  0  0  0  0  0  0  0  0  0
   14.0686   -1.2645   21.2843 H   0  0  0  0  0  0  0  0  0  0  0  0
   12.8687    0.0318   21.2832 H   0  0  0  0  0  0  0  0  0  0  0  0
   12.6877    1.4170   23.2532 H   0  0  0  0  0  0  0  0  0  0  0  0
   13.7623    1.0750   24.6131 H   0  0  0  0  0  0  0  0  0  0  0  0
    6.7206    0.7697   22.0514 H   0  0  0  0  0  0  0  0  0  0  0  0
    7.9331    1.9140   22.6408 H   0  0  0  0  0  0  0  0  0  0  0  0
    8.5812    2.4554   20.2638 H   0  0  0  0  0  0  0  0  0  0  0  0
    6.8750    2.7846   20.5445 H   0  0  0  0  0  0  0  0  0  0  0  0
    9.8861   -1.4042   24.7753 H   0  0  0  0  0  0  0  0  0  0  0  0
   10.7653   -2.8325   24.1633 H   0  0  0  0  0  0  0  0  0  0  0  0
    9.7134   -2.2464   21.8333 H   0  0  0  0  0  0  0  0  0  0  0  0
    7.5163   -0.8689   23.1462 H   0  0  0  0  0  0  0  0  0  0  0  0
   10.8972   -0.2685   22.7930 H   0  0  0  0  0  0  0  0  0  0  0  0
  1  2  1  0  0  0  0
  1  3  2  0  0  0  0
  2  4  2  0  0  0  0
  3  5  1  0  0  0  0
  4  8  1  0  0  0  0
  5  8  2  0  0  0  0
  6  7  2  0  0  0  0
  6 18  1  0  0  0  0
  7 20  1  0  0  0  0
  8 17  1  0  0  0  0
  9 14  1  0  0  0  0
  9 21  1  0  0  0  0
  9 23  2  0  0  0  0
 10 12  1  0  0  0  0
 10 22  1  0  0  0  0
 11 13  1  0  0  0  0
 11 22  1  0  0  0  0
 12 24  1  0  0  0  0
 13 24  1  0  0  0  0
 14 15  1  0  0  0  0
 15 20  1  0  0  0  0
 16 17  1  0  0  0  0
 16 22  1  0  0  0  0
 17 21  1  0  0  0  0
 18 19  2  0  0  0  0
 19 20  1  0  0  0  0
  1 25  1  0  0  0  0
  2 26  1  0  0  0  0
  3 27  1  0  0  0  0
  4 28  1  0  0  0  0
  5 29  1  0  0  0  0
  6 30  1  0  0  0  0
  7 31  1  0  0  0  0
 10 32  1  0  0  0  0
 10 33  1  0  0  0  0
 11 34  1  0  0  0  0
 11 35  1  0  0  0  0
 12 36  1  0  0  0  0
 12 37  1  0  0  0  0
 13 38  1  0  0  0  0
 13 39  1  0  0  0  0
 14 40  1  0  0  0  0
 14 41  1  0  0  0  0
 15 42  1  0  0  0  0
 15 43  1  0  0  0  0
 16 44  1  0  0  0  0
 16 45  1  0  0  0  0
 17 46  1  0  0  0  0
 21 47  1  0  0  0  0
 22 48  1  0  0  0  0
M  CHG  1  22   1
M  END
> <Hybrid2>
-10.001107

> <fragments>
x0678

> <Mpro-x0678_dock>
-10.001107

> <Mpro-x0107_dock>
-8.054324

> <Mpro-x0434_dock>
-7.818717

> <Mpro-x1093_dock>
-6.652863

> <Mpro-x0397_dock>
-6.639295

> <Mpro-x0831_dock>
-6.456204

> <Mpro-x0749_dock>
-6.07989

> <Mpro-x1392_dock>
-5.739237

> <Mpro-x0161_dock>
-5.582871

> <Mpro-x0967_dock>
-5.049147

> <Mpro-x1077_dock>
-4.947794

> <Mpro-x0830_dock>
-4.797576

> <Mpro-x0946_dock>
-4.730874

> <Mpro-x0195_dock>
-4.638286

> <Mpro-x0874_dock>
-4.584093

> <Mpro-x1386_dock>
-4.461521

> <Mpro-x1385_dock>
-4.370321

> <Mpro-x1418_dock>
-4.230483

> <Mpro-x1412_dock>
-4.187845

> <Mpro-x0072_dock>
-4.039818

> <Mpro-x0387_dock>
-4.018385

> <Mpro-x0770_dock>
-3.821908

> <Mpro-x0692_dock>
-3.347474

> <Mpro-x0708_dock>
-3.339875

> <Mpro-x0305_dock>
-3.326094

> <Mpro-x1334_dock>
-3.2404

> <Mpro-x0104_dock>
-3.224562

> <Mpro-x1384_dock>
-3.169346

> <Mpro-x1458_dock>
-3.06492

> <Mpro-x0759_dock>
-3.028141

> <Mpro-x1311_dock>
-2.937275

> <Mpro-x0354_dock>
-2.919417

> <Mpro-x1358_dock>
-2.87728

> <Mpro-x0395_dock>
-2.750159

> <Mpro-x1375_dock>
-2.677301

> <Mpro-x1478_dock>
-2.475534

> <Mpro-x0731_dock>
-2.276686

> <Mpro-x0736_dock>
-2.201205

> <Mpro-x1249_dock>
-2.140367

> <Mpro-x1425_dock>
-2.096233

> <Mpro-x1348_dock>
-2.092554

> <Mpro-x0426_dock>
-2.049989

> <Mpro-x1351_dock>
-2.048399

> <Mpro-x0774_dock>
-1.953768

> <Mpro-x1382_dock>
-1.906945

> <Mpro-x1380_dock>
-1.883019

> <Mpro-x1308_dock>
-1.780506

> <Mpro-x0540_dock>
-1.660055

> <Mpro-x1187_dock>
-1.534838

> <Mpro-x0769_dock>
-1.417284

> <Mpro-x0755_dock>
-1.103617

> <Mpro-x1493_dock>
-0.88345

> <Mpro-x1374_dock>
-0.882443

> <Mpro-x1402_dock>
-0.878598

> <Mpro-x0771_dock>
-0.841707

> <Mpro-x0820_dock>
-0.741401

> <Mpro-x0734_dock>
-0.64452

> <Mpro-x0705_dock>
-0.603758

> <Mpro-x0981_dock>
-0.55943

> <Mpro-x0689_dock>
-0.534146

> <Mpro-x0691_dock>
-0.494046

> <Mpro-x0786_dock>
-0.3537

> <Mpro-x0978_dock>
0.736089

> <Mpro-x0887_dock>
1.462427

> <Mpro-x0752_dock>
2.025949

> <site>
active-noncovalent

$$$$
BAR-COM-4e0-49
  -OEChem-04022003013D

 30 31  0     0  0  0  0  0  0999 V2000
    8.9992    2.1270   24.1255 C   0  0  0  0  0  0  0  0  0  0  0  0
   13.6995   -1.8160   23.0090 C   0  0  0  0  0  0  0  0  0  0  0  0
   13.9752   -0.4721   23.2611 C   0  0  0  0  0  0  0  0  0  0  0  0
   12.3986   -2.2156   22.7029 C   0  0  0  0  0  0  0  0  0  0  0  0
   12.9500    0.4722   23.2073 C   0  0  0  0  0  0  0  0  0  0  0  0
    8.0375   -0.4548   18.7904 C   0  0  0  0  0  0  0  0  0  0  0  0
    6.3788    0.5798   19.9962 C   0  0  0  0  0  0  0  0  0  0  0  0
   11.3734   -1.2714   22.6491 C   0  0  0  0  0  0  0  0  0  0  0  0
    7.4148   -0.3263   20.0648 C   0  0  0  0  0  0  0  0  0  0  0  0
   11.6490    0.0725   22.9013 C   0  0  0  0  0  0  0  0  0  0  0  0
   10.0224   -1.7099   22.3280 C   0  0  0  0  0  0  0  0  0  0  0  0
   10.4103    1.7503   24.0444 C   0  0  0  0  0  0  0  0  0  0  0  0
    7.8282   -1.0698   21.3019 C   0  0  0  0  0  0  0  0  0  0  0  0
    7.8801    2.4263   24.1906 N   0  0  0  0  0  0  0  0  0  0  0  0
    7.5454    0.2791   17.7952 N   0  0  0  0  0  0  0  0  0  0  0  0
    9.1988   -0.7925   21.6670 N   0  0  0  0  0  0  0  0  0  0  0  0
    9.6345   -2.8445   22.6549 O   0  0  0  0  0  0  0  0  0  0  0  0
   10.6611    1.0103   22.8516 O   0  0  0  0  0  0  0  0  0  0  0  0
    6.2776    1.1724   18.3924 S   0  0  0  0  0  0  0  0  0  0  0  0
   14.4982   -2.5511   23.0509 H   0  0  0  0  0  0  0  0  0  0  0  0
   14.9882   -0.1617   23.4998 H   0  0  0  0  0  0  0  0  0  0  0  0
   12.1955   -3.2656   22.5078 H   0  0  0  0  0  0  0  0  0  0  0  0
   13.1715    1.5175   23.4046 H   0  0  0  0  0  0  0  0  0  0  0  0
    8.8765   -1.0972   18.5584 H   0  0  0  0  0  0  0  0  0  0  0  0
    5.7051    0.9088   20.7750 H   0  0  0  0  0  0  0  0  0  0  0  0
   11.0459    2.6404   24.0271 H   0  0  0  0  0  0  0  0  0  0  0  0
   10.7087    1.1389   24.9014 H   0  0  0  0  0  0  0  0  0  0  0  0
    7.1911   -0.7940   22.1492 H   0  0  0  0  0  0  0  0  0  0  0  0
    7.7317   -2.1515   21.1609 H   0  0  0  0  0  0  0  0  0  0  0  0
    9.5461    0.1426   21.4801 H   0  0  0  0  0  0  0  0  0  0  0  0
  1 12  1  0  0  0  0
  1 14  3  0  0  0  0
  2  3  1  0  0  0  0
  2  4  2  0  0  0  0
  3  5  2  0  0  0  0
  4  8  1  0  0  0  0
  5 10  1  0  0  0  0
  6  9  1  0  0  0  0
  6 15  2  0  0  0  0
  7  9  2  0  0  0  0
  7 19  1  0  0  0  0
  8 10  2  0  0  0  0
  8 11  1  0  0  0  0
  9 13  1  0  0  0  0
 10 18  1  0  0  0  0
 11 16  1  0  0  0  0
 11 17  2  0  0  0  0
 12 18  1  0  0  0  0
 13 16  1  0  0  0  0
 15 19  1  0  0  0  0
  2 20  1  0  0  0  0
  3 21  1  0  0  0  0
  4 22  1  0  0  0  0
  5 23  1  0  0  0  0
  6 24  1  0  0  0  0
  7 25  1  0  0  0  0
 12 26  1  0  0  0  0
 12 27  1  0  0  0  0
 13 28  1  0  0  0  0
 13 29  1  0  0  0  0
 16 30  1  0  0  0  0
M  END
> <Hybrid2>
-10.000429

> <fragments>
x0678

> <Mpro-x0678_dock>
-10.000429

> <Mpro-x0195_dock>
-7.792477

> <Mpro-x0830_dock>
-7.743366

> <Mpro-x0072_dock>
-7.496889

> <Mpro-x0107_dock>
-7.238735

> <Mpro-x0434_dock>
-7.021631

> <Mpro-x1077_dock>
-7.016447

> <Mpro-x0831_dock>
-6.778544

> <Mpro-x0692_dock>
-6.560904

> <Mpro-x1311_dock>
-6.511153

> <Mpro-x0104_dock>
-6.447054

> <Mpro-x1093_dock>
-6.432404

> <Mpro-x1418_dock>
-6.325314

> <Mpro-x0749_dock>
-6.295317

> <Mpro-x0161_dock>
-6.046012

> <Mpro-x0946_dock>
-5.975349

> <Mpro-x1392_dock>
-5.878867

> <Mpro-x0397_dock>
-5.78363

> <Mpro-x0708_dock>
-5.629361

> <Mpro-x0967_dock>
-5.581191

> <Mpro-x1375_dock>
-5.551119

> <Mpro-x1385_dock>
-5.547962

> <Mpro-x0395_dock>
-5.538002

> <Mpro-x1386_dock>
-5.33126

> <Mpro-x1334_dock>
-5.327316

> <Mpro-x0759_dock>
-5.166031

> <Mpro-x0874_dock>
-4.958664

> <Mpro-x0770_dock>
-4.671997

> <Mpro-x1249_dock>
-4.615961

> <Mpro-x1187_dock>
-4.602042

> <Mpro-x1374_dock>
-4.521143

> <Mpro-x0305_dock>
-4.455042

> <Mpro-x1478_dock>
-4.255806

> <Mpro-x0387_dock>
-4.155576

> <Mpro-x1412_dock>
-4.097598

> <Mpro-x1493_dock>
-4.004307

> <Mpro-x0354_dock>
-3.993065

> <Mpro-x0771_dock>
-3.891791

> <Mpro-x0774_dock>
-3.853758

> <Mpro-x1348_dock>
-3.643586

> <Mpro-x1458_dock>
-3.467818

> <Mpro-x0736_dock>
-2.85165

> <Mpro-x0734_dock>
-2.789496

> <Mpro-x0540_dock>
-2.760382

> <Mpro-x1380_dock>
-2.74252

> <Mpro-x0731_dock>
-2.630701

> <Mpro-x0705_dock>
-2.327966

> <Mpro-x1351_dock>
-2.285243

> <Mpro-x0426_dock>
-2.238269

> <Mpro-x1382_dock>
-2.095587

> <Mpro-x0752_dock>
-2.050173

> <Mpro-x1358_dock>
-2.003103

> <Mpro-x0820_dock>
-1.919864

> <Mpro-x1308_dock>
-1.878236

> <Mpro-x1425_dock>
-1.755419

> <Mpro-x0755_dock>
-1.748788

> <Mpro-x0978_dock>
-1.677384

> <Mpro-x0786_dock>
-1.556501

> <Mpro-x0981_dock>
-1.536517

> <Mpro-x0691_dock>
-1.493741

> <Mpro-x0689_dock>
-1.446877

> <Mpro-x0769_dock>
-1.3791

> <Mpro-x1384_dock>
-1.240874

> <Mpro-x0887_dock>
-0.572708

> <Mpro-x1402_dock>
-0.416087

> <site>
active-noncovalent

$$$$
DAR-DIA-23a-19
  -OEChem-04022003013D

 35 37  0     0  0  0  0  0  0999 V2000
    6.2656   -5.1940   23.7059 C   0  0  0  0  0  0  0  0  0  0  0  0
    3.6753    1.6490   21.1153 C   0  0  0  0  0  0  0  0  0  0  0  0
    4.6558    1.8365   22.0868 C   0  0  0  0  0  0  0  0  0  0  0  0
    9.6894   -3.8478   24.2725 C   0  0  0  0  0  0  0  0  0  0  0  0
    8.5860   -4.7007   24.2982 C   0  0  0  0  0  0  0  0  0  0  0  0
    4.0301    1.2052   19.8416 C   0  0  0  0  0  0  0  0  0  0  0  0
    5.9955    1.5811   21.7889 C   0  0  0  0  0  0  0  0  0  0  0  0
    9.6021   -2.6136   23.6283 C   0  0  0  0  0  0  0  0  0  0  0  0
    7.3080   -3.0854   23.0354 C   0  0  0  0  0  0  0  0  0  0  0  0
    5.7860    0.4996   18.2729 C   0  0  0  0  0  0  0  0  0  0  0  0
    7.9946    0.4301   18.8991 C   0  0  0  0  0  0  0  0  0  0  0  0
    7.3953   -4.3195   23.6796 C   0  0  0  0  0  0  0  0  0  0  0  0
    5.3751    0.9450   19.5308 C   0  0  0  0  0  0  0  0  0  0  0  0
    6.3706    1.1337   20.5116 C   0  0  0  0  0  0  0  0  0  0  0  0
    7.7050    0.8689   20.1821 C   0  0  0  0  0  0  0  0  0  0  0  0
    8.4114   -2.2324   23.0098 C   0  0  0  0  0  0  0  0  0  0  0  0
    9.3473   -0.2746   21.7307 C   0  0  0  0  0  0  0  0  0  0  0  0
    8.8287    1.0380   21.1502 C   0  0  0  0  0  0  0  0  0  0  0  0
    5.3480   -5.9042   23.7272 N   0  0  0  0  0  0  0  0  0  0  0  0
    7.0690    0.2385   17.9352 N   0  0  0  0  0  0  0  0  0  0  0  0
    8.3228   -0.9796   22.3574 N   0  0  0  0  0  0  0  0  0  0  0  0
   10.5235   -0.6079   21.6276 O   0  0  0  0  0  0  0  0  0  0  0  0
    2.6338    1.8483   21.3498 H   0  0  0  0  0  0  0  0  0  0  0  0
    4.3776    2.1819   23.0783 H   0  0  0  0  0  0  0  0  0  0  0  0
   10.6163   -4.1442   24.7549 H   0  0  0  0  0  0  0  0  0  0  0  0
    8.6701   -5.6596   24.8037 H   0  0  0  0  0  0  0  0  0  0  0  0
    3.2514    1.0640   19.0955 H   0  0  0  0  0  0  0  0  0  0  0  0
    6.7325    1.7393   22.5727 H   0  0  0  0  0  0  0  0  0  0  0  0
   10.4684   -1.9570   23.6147 H   0  0  0  0  0  0  0  0  0  0  0  0
    6.3807   -2.7849   22.5513 H   0  0  0  0  0  0  0  0  0  0  0  0
    5.0701    0.3341   17.4723 H   0  0  0  0  0  0  0  0  0  0  0  0
    9.0142    0.2113   18.5963 H   0  0  0  0  0  0  0  0  0  0  0  0
    9.6736    1.5555   20.6677 H   0  0  0  0  0  0  0  0  0  0  0  0
    8.5162    1.6834   21.9869 H   0  0  0  0  0  0  0  0  0  0  0  0
    7.4034   -0.5431   22.3449 H   0  0  0  0  0  0  0  0  0  0  0  0
  1 12  1  0  0  0  0
  1 19  3  0  0  0  0
  2  3  1  0  0  0  0
  2  6  2  0  0  0  0
  3  7  2  0  0  0  0
  4  5  2  0  0  0  0
  4  8  1  0  0  0  0
  5 12  1  0  0  0  0
  6 13  1  0  0  0  0
  7 14  1  0  0  0  0
  8 16  2  0  0  0  0
  9 12  2  0  0  0  0
  9 16  1  0  0  0  0
 10 13  2  0  0  0  0
 10 20  1  0  0  0  0
 11 15  1  0  0  0  0
 11 20  2  0  0  0  0
 13 14  1  0  0  0  0
 14 15  2  0  0  0  0
 15 18  1  0  0  0  0
 16 21  1  0  0  0  0
 17 18  1  0  0  0  0
 17 21  1  0  0  0  0
 17 22  2  0  0  0  0
  2 23  1  0  0  0  0
  3 24  1  0  0  0  0
  4 25  1  0  0  0  0
  5 26  1  0  0  0  0
  6 27  1  0  0  0  0
  7 28  1  0  0  0  0
  8 29  1  0  0  0  0
  9 30  1  0  0  0  0
 10 31  1  0  0  0  0
 11 32  1  0  0  0  0
 18 33  1  0  0  0  0
 18 34  1  0  0  0  0
 21 35  1  0  0  0  0
M  END
> <Hybrid2>
-9.985527

> <fragments>
x0107

> <Mpro-x0107_dock>
-9.985527

> <Mpro-x0678_dock>
-9.884763

> <Mpro-x0397_dock>
-9.020457

> <Mpro-x0104_dock>
-8.744043

> <Mpro-x1093_dock>
-8.559391

> <Mpro-x0831_dock>
-8.35759

> <Mpro-x0072_dock>
-8.20133

> <Mpro-x0161_dock>
-7.872717

> <Mpro-x0749_dock>
-7.790299

> <Mpro-x0195_dock>
-7.699912

> <Mpro-x0874_dock>
-7.568014

> <Mpro-x0434_dock>
-7.564874

> <Mpro-x0946_dock>
-6.98858

> <Mpro-x1077_dock>
-6.958311

> <Mpro-x0830_dock>
-6.588218

> <Mpro-x1375_dock>
-6.246279

> <Mpro-x0387_dock>
-6.110615

> <Mpro-x1249_dock>
-6.087585

> <Mpro-x1385_dock>
-5.824384

> <Mpro-x1348_dock>
-5.650251

> <Mpro-x0967_dock>
-5.608483

> <Mpro-x1392_dock>
-5.540315

> <Mpro-x1311_dock>
-5.46751

> <Mpro-x1374_dock>
-5.390961

> <Mpro-x0395_dock>
-5.351435

> <Mpro-x0305_dock>
-5.211898

> <Mpro-x0759_dock>
-5.077682

> <Mpro-x0774_dock>
-5.076839

> <Mpro-x1334_dock>
-5.060413

> <Mpro-x0708_dock>
-5.046567

> <Mpro-x1187_dock>
-4.864037

> <Mpro-x0734_dock>
-4.652501

> <Mpro-x0692_dock>
-4.622356

> <Mpro-x1386_dock>
-4.414791

> <Mpro-x0736_dock>
-3.915743

> <Mpro-x1418_dock>
-3.79571

> <Mpro-x1402_dock>
-3.703502

> <Mpro-x0354_dock>
-3.61984

> <Mpro-x0820_dock>
-3.490594

> <Mpro-x0770_dock>
-3.445755

> <Mpro-x1380_dock>
-3.441094

> <Mpro-x1412_dock>
-3.416776

> <Mpro-x0769_dock>
-3.410505

> <Mpro-x1308_dock>
-3.399273

> <Mpro-x0771_dock>
-3.208987

> <Mpro-x0540_dock>
-3.095349

> <Mpro-x0755_dock>
-3.052728

> <Mpro-x1493_dock>
-2.985451

> <Mpro-x1382_dock>
-2.624877

> <Mpro-x1384_dock>
-2.591544

> <Mpro-x0731_dock>
-2.55973

> <Mpro-x0752_dock>
-2.536841

> <Mpro-x1358_dock>
-2.458616

> <Mpro-x1478_dock>
-2.292934

> <Mpro-x0978_dock>
-2.103908

> <Mpro-x0786_dock>
-2.036034

> <Mpro-x0691_dock>
-1.991411

> <Mpro-x0426_dock>
-1.965739

> <Mpro-x1351_dock>
-1.786875

> <Mpro-x1425_dock>
-1.778763

> <Mpro-x0705_dock>
-1.686726

> <Mpro-x0981_dock>
-1.669271

> <Mpro-x1458_dock>
-1.361456

> <Mpro-x0689_dock>
-1.111098

> <Mpro-x0887_dock>
0.237375

> <site>
active-noncovalent

$$$$
BAR-COM-4e0-3
  -OEChem-04022003013D

 47 49  0     1  0  0  0  0  0999 V2000
   14.3219   -2.0217   22.5867 C   0  0  0  0  0  0  0  0  0  0  0  0
   14.3629   -1.8628   23.9718 C   0  0  0  0  0  0  0  0  0  0  0  0
    7.5746    3.3635   25.7215 C   0  0  0  0  0  0  0  0  0  0  0  0
    8.8436    3.3386   26.2998 C   0  0  0  0  0  0  0  0  0  0  0  0
    4.9793    1.4022   18.1941 C   0  0  0  0  0  0  0  0  0  0  0  0
   13.4952   -1.2050   21.8151 C   0  0  0  0  0  0  0  0  0  0  0  0
   13.5772   -0.8873   24.5855 C   0  0  0  0  0  0  0  0  0  0  0  0
    5.3388    0.9951   19.4741 C   0  0  0  0  0  0  0  0  0  0  0  0
    7.2804    2.5218   24.6487 C   0  0  0  0  0  0  0  0  0  0  0  0
    9.8185    2.4722   25.8054 C   0  0  0  0  0  0  0  0  0  0  0  0
    5.8614    1.1395   17.1584 C   0  0  0  0  0  0  0  0  0  0  0  0
    7.3637    0.1313   18.5743 C   0  0  0  0  0  0  0  0  0  0  0  0
    6.5521    0.3469   19.6764 C   0  0  0  0  0  0  0  0  0  0  0  0
   12.7094   -0.2295   22.4288 C   0  0  0  0  0  0  0  0  0  0  0  0
   12.7504   -0.0706   23.8140 C   0  0  0  0  0  0  0  0  0  0  0  0
    8.2553    1.6554   24.1543 C   0  0  0  0  0  0  0  0  0  0  0  0
    9.5244    1.6305   24.7326 C   0  0  0  0  0  0  0  0  0  0  0  0
    7.0283    1.0587   22.0382 C   0  0  0  0  0  0  0  0  0  0  0  0
   11.8327    0.6343   21.5826 C   0  0  0  0  0  0  0  0  0  0  0  0
   11.9176    0.9665   24.4935 C   0  0  0  0  0  0  0  0  0  0  0  0
    6.9712   -0.1083   21.0550 C   0  0  1  0  0  0  0  0  0  0  0  0
    7.0486    0.5123   17.3160 N   0  0  0  0  0  0  0  0  0  0  0  0
    7.9376    0.8211   23.0785 N   0  0  0  0  0  0  0  0  0  0  0  0
   10.5099    0.7777   24.2558 N   0  0  0  0  0  0  0  0  0  0  0  0
    6.3250    2.0537   21.8885 O   0  0  0  0  0  0  0  0  0  0  0  0
    6.0409   -1.0757   21.5191 O   0  0  0  0  0  0  0  0  0  0  0  0
   14.9332   -2.7817   22.1094 H   0  0  0  0  0  0  0  0  0  0  0  0
   15.0067   -2.4993   24.5720 H   0  0  0  0  0  0  0  0  0  0  0  0
    6.8159    4.0385   26.1066 H   0  0  0  0  0  0  0  0  0  0  0  0
    9.0721    3.9939   27.1352 H   0  0  0  0  0  0  0  0  0  0  0  0
    4.0383    1.9088   18.0129 H   0  0  0  0  0  0  0  0  0  0  0  0
   13.4692   -1.3379   20.7368 H   0  0  0  0  0  0  0  0  0  0  0  0
   13.6164   -0.7708   25.6654 H   0  0  0  0  0  0  0  0  0  0  0  0
    4.6678    1.1868   20.3071 H   0  0  0  0  0  0  0  0  0  0  0  0
    6.2875    2.5508   24.2069 H   0  0  0  0  0  0  0  0  0  0  0  0
   10.8040    2.4614   26.2643 H   0  0  0  0  0  0  0  0  0  0  0  0
    5.6274    1.4372   16.1415 H   0  0  0  0  0  0  0  0  0  0  0  0
    8.3221   -0.3696   18.6706 H   0  0  0  0  0  0  0  0  0  0  0  0
   10.8443    0.1746   21.4671 H   0  0  0  0  0  0  0  0  0  0  0  0
   11.7060    1.6283   22.0289 H   0  0  0  0  0  0  0  0  0  0  0  0
   12.2671    0.7844   20.5865 H   0  0  0  0  0  0  0  0  0  0  0  0
   12.0757    0.9487   25.5802 H   0  0  0  0  0  0  0  0  0  0  0  0
   12.1766    1.9767   24.1502 H   0  0  0  0  0  0  0  0  0  0  0  0
    7.9523   -0.5970   21.0183 H   0  0  0  0  0  0  0  0  0  0  0  0
    8.4326   -0.0759   23.0425 H   0  0  0  0  0  0  0  0  0  0  0  0
   10.2182   -0.0252   23.7063 H   0  0  0  0  0  0  0  0  0  0  0  0
    5.1723   -0.6419   21.5432 H   0  0  0  0  0  0  0  0  0  0  0  0
  1  2  1  0  0  0  0
  1  6  2  0  0  0  0
  2  7  2  0  0  0  0
  3  4  1  0  0  0  0
  3  9  2  0  0  0  0
  4 10  2  0  0  0  0
  5  8  2  0  0  0  0
  5 11  1  0  0  0  0
  6 14  1  0  0  0  0
  7 15  1  0  0  0  0
  8 13  1  0  0  0  0
  9 16  1  0  0  0  0
 10 17  1  0  0  0  0
 11 22  2  0  0  0  0
 12 13  2  0  0  0  0
 12 22  1  0  0  0  0
 13 21  1  0  0  0  0
 14 15  2  0  0  0  0
 14 19  1  0  0  0  0
 15 20  1  0  0  0  0
 16 17  2  0  0  0  0
 16 23  1  0  0  0  0
 17 24  1  0  0  0  0
 18 21  1  0  0  0  0
 18 23  1  0  0  0  0
 18 25  2  0  0  0  0
 20 24  1  0  0  0  0
 21 26  1  0  0  0  0
  1 27  1  0  0  0  0
  2 28  1  0  0  0  0
  3 29  1  0  0  0  0
  4 30  1  0  0  0  0
  5 31  1  0  0  0  0
  6 32  1  0  0  0  0
  7 33  1  0  0  0  0
  8 34  1  0  0  0  0
  9 35  1  0  0  0  0
 10 36  1  0  0  0  0
 11 37  1  0  0  0  0
 12 38  1  0  0  0  0
 19 39  1  0  0  0  0
 19 40  1  0  0  0  0
 19 41  1  0  0  0  0
 20 42  1  0  0  0  0
 20 43  1  0  0  0  0
 21 44  1  0  0  0  0
 23 45  1  0  0  0  0
 24 46  1  0  0  0  0
 26 47  1  0  0  0  0
M  END
> <Hybrid2>
-9.960861

> <fragments>
x0678

> <Mpro-x0678_dock>
-9.960861

> <Mpro-x0831_dock>
-9.552912

> <Mpro-x0397_dock>
-8.696431

> <Mpro-x0107_dock>
-8.519436

> <Mpro-x0195_dock>
-8.066863

> <Mpro-x0434_dock>
-7.792721

> <Mpro-x0749_dock>
-7.629876

> <Mpro-x1077_dock>
-7.57639

> <Mpro-x1418_dock>
-7.346755

> <Mpro-x0692_dock>
-7.082593

> <Mpro-x0967_dock>
-6.744267

> <Mpro-x0104_dock>
-6.53576

> <Mpro-x0387_dock>
-6.535367

> <Mpro-x0946_dock>
-6.335861

> <Mpro-x0874_dock>
-6.159046

> <Mpro-x1386_dock>
-6.010069

> <Mpro-x0708_dock>
-5.947698

> <Mpro-x0759_dock>
-5.816286

> <Mpro-x1392_dock>
-5.680271

> <Mpro-x1093_dock>
-5.220448

> <Mpro-x0770_dock>
-5.169117

> <Mpro-x0161_dock>
-5.077664

> <Mpro-x1385_dock>
-4.939123

> <Mpro-x0830_dock>
-4.784291

> <Mpro-x1458_dock>
-4.637364

> <Mpro-x0305_dock>
-4.581553

> <Mpro-x1412_dock>
-4.514762

> <Mpro-x0774_dock>
-4.408894

> <Mpro-x0354_dock>
-4.185058

> <Mpro-x0426_dock>
-3.68128

> <Mpro-x0395_dock>
-3.673569

> <Mpro-x0072_dock>
-3.44834

> <Mpro-x0736_dock>
-3.348172

> <Mpro-x1493_dock>
-3.196632

> <Mpro-x1308_dock>
-3.14454

> <Mpro-x0691_dock>
-3.015423

> <Mpro-x1380_dock>
-2.948732

> <Mpro-x0734_dock>
-2.931461

> <Mpro-x0769_dock>
-2.791978

> <Mpro-x1249_dock>
-2.475421

> <Mpro-x0755_dock>
-2.461401

> <Mpro-x0820_dock>
-2.428228

> <Mpro-x1478_dock>
-2.387922

> <Mpro-x1348_dock>
-2.268704

> <Mpro-x0689_dock>
-2.128178

> <Mpro-x1187_dock>
-1.979288

> <Mpro-x1334_dock>
-1.963882

> <Mpro-x1384_dock>
-1.812615

> <Mpro-x1402_dock>
-1.784639

> <Mpro-x1351_dock>
-1.594941

> <Mpro-x0771_dock>
-1.533289

> <Mpro-x0540_dock>
-1.512419

> <Mpro-x0978_dock>
-0.766858

> <Mpro-x1358_dock>
-0.631305

> <Mpro-x0887_dock>
-0.57882

> <Mpro-x1425_dock>
-0.512976

> <Mpro-x1375_dock>
-0.266198

> <Mpro-x1374_dock>
-0.264268

> <Mpro-x0786_dock>
0.067878

> <Mpro-x0981_dock>
0.247484

> <Mpro-x0731_dock>
0.251576

> <Mpro-x1311_dock>
0.772184

> <Mpro-x0752_dock>
1.277019

> <Mpro-x0705_dock>
1.747578

> <Mpro-x1382_dock>
1.789131

> <site>
active-noncovalent

$$$$
BAR-COM-4e0-53
  -OEChem-04022003013D

 39 41  0     1  0  0  0  0  0999 V2000
   13.9624   -1.7675   22.6262 C   0  0  0  0  0  0  0  0  0  0  0  0
   14.2295   -0.3995   22.6794 C   0  0  0  0  0  0  0  0  0  0  0  0
   12.6468   -2.2173   22.5137 C   0  0  0  0  0  0  0  0  0  0  0  0
   11.8656    0.0688   22.5077 C   0  0  0  0  0  0  0  0  0  0  0  0
   10.8070    7.1472   24.6127 C   0  0  0  0  0  0  0  0  0  0  0  0
   12.0200    6.7823   25.1538 C   0  0  0  0  0  0  0  0  0  0  0  0
   11.1506    5.7062   22.8705 C   0  0  0  0  0  0  0  0  0  0  0  0
   13.1811    0.5187   22.6201 C   0  0  0  0  0  0  0  0  0  0  0  0
   11.5984   -1.2992   22.4544 C   0  0  0  0  0  0  0  0  0  0  0  0
   12.3640    5.3418   23.4112 C   0  0  0  0  0  0  0  0  0  0  0  0
    8.1009   -2.3136   24.5565 C   0  0  0  0  0  0  0  0  0  0  0  0
   12.5358    2.9540   22.6322 C   0  0  0  0  0  0  0  0  0  0  0  0
    9.5641   -1.8833   24.7478 C   0  0  0  0  0  0  0  0  0  0  0  0
    9.8229   -2.5745   23.3909 C   0  0  1  0  0  0  0  0  0  0  0  0
   13.6734    4.8064   21.3340 C   0  0  0  0  0  0  0  0  0  0  0  0
   13.2392    4.3137   22.7169 C   0  0  1  0  0  0  0  0  0  0  0  0
   10.3504    6.6157   23.4613 N   0  0  0  0  0  0  0  0  0  0  0  0
   12.8203    5.8731   24.5628 N   0  0  0  0  0  0  0  0  0  0  0  0
    8.3985   -2.8833   23.3597 N   0  0  0  0  0  0  0  0  0  0  0  0
   13.4489    1.8870   22.6731 N   0  0  0  0  0  0  0  0  0  0  0  0
    7.0692   -2.2123   25.1792 O   0  0  0  0  0  0  0  0  0  0  0  0
   11.3143    2.8657   22.5467 O   0  0  0  0  0  0  0  0  0  0  0  0
   10.3146   -1.7381   22.3448 O   0  0  0  0  0  0  0  0  0  0  0  0
   14.7789   -2.4820   22.6714 H   0  0  0  0  0  0  0  0  0  0  0  0
   15.2585   -0.0604   22.7676 H   0  0  0  0  0  0  0  0  0  0  0  0
   12.4457   -3.2842   22.4721 H   0  0  0  0  0  0  0  0  0  0  0  0
   11.0447    0.7810   22.4606 H   0  0  0  0  0  0  0  0  0  0  0  0
   10.1646    7.8780   25.0881 H   0  0  0  0  0  0  0  0  0  0  0  0
   12.3861    7.2097   26.0791 H   0  0  0  0  0  0  0  0  0  0  0  0
   10.7771    5.2831   21.9454 H   0  0  0  0  0  0  0  0  0  0  0  0
    9.7044   -0.7994   24.7640 H   0  0  0  0  0  0  0  0  0  0  0  0
   10.0572   -2.3427   25.6081 H   0  0  0  0  0  0  0  0  0  0  0  0
   10.4253   -3.4864   23.4721 H   0  0  0  0  0  0  0  0  0  0  0  0
   12.7998    4.9778   20.6950 H   0  0  0  0  0  0  0  0  0  0  0  0
   14.2288    5.7496   21.3864 H   0  0  0  0  0  0  0  0  0  0  0  0
   14.3150    4.0689   20.8391 H   0  0  0  0  0  0  0  0  0  0  0  0
   14.1569    4.1628   23.3025 H   0  0  0  0  0  0  0  0  0  0  0  0
    7.8065   -3.3726   22.7027 H   0  0  0  0  0  0  0  0  0  0  0  0
   14.4369    2.1521   22.7557 H   0  0  0  0  0  0  0  0  0  0  0  0
  1  2  2  0  0  0  0
  1  3  1  0  0  0  0
  2  8  1  0  0  0  0
  3  9  2  0  0  0  0
  4  8  2  0  0  0  0
  4  9  1  0  0  0  0
  5  6  2  0  0  0  0
  5 17  1  0  0  0  0
  6 18  1  0  0  0  0
  7 10  1  0  0  0  0
  7 17  2  0  0  0  0
  8 20  1  0  0  0  0
  9 23  1  0  0  0  0
 10 16  1  0  0  0  0
 10 18  2  0  0  0  0
 11 13  1  0  0  0  0
 11 19  1  0  0  0  0
 11 21  2  0  0  0  0
 12 16  1  0  0  0  0
 12 20  1  0  0  0  0
 12 22  2  0  0  0  0
 13 14  1  0  0  0  0
 14 19  1  0  0  0  0
 14 23  1  0  0  0  0
 15 16  1  0  0  0  0
  1 24  1  0  0  0  0
  2 25  1  0  0  0  0
  3 26  1  0  0  0  0
  4 27  1  0  0  0  0
  5 28  1  0  0  0  0
  6 29  1  0  0  0  0
  7 30  1  0  0  0  0
 13 31  1  0  0  0  0
 13 32  1  0  0  0  0
 14 33  1  0  0  0  0
 15 34  1  0  0  0  0
 15 35  1  0  0  0  0
 15 36  1  0  0  0  0
 16 37  1  0  0  0  0
 19 38  1  0  0  0  0
 20 39  1  0  0  0  0
M  END
> <Hybrid2>
-9.905735

> <fragments>
x0195

> <Mpro-x0195_dock>
-9.905735

> <Mpro-x0678_dock>
-8.859419

> <Mpro-x0830_dock>
-7.559346

> <Mpro-x0397_dock>
-7.547902

> <Mpro-x0107_dock>
-7.466109

> <Mpro-x0161_dock>
-6.672324

> <Mpro-x0749_dock>
-6.501001

> <Mpro-x0946_dock>
-6.415445

> <Mpro-x0967_dock>
-6.026215

> <Mpro-x1093_dock>
-5.763483

> <Mpro-x0692_dock>
-5.328867

> <Mpro-x0072_dock>
-5.263374

> <Mpro-x0874_dock>
-4.919514

> <Mpro-x1077_dock>
-4.884475

> <Mpro-x0395_dock>
-4.802766

> <Mpro-x0104_dock>
-4.675074

> <Mpro-x1385_dock>
-4.665495

> <Mpro-x0831_dock>
-4.597223

> <Mpro-x0305_dock>
-4.370231

> <Mpro-x0708_dock>
-4.258758

> <Mpro-x1392_dock>
-4.174536

> <Mpro-x0387_dock>
-4.158635

> <Mpro-x0759_dock>
-3.817518

> <Mpro-x1458_dock>
-3.741213

> <Mpro-x1187_dock>
-3.620065

> <Mpro-x1311_dock>
-3.364915

> <Mpro-x1418_dock>
-3.337198

> <Mpro-x1334_dock>
-3.250737

> <Mpro-x1358_dock>
-3.151972

> <Mpro-x0770_dock>
-3.135801

> <Mpro-x1249_dock>
-3.096649

> <Mpro-x0434_dock>
-3.038799

> <Mpro-x1386_dock>
-3.008502

> <Mpro-x1478_dock>
-2.873002

> <Mpro-x0354_dock>
-2.80052

> <Mpro-x0426_dock>
-2.560888

> <Mpro-x1384_dock>
-2.477062

> <Mpro-x1348_dock>
-2.473015

> <Mpro-x0540_dock>
-2.156828

> <Mpro-x1380_dock>
-1.597094

> <Mpro-x0736_dock>
-1.369393

> <Mpro-x1308_dock>
-1.307404

> <Mpro-x1412_dock>
-1.288595

> <Mpro-x0887_dock>
-1.245298

> <Mpro-x0774_dock>
-1.181336

> <Mpro-x0769_dock>
-1.163251

> <Mpro-x1493_dock>
-0.974062

> <Mpro-x1425_dock>
-0.850473

> <Mpro-x1402_dock>
-0.706249

> <Mpro-x1351_dock>
-0.588621

> <Mpro-x1375_dock>
-0.57715

> <Mpro-x0691_dock>
-0.390222

> <Mpro-x0755_dock>
-0.259781

> <Mpro-x0705_dock>
-0.191789

> <Mpro-x0978_dock>
-0.164985

> <Mpro-x0820_dock>
-0.075778

> <Mpro-x0689_dock>
0.018325

> <Mpro-x0771_dock>
0.100869

> <Mpro-x0786_dock>
0.104686

> <Mpro-x0734_dock>
0.148681

> <Mpro-x0731_dock>
0.319755

> <Mpro-x1374_dock>
0.550763

> <Mpro-x0981_dock>
1.270485

> <Mpro-x0752_dock>
1.793492

> <Mpro-x1382_dock>
1.899803

> <site>
active-noncovalent

$$$$
WAR-XCH-b68-26
  -OEChem-04022003013D

 44 46  0     0  0  0  0  0  0999 V2000
    7.2326   -3.8033   26.3206 C   0  0  0  0  0  0  0  0  0  0  0  0
    6.2402   -5.1780   24.5994 C   0  0  0  0  0  0  0  0  0  0  0  0
   11.5445    0.1886   23.5914 C   0  0  0  0  0  0  0  0  0  0  0  0
   12.4132   -1.7815   22.4954 C   0  0  0  0  0  0  0  0  0  0  0  0
   12.6825    0.2427   24.3962 C   0  0  0  0  0  0  0  0  0  0  0  0
   13.5513   -1.7274   23.3001 C   0  0  0  0  0  0  0  0  0  0  0  0
    6.6690   -4.6219   27.2993 C   0  0  0  0  0  0  0  0  0  0  0  0
    5.6767   -5.9966   25.5782 C   0  0  0  0  0  0  0  0  0  0  0  0
    7.0181   -4.0813   24.9706 C   0  0  0  0  0  0  0  0  0  0  0  0
   11.4098   -0.8236   22.6410 C   0  0  0  0  0  0  0  0  0  0  0  0
   13.6859   -0.7153   24.2505 C   0  0  0  0  0  0  0  0  0  0  0  0
    5.8911   -5.7185   26.9281 C   0  0  0  0  0  0  0  0  0  0  0  0
    8.4845   -1.0498   23.4917 C   0  0  0  0  0  0  0  0  0  0  0  0
    9.3852   -3.0975   22.3546 C   0  0  0  0  0  0  0  0  0  0  0  0
    7.2529   -1.8450   23.9269 C   0  0  0  0  0  0  0  0  0  0  0  0
    8.1365   -3.8639   22.7831 C   0  0  0  0  0  0  0  0  0  0  0  0
    9.0893   -1.6042   22.2011 C   0  0  0  0  0  0  0  0  0  0  0  0
    7.5742   -3.2736   24.0040 N   0  0  0  0  0  0  0  0  0  0  0  0
    6.4240   -7.9008   28.3629 N   0  0  0  0  0  0  0  0  0  0  0  0
   10.2824   -0.8772   21.8438 N   0  0  0  0  0  0  0  0  0  0  0  0
    5.0518   -5.9693   29.3788 O   0  0  0  0  0  0  0  0  0  0  0  0
    4.0184   -7.4055   27.5852 O   0  0  0  0  0  0  0  0  0  0  0  0
   14.7787   -0.6633   25.0233 F   0  0  0  0  0  0  0  0  0  0  0  0
    5.1848   -6.7433   28.1525 S   0  0  0  0  0  0  0  0  0  0  0  0
    7.8368   -2.9511   26.6210 H   0  0  0  0  0  0  0  0  0  0  0  0
    6.0676   -5.4043   23.5502 H   0  0  0  0  0  0  0  0  0  0  0  0
   10.7689    0.9403   23.7131 H   0  0  0  0  0  0  0  0  0  0  0  0
   12.3185   -2.5747   21.7582 H   0  0  0  0  0  0  0  0  0  0  0  0
   12.7878    1.0306   25.1360 H   0  0  0  0  0  0  0  0  0  0  0  0
   14.3326   -2.4731   23.1874 H   0  0  0  0  0  0  0  0  0  0  0  0
    6.8426   -4.3957   28.3479 H   0  0  0  0  0  0  0  0  0  0  0  0
    5.0721   -6.8483   25.2774 H   0  0  0  0  0  0  0  0  0  0  0  0
    8.1927   -0.0071   23.3289 H   0  0  0  0  0  0  0  0  0  0  0  0
    9.2270   -1.0448   24.2946 H   0  0  0  0  0  0  0  0  0  0  0  0
   10.1880   -3.2578   23.0746 H   0  0  0  0  0  0  0  0  0  0  0  0
    9.7319   -3.4901   21.3965 H   0  0  0  0  0  0  0  0  0  0  0  0
    6.8907   -1.4863   24.8984 H   0  0  0  0  0  0  0  0  0  0  0  0
    6.4537   -1.6744   23.1950 H   0  0  0  0  0  0  0  0  0  0  0  0
    7.4020   -3.8191   21.9685 H   0  0  0  0  0  0  0  0  0  0  0  0
    8.3742   -4.9224   22.9520 H   0  0  0  0  0  0  0  0  0  0  0  0
    8.3577   -1.4716   21.3837 H   0  0  0  0  0  0  0  0  0  0  0  0
    6.9683   -7.8713   29.2337 H   0  0  0  0  0  0  0  0  0  0  0  0
    6.2619   -8.8506   28.0067 H   0  0  0  0  0  0  0  0  0  0  0  0
   10.2865   -0.3845   20.9613 H   0  0  0  0  0  0  0  0  0  0  0  0
  1  7  2  0  0  0  0
  1  9  1  0  0  0  0
  2  8  1  0  0  0  0
  2  9  2  0  0  0  0
  3  5  2  0  0  0  0
  3 10  1  0  0  0  0
  4  6  1  0  0  0  0
  4 10  2  0  0  0  0
  5 11  1  0  0  0  0
  6 11  2  0  0  0  0
  7 12  1  0  0  0  0
  8 12  2  0  0  0  0
  9 18  1  0  0  0  0
 10 20  1  0  0  0  0
 11 23  1  0  0  0  0
 12 24  1  0  0  0  0
 13 15  1  0  0  0  0
 13 17  1  0  0  0  0
 14 16  1  0  0  0  0
 14 17  1  0  0  0  0
 15 18  1  0  0  0  0
 16 18  1  0  0  0  0
 17 20  1  0  0  0  0
 19 24  1  0  0  0  0
 21 24  2  0  0  0  0
 22 24  2  0  0  0  0
  1 25  1  0  0  0  0
  2 26  1  0  0  0  0
  3 27  1  0  0  0  0
  4 28  1  0  0  0  0
  5 29  1  0  0  0  0
  6 30  1  0  0  0  0
  7 31  1  0  0  0  0
  8 32  1  0  0  0  0
 13 33  1  0  0  0  0
 13 34  1  0  0  0  0
 14 35  1  0  0  0  0
 14 36  1  0  0  0  0
 15 37  1  0  0  0  0
 15 38  1  0  0  0  0
 16 39  1  0  0  0  0
 16 40  1  0  0  0  0
 17 41  1  0  0  0  0
 19 42  1  0  0  0  0
 19 43  1  0  0  0  0
 20 44  1  0  0  0  0
M  END
> <Hybrid2>
-9.858924

> <fragments>
x0072

> <Mpro-x0072_dock>
-9.858924

> <Mpro-x0161_dock>
-8.399319

> <Mpro-x0104_dock>
-7.578349

> <Mpro-x1093_dock>
-7.116189

> <Mpro-x0395_dock>
-6.835737

> <Mpro-x0305_dock>
-6.682051

> <Mpro-x0874_dock>
-5.969228

> <Mpro-x0387_dock>
-5.762285

> <Mpro-x0195_dock>
-5.700836

> <Mpro-x1077_dock>
-5.637368

> <Mpro-x0967_dock>
-5.224274

> <Mpro-x0107_dock>
-4.879608

> <Mpro-x0397_dock>
-4.589445

> <Mpro-x0830_dock>
-4.485539

> <Mpro-x1249_dock>
-4.464998

> <Mpro-x1311_dock>
-4.043026

> <Mpro-x0434_dock>
-3.611412

> <Mpro-x0749_dock>
-3.513435

> <Mpro-x0946_dock>
-3.508342

> <Mpro-x1187_dock>
-3.300398

> <Mpro-x1385_dock>
-3.195905

> <Mpro-x0678_dock>
-2.85243

> <Mpro-x1380_dock>
-2.836645

> <Mpro-x1392_dock>
-2.813882

> <Mpro-x0354_dock>
-2.688645

> <Mpro-x1374_dock>
-2.615812

> <Mpro-x0978_dock>
-2.362345

> <Mpro-x1358_dock>
-1.906417

> <Mpro-x1478_dock>
-1.79819

> <Mpro-x1334_dock>
-1.792011

> <Mpro-x1375_dock>
-1.730361

> <Mpro-x0692_dock>
-1.658526

> <Mpro-x0887_dock>
-1.526203

> <Mpro-x1493_dock>
-1.208242

> <Mpro-x0831_dock>
-0.974605

> <Mpro-x0708_dock>
-0.723165

> <Mpro-x0540_dock>
-0.476971

> <Mpro-x1384_dock>
-0.258865

> <Mpro-x0771_dock>
-0.159882

> <Mpro-x0426_dock>
-0.113227

> <Mpro-x1348_dock>
0.044991

> <Mpro-x0734_dock>
0.150638

> <Mpro-x0769_dock>
0.188507

> <Mpro-x1458_dock>
0.246545

> <Mpro-x1412_dock>
0.286778

> <Mpro-x0981_dock>
0.43379

> <Mpro-x1425_dock>
0.530986

> <Mpro-x1308_dock>
0.536991

> <Mpro-x0691_dock>
0.806024

> <Mpro-x0820_dock>
0.834628

> <Mpro-x0752_dock>
0.987523

> <Mpro-x1351_dock>
1.029852

> <Mpro-x0689_dock>
1.259156

> <Mpro-x0736_dock>
1.408913

> <Mpro-x1418_dock>
1.433233

> <Mpro-x0731_dock>
1.565419

> <Mpro-x0774_dock>
1.692636

> <Mpro-x0770_dock>
1.74627

> <Mpro-x1386_dock>
1.850351

> <Mpro-x0786_dock>
1.875738

> <Mpro-x1402_dock>
2.068623

> <Mpro-x0755_dock>
2.258416

> <Mpro-x0705_dock>
2.515076

> <Mpro-x0759_dock>
2.626569

> <Mpro-x1382_dock>
3.298033

> <site>
active-noncovalent

$$$$
ANT-DIA-3c7-4
  -OEChem-04022003013D

 31 32  0     0  0  0  0  0  0999 V2000
    4.7496    0.7223   19.0537 C   0  0  0  0  0  0  0  0  0  0  0  0
    5.4968    0.6232   20.2221 C   0  0  0  0  0  0  0  0  0  0  0  0
   10.5456    0.9016   23.5341 C   0  0  0  0  0  0  0  0  0  0  0  0
   10.6125    0.2213   24.7734 C   0  0  0  0  0  0  0  0  0  0  0  0
    5.4075    0.5495   17.8465 C   0  0  0  0  0  0  0  0  0  0  0  0
    7.4231    0.2013   18.8925 C   0  0  0  0  0  0  0  0  0  0  0  0
    6.8598    0.3580   20.1487 C   0  0  0  0  0  0  0  0  0  0  0  0
    9.5370    0.2972   22.8205 C   0  0  0  0  0  0  0  0  0  0  0  0
    9.6398   -0.7502   24.7288 C   0  0  0  0  0  0  0  0  0  0  0  0
    9.0008    0.5593   21.4739 C   0  0  0  0  0  0  0  0  0  0  0  0
    8.0724   -4.2917   26.0512 C   0  0  0  0  0  0  0  0  0  0  0  0
    9.2010   -1.7779   25.6836 C   0  0  0  0  0  0  0  0  0  0  0  0
    6.7297    0.2907   17.7355 N   0  0  0  0  0  0  0  0  0  0  0  0
    7.6340    0.2534   21.3016 N   0  0  0  0  0  0  0  0  0  0  0  0
    9.7255    0.9821   20.5756 O   0  0  0  0  0  0  0  0  0  0  0  0
    7.3462   -2.7143   24.0975 O   0  0  0  0  0  0  0  0  0  0  0  0
    9.6447   -3.7557   24.0331 O   0  0  0  0  0  0  0  0  0  0  0  0
    8.9796   -0.7106   23.5418 O   0  0  0  0  0  0  0  0  0  0  0  0
    8.5528   -3.1523   24.7749 S   0  0  0  0  0  0  0  0  0  0  0  0
    3.6859    0.9284   19.0870 H   0  0  0  0  0  0  0  0  0  0  0  0
    5.0075    0.7542   21.1836 H   0  0  0  0  0  0  0  0  0  0  0  0
   11.1581    1.7289   23.2049 H   0  0  0  0  0  0  0  0  0  0  0  0
   11.2874    0.4165   25.5946 H   0  0  0  0  0  0  0  0  0  0  0  0
    4.8696    0.6180   16.9067 H   0  0  0  0  0  0  0  0  0  0  0  0
    8.4819   -0.0074   18.7707 H   0  0  0  0  0  0  0  0  0  0  0  0
    7.6556   -5.1825   25.5786 H   0  0  0  0  0  0  0  0  0  0  0  0
    8.9576   -4.5476   26.6355 H   0  0  0  0  0  0  0  0  0  0  0  0
    7.3247   -3.8077   26.6813 H   0  0  0  0  0  0  0  0  0  0  0  0
    8.4012   -1.4321   26.3620 H   0  0  0  0  0  0  0  0  0  0  0  0
   10.0191   -2.1652   26.3165 H   0  0  0  0  0  0  0  0  0  0  0  0
    7.1455   -0.0922   22.1370 H   0  0  0  0  0  0  0  0  0  0  0  0
  1  2  2  0  0  0  0
  1  5  1  0  0  0  0
  2  7  1  0  0  0  0
  3  4  1  0  0  0  0
  3  8  2  0  0  0  0
  4  9  2  0  0  0  0
  5 13  2  0  0  0  0
  6  7  2  0  0  0  0
  6 13  1  0  0  0  0
  7 14  1  0  0  0  0
  8 10  1  0  0  0  0
  8 18  1  0  0  0  0
  9 12  1  0  0  0  0
  9 18  1  0  0  0  0
 10 14  1  0  0  0  0
 10 15  2  0  0  0  0
 11 19  1  0  0  0  0
 12 19  1  0  0  0  0
 16 19  2  0  0  0  0
 17 19  2  0  0  0  0
  1 20  1  0  0  0  0
  2 21  1  0  0  0  0
  3 22  1  0  0  0  0
  4 23  1  0  0  0  0
  5 24  1  0  0  0  0
  6 25  1  0  0  0  0
 11 26  1  0  0  0  0
 11 27  1  0  0  0  0
 11 28  1  0  0  0  0
 12 29  1  0  0  0  0
 12 30  1  0  0  0  0
 14 31  1  0  0  0  0
M  END
> <Hybrid2>
-9.845098

> <fragments>
x0107

> <Mpro-x0107_dock>
-9.845098

> <Mpro-x0397_dock>
-8.985697

> <Mpro-x0678_dock>
-8.533636

> <Mpro-x0195_dock>
-8.519955

> <Mpro-x0104_dock>
-7.624078

> <Mpro-x1077_dock>
-7.432212

> <Mpro-x0749_dock>
-7.179749

> <Mpro-x0161_dock>
-6.666199

> <Mpro-x0946_dock>
-6.565068

> <Mpro-x1093_dock>
-6.42849

> <Mpro-x1311_dock>
-5.652093

> <Mpro-x1392_dock>
-5.513195

> <Mpro-x0874_dock>
-5.33575

> <Mpro-x0434_dock>
-5.180794

> <Mpro-x0072_dock>
-5.176155

> <Mpro-x1386_dock>
-5.060738

> <Mpro-x0734_dock>
-5.028097

> <Mpro-x1334_dock>
-4.956047

> <Mpro-x0830_dock>
-4.713092

> <Mpro-x1348_dock>
-4.597612

> <Mpro-x0967_dock>
-4.459441

> <Mpro-x1385_dock>
-4.457836

> <Mpro-x0831_dock>
-4.433781

> <Mpro-x0708_dock>
-4.389649

> <Mpro-x1412_dock>
-4.372578

> <Mpro-x1187_dock>
-4.33744

> <Mpro-x0387_dock>
-4.293013

> <Mpro-x1418_dock>
-3.918478

> <Mpro-x1375_dock>
-3.916994

> <Mpro-x0354_dock>
-3.613152

> <Mpro-x1458_dock>
-3.598019

> <Mpro-x0692_dock>
-3.56986

> <Mpro-x1374_dock>
-3.501779

> <Mpro-x1249_dock>
-3.457183

> <Mpro-x0770_dock>
-3.348268

> <Mpro-x1493_dock>
-3.28169

> <Mpro-x0305_dock>
-3.248523

> <Mpro-x0540_dock>
-3.060097

> <Mpro-x0774_dock>
-3.026133

> <Mpro-x1380_dock>
-2.988566

> <Mpro-x0759_dock>
-2.812635

> <Mpro-x0426_dock>
-2.548177

> <Mpro-x0395_dock>
-2.461432

> <Mpro-x0820_dock>
-2.281417

> <Mpro-x1478_dock>
-1.906067

> <Mpro-x1384_dock>
-1.768331

> <Mpro-x1358_dock>
-1.264308

> <Mpro-x1308_dock>
-1.230329

> <Mpro-x0736_dock>
-1.18104

> <Mpro-x0769_dock>
-0.914941

> <Mpro-x0978_dock>
-0.869694

> <Mpro-x0755_dock>
-0.566898

> <Mpro-x1351_dock>
-0.493614

> <Mpro-x1402_dock>
-0.356675

> <Mpro-x0887_dock>
-0.186576

> <Mpro-x0731_dock>
-0.075232

> <Mpro-x0786_dock>
0.135462

> <Mpro-x0705_dock>
0.139436

> <Mpro-x1382_dock>
0.20814

> <Mpro-x1425_dock>
0.301023

> <Mpro-x0691_dock>
0.396343

> <Mpro-x0771_dock>
0.454633

> <Mpro-x0752_dock>
0.848334

> <Mpro-x0689_dock>
0.890696

> <Mpro-x0981_dock>
1.335997

> <site>
active-noncovalent

$$$$
DAR-DIA-23a-12
  -OEChem-04022003013D

 32 34  0     0  0  0  0  0  0999 V2000
    6.5265   -5.8869   22.1428 C   0  0  0  0  0  0  0  0  0  0  0  0
    5.1698    1.2448   18.8547 C   0  0  0  0  0  0  0  0  0  0  0  0
    5.6322    1.0082   20.1479 C   0  0  0  0  0  0  0  0  0  0  0  0
    6.8415   -4.5535   21.8812 C   0  0  0  0  0  0  0  0  0  0  0  0
    6.0757   -6.2617   23.4085 C   0  0  0  0  0  0  0  0  0  0  0  0
    6.2550   -3.9697   24.1511 C   0  0  0  0  0  0  0  0  0  0  0  0
    5.9713    0.8793   17.7815 C   0  0  0  0  0  0  0  0  0  0  0  0
    8.8648   -0.5341   20.8633 C   0  0  0  0  0  0  0  0  0  0  0  0
    6.8934    0.4082   20.2938 C   0  0  0  0  0  0  0  0  0  0  0  0
    7.7092    0.0068   21.3845 C   0  0  0  0  0  0  0  0  0  0  0  0
    6.7058   -3.5949   22.8854 C   0  0  0  0  0  0  0  0  0  0  0  0
    5.9399   -5.3031   24.4126 C   0  0  0  0  0  0  0  0  0  0  0  0
    7.5910    0.0932   19.1313 C   0  0  0  0  0  0  0  0  0  0  0  0
    6.9510   -1.1635   23.4961 C   0  0  0  0  0  0  0  0  0  0  0  0
    7.3881    0.1405   22.8196 C   0  0  0  0  0  0  0  0  0  0  0  0
    7.1916    0.2998   17.8622 N   0  0  0  0  0  0  0  0  0  0  0  0
    8.7825   -0.4763   19.4962 N   0  0  0  0  0  0  0  0  0  0  0  0
    7.0267   -2.2425   22.6190 N   0  0  0  0  0  0  0  0  0  0  0  0
    6.5892   -1.1828   24.6682 O   0  0  0  0  0  0  0  0  0  0  0  0
    5.3837   -5.7654   25.9743 Cl  0  0  0  0  0  0  0  0  0  0  0  0
    6.6323   -6.6333   21.3607 H   0  0  0  0  0  0  0  0  0  0  0  0
    4.2018    1.7062   18.6910 H   0  0  0  0  0  0  0  0  0  0  0  0
    5.0302    1.2812   21.0085 H   0  0  0  0  0  0  0  0  0  0  0  0
    7.1921   -4.2732   20.8909 H   0  0  0  0  0  0  0  0  0  0  0  0
    5.8338   -7.3044   23.5972 H   0  0  0  0  0  0  0  0  0  0  0  0
    6.1499   -3.2194   24.9317 H   0  0  0  0  0  0  0  0  0  0  0  0
    5.6264    1.0555   16.7660 H   0  0  0  0  0  0  0  0  0  0  0  0
    9.7383   -0.9556   21.3413 H   0  0  0  0  0  0  0  0  0  0  0  0
    8.2559    0.5310   23.3868 H   0  0  0  0  0  0  0  0  0  0  0  0
    6.5808    0.8822   22.9780 H   0  0  0  0  0  0  0  0  0  0  0  0
    9.4923   -0.8022   18.8549 H   0  0  0  0  0  0  0  0  0  0  0  0
    7.3505   -2.0343   21.6767 H   0  0  0  0  0  0  0  0  0  0  0  0
  1  4  2  0  0  0  0
  1  5  1  0  0  0  0
  2  3  2  0  0  0  0
  2  7  1  0  0  0  0
  3  9  1  0  0  0  0
  4 11  1  0  0  0  0
  5 12  2  0  0  0  0
  6 11  2  0  0  0  0
  6 12  1  0  0  0  0
  7 16  2  0  0  0  0
  8 10  2  0  0  0  0
  8 17  1  0  0  0  0
  9 10  1  0  0  0  0
  9 13  2  0  0  0  0
 10 15  1  0  0  0  0
 11 18  1  0  0  0  0
 12 20  1  0  0  0  0
 13 16  1  0  0  0  0
 13 17  1  0  0  0  0
 14 15  1  0  0  0  0
 14 18  1  0  0  0  0
 14 19  2  0  0  0  0
  1 21  1  0  0  0  0
  2 22  1  0  0  0  0
  3 23  1  0  0  0  0
  4 24  1  0  0  0  0
  5 25  1  0  0  0  0
  6 26  1  0  0  0  0
  7 27  1  0  0  0  0
  8 28  1  0  0  0  0
 15 29  1  0  0  0  0
 15 30  1  0  0  0  0
 17 31  1  0  0  0  0
 18 32  1  0  0  0  0
M  END
> <Hybrid2>
-9.791058

> <fragments>
x0397

> <Mpro-x0397_dock>
-9.791058

> <Mpro-x0749_dock>
-9.757566

> <Mpro-x0107_dock>
-9.622427

> <Mpro-x0874_dock>
-8.443625

> <Mpro-x1386_dock>
-8.315467

> <Mpro-x0830_dock>
-8.129923

> <Mpro-x1093_dock>
-8.014277

> <Mpro-x0678_dock>
-7.947905

> <Mpro-x0195_dock>
-7.781282

> <Mpro-x0831_dock>
-7.756413

> <Mpro-x0387_dock>
-7.68278

> <Mpro-x1418_dock>
-7.635669

> <Mpro-x0104_dock>
-7.634321

> <Mpro-x0161_dock>
-7.544698

> <Mpro-x0692_dock>
-7.378778

> <Mpro-x0072_dock>
-7.376869

> <Mpro-x0770_dock>
-7.32957

> <Mpro-x0434_dock>
-7.218801

> <Mpro-x1392_dock>
-6.901742

> <Mpro-x1077_dock>
-6.604033

> <Mpro-x0967_dock>
-6.535064

> <Mpro-x0946_dock>
-6.463117

> <Mpro-x1334_dock>
-6.021942

> <Mpro-x1385_dock>
-5.763351

> <Mpro-x0759_dock>
-5.74536

> <Mpro-x0708_dock>
-5.528215

> <Mpro-x1311_dock>
-5.496367

> <Mpro-x0774_dock>
-5.447498

> <Mpro-x0395_dock>
-5.333969

> <Mpro-x1348_dock>
-5.288498

> <Mpro-x1249_dock>
-4.815082

> <Mpro-x1493_dock>
-4.768746

> <Mpro-x1412_dock>
-4.755564

> <Mpro-x0540_dock>
-4.706901

> <Mpro-x1375_dock>
-4.683084

> <Mpro-x1187_dock>
-4.6294

> <Mpro-x0426_dock>
-4.562667

> <Mpro-x1478_dock>
-4.440943

> <Mpro-x0820_dock>
-4.211545

> <Mpro-x1380_dock>
-4.164854

> <Mpro-x0734_dock>
-3.961993

> <Mpro-x1458_dock>
-3.937765

> <Mpro-x1374_dock>
-3.751968

> <Mpro-x0354_dock>
-3.413797

> <Mpro-x0736_dock>
-3.220216

> <Mpro-x1358_dock>
-2.862139

> <Mpro-x0305_dock>
-2.49511

> <Mpro-x1308_dock>
-2.451446

> <Mpro-x1382_dock>
-2.428161

> <Mpro-x1351_dock>
-2.331164

> <Mpro-x0786_dock>
-2.217595

> <Mpro-x0705_dock>
-2.160001

> <Mpro-x0771_dock>
-1.993731

> <Mpro-x0755_dock>
-1.969085

> <Mpro-x0752_dock>
-1.890068

> <Mpro-x1384_dock>
-1.688857

> <Mpro-x1425_dock>
-1.650226

> <Mpro-x0978_dock>
-1.555352

> <Mpro-x0691_dock>
-1.460319

> <Mpro-x0731_dock>
-1.320422

> <Mpro-x0769_dock>
-1.232033

> <Mpro-x0887_dock>
-0.870039

> <Mpro-x0689_dock>
-0.644004

> <Mpro-x1402_dock>
-0.634157

> <Mpro-x0981_dock>
0.083451

> <site>
active-noncovalent

$$$$
BAR-COM-4e0-11
  -OEChem-04022003013D

 46 48  0     0  0  0  0  0  0999 V2000
    9.5030    6.2494   22.5991 C   0  0  0  0  0  0  0  0  0  0  0  0
    9.1580    4.9383   22.2712 C   0  0  0  0  0  0  0  0  0  0  0  0
   10.7295    6.5165   23.2075 C   0  0  0  0  0  0  0  0  0  0  0  0
   13.9670   -1.7641   22.9554 C   0  0  0  0  0  0  0  0  0  0  0  0
   10.0394    3.8942   22.5517 C   0  0  0  0  0  0  0  0  0  0  0  0
   11.6109    5.4724   23.4880 C   0  0  0  0  0  0  0  0  0  0  0  0
   14.0520   -0.7020   23.8556 C   0  0  0  0  0  0  0  0  0  0  0  0
   12.7522   -2.0578   22.3359 C   0  0  0  0  0  0  0  0  0  0  0  0
   11.7074   -0.2274   23.5169 C   0  0  0  0  0  0  0  0  0  0  0  0
    6.3858    0.1371   20.5687 C   0  0  0  0  0  0  0  0  0  0  0  0
    8.0132   -0.4777   19.0099 C   0  0  0  0  0  0  0  0  0  0  0  0
    6.4154    1.0526   18.4882 C   0  0  0  0  0  0  0  0  0  0  0  0
   11.2659    4.1613   23.1601 C   0  0  0  0  0  0  0  0  0  0  0  0
   12.9222    0.0663   24.1364 C   0  0  0  0  0  0  0  0  0  0  0  0
    7.4951   -0.6311   20.2797 C   0  0  0  0  0  0  0  0  0  0  0  0
   11.6224   -1.2894   22.6167 C   0  0  0  0  0  0  0  0  0  0  0  0
    9.1734   -0.9298   22.1498 C   0  0  0  0  0  0  0  0  0  0  0  0
    8.1019   -1.5747   21.2848 C   0  0  0  0  0  0  0  0  0  0  0  0
   12.2087    3.0453   23.4606 C   0  0  0  0  0  0  0  0  0  0  0  0
   13.0146    1.2145   25.1097 C   0  0  0  0  0  0  0  0  0  0  0  0
   12.0504    2.3816   24.8456 C   0  0  0  0  0  0  0  0  0  0  0  0
    5.8177    0.9925   19.6935 N   0  0  0  0  0  0  0  0  0  0  0  0
    7.4966    0.3581   18.0853 N   0  0  0  0  0  0  0  0  0  0  0  0
   10.4076   -1.5831   21.9964 N   0  0  0  0  0  0  0  0  0  0  0  0
    8.9402    0.0335   22.8728 O   0  0  0  0  0  0  0  0  0  0  0  0
    8.8172    7.0624   22.3794 H   0  0  0  0  0  0  0  0  0  0  0  0
    8.2035    4.7303   21.7965 H   0  0  0  0  0  0  0  0  0  0  0  0
   10.9990    7.5373   23.4619 H   0  0  0  0  0  0  0  0  0  0  0  0
   14.8467   -2.3622   22.7364 H   0  0  0  0  0  0  0  0  0  0  0  0
    9.7621    2.8758   22.2929 H   0  0  0  0  0  0  0  0  0  0  0  0
   12.5643    5.6900   23.9623 H   0  0  0  0  0  0  0  0  0  0  0  0
   15.0024   -0.4814   24.3337 H   0  0  0  0  0  0  0  0  0  0  0  0
   12.6975   -2.8879   21.6362 H   0  0  0  0  0  0  0  0  0  0  0  0
   10.8274    0.3728   23.7381 H   0  0  0  0  0  0  0  0  0  0  0  0
    5.9036    0.0897   21.5401 H   0  0  0  0  0  0  0  0  0  0  0  0
    8.8846   -1.0372   18.6843 H   0  0  0  0  0  0  0  0  0  0  0  0
    5.9787    1.7312   17.7658 H   0  0  0  0  0  0  0  0  0  0  0  0
    7.3150   -1.9726   21.9382 H   0  0  0  0  0  0  0  0  0  0  0  0
    8.5402   -2.4348   20.7627 H   0  0  0  0  0  0  0  0  0  0  0  0
   13.2569    3.3710   23.3500 H   0  0  0  0  0  0  0  0  0  0  0  0
   12.0712    2.2645   22.6936 H   0  0  0  0  0  0  0  0  0  0  0  0
   14.0441    1.5941   25.0695 H   0  0  0  0  0  0  0  0  0  0  0  0
   12.8711    0.8549   26.1364 H   0  0  0  0  0  0  0  0  0  0  0  0
   11.0323    1.9734   24.9006 H   0  0  0  0  0  0  0  0  0  0  0  0
   12.1177    3.1317   25.6415 H   0  0  0  0  0  0  0  0  0  0  0  0
   10.4169   -2.3769   21.3455 H   0  0  0  0  0  0  0  0  0  0  0  0
  1  2  1  0  0  0  0
  1  3  2  0  0  0  0
  2  5  2  0  0  0  0
  3  6  1  0  0  0  0
  4  7  1  0  0  0  0
  4  8  2  0  0  0  0
  5 13  1  0  0  0  0
  6 13  2  0  0  0  0
  7 14  2  0  0  0  0
  8 16  1  0  0  0  0
  9 14  1  0  0  0  0
  9 16  2  0  0  0  0
 10 15  1  0  0  0  0
 10 22  2  0  0  0  0
 11 15  2  0  0  0  0
 11 23  1  0  0  0  0
 12 22  1  0  0  0  0
 12 23  2  0  0  0  0
 13 19  1  0  0  0  0
 14 20  1  0  0  0  0
 15 18  1  0  0  0  0
 16 24  1  0  0  0  0
 17 18  1  0  0  0  0
 17 24  1  0  0  0  0
 17 25  2  0  0  0  0
 19 21  1  0  0  0  0
 20 21  1  0  0  0  0
  1 26  1  0  0  0  0
  2 27  1  0  0  0  0
  3 28  1  0  0  0  0
  4 29  1  0  0  0  0
  5 30  1  0  0  0  0
  6 31  1  0  0  0  0
  7 32  1  0  0  0  0
  8 33  1  0  0  0  0
  9 34  1  0  0  0  0
 10 35  1  0  0  0  0
 11 36  1  0  0  0  0
 12 37  1  0  0  0  0
 18 38  1  0  0  0  0
 18 39  1  0  0  0  0
 19 40  1  0  0  0  0
 19 41  1  0  0  0  0
 20 42  1  0  0  0  0
 20 43  1  0  0  0  0
 21 44  1  0  0  0  0
 21 45  1  0  0  0  0
 24 46  1  0  0  0  0
M  END
> <Hybrid2>
-9.786640

> <fragments>
x0678

> <Mpro-x0678_dock>
-9.78664

> <Mpro-x0434_dock>
-8.731497

> <Mpro-x0072_dock>
-8.015704

> <Mpro-x0195_dock>
-7.836962

> <Mpro-x0107_dock>
-7.649212

> <Mpro-x0874_dock>
-7.239827

> <Mpro-x0387_dock>
-7.180203

> <Mpro-x1077_dock>
-7.102148

> <Mpro-x0104_dock>
-6.903798

> <Mpro-x0967_dock>
-6.467917

> <Mpro-x0736_dock>
-6.303937

> <Mpro-x0830_dock>
-6.038878

> <Mpro-x0161_dock>
-5.890268

> <Mpro-x1493_dock>
-5.687264

> <Mpro-x0749_dock>
-5.666595

> <Mpro-x0305_dock>
-5.488175

> <Mpro-x0397_dock>
-5.343528

> <Mpro-x0946_dock>
-5.274513

> <Mpro-x1392_dock>
-4.875613

> <Mpro-x1418_dock>
-4.424769

> <Mpro-x0831_dock>
-4.405363

> <Mpro-x1458_dock>
-3.947892

> <Mpro-x1348_dock>
-3.914511

> <Mpro-x1093_dock>
-3.886076

> <Mpro-x1249_dock>
-3.84374

> <Mpro-x0692_dock>
-3.734966

> <Mpro-x0759_dock>
-3.645265

> <Mpro-x0395_dock>
-3.073275

> <Mpro-x1384_dock>
-2.959187

> <Mpro-x1187_dock>
-2.869337

> <Mpro-x1374_dock>
-2.644764

> <Mpro-x1358_dock>
-2.45241

> <Mpro-x1385_dock>
-2.400031

> <Mpro-x0752_dock>
-2.390213

> <Mpro-x0354_dock>
-2.351524

> <Mpro-x1386_dock>
-2.107202

> <Mpro-x1380_dock>
-2.05479

> <Mpro-x0887_dock>
-1.991643

> <Mpro-x0770_dock>
-1.894082

> <Mpro-x0820_dock>
-1.720536

> <Mpro-x0708_dock>
-1.626864

> <Mpro-x0426_dock>
-1.471814

> <Mpro-x1311_dock>
-1.450919

> <Mpro-x1334_dock>
-1.349113

> <Mpro-x1351_dock>
-1.124944

> <Mpro-x0981_dock>
-1.03488

> <Mpro-x1308_dock>
-0.989781

> <Mpro-x1478_dock>
-0.943885

> <Mpro-x0771_dock>
-0.776104

> <Mpro-x0540_dock>
-0.748222

> <Mpro-x1425_dock>
-0.741731

> <Mpro-x0734_dock>
-0.450512

> <Mpro-x0755_dock>
-0.340683

> <Mpro-x0769_dock>
-0.309481

> <Mpro-x1412_dock>
0.268311

> <Mpro-x1375_dock>
0.377344

> <Mpro-x0689_dock>
0.485224

> <Mpro-x1382_dock>
0.492584

> <Mpro-x1402_dock>
0.571853

> <Mpro-x0731_dock>
0.614794

> <Mpro-x0786_dock>
0.924875

> <Mpro-x0691_dock>
0.99478

> <Mpro-x0774_dock>
1.006116

> <Mpro-x0705_dock>
1.616358

> <Mpro-x0978_dock>
1.821448

> <site>
active-noncovalent

$$$$
BEN-DND-362-10
  -OEChem-04022003013D

 48 49  0     1  0  0  0  0  0999 V2000
    5.5687    0.6222   19.2537 C   0  0  0  0  0  0  0  0  0  0  0  0
    6.5395    0.7589   20.2397 C   0  0  0  0  0  0  0  0  0  0  0  0
    5.9883    0.3226   17.9676 C   0  0  0  0  0  0  0  0  0  0  0  0
    8.1973    0.2957   18.5986 C   0  0  0  0  0  0  0  0  0  0  0  0
    7.8812    0.5942   19.9142 C   0  0  0  0  0  0  0  0  0  0  0  0
   10.2659    0.5927   20.7220 C   0  0  0  0  0  0  0  0  0  0  0  0
   13.7466   -0.7270   24.1070 C   0  0  0  0  0  0  0  0  0  0  0  0
   13.5832   -0.9128   22.6038 C   0  0  0  0  0  0  0  0  0  0  0  0
   12.6716    0.1947   24.6736 C   0  0  0  0  0  0  0  0  0  0  0  0
   12.1855   -1.3880   22.2393 C   0  0  0  0  0  0  0  0  0  0  0  0
   11.2484   -0.2388   24.3118 C   0  0  2  0  0  0  0  0  0  0  0  0
    6.9573   -3.7855   23.6851 C   0  0  0  0  0  0  0  0  0  0  0  0
   10.9881    0.8152   22.0315 C   0  0  0  0  0  0  0  0  0  0  0  0
   10.7940   -1.4937   25.0564 C   0  0  0  0  0  0  0  0  0  0  0  0
    9.2802   -1.6509   25.0658 C   0  0  0  0  0  0  0  0  0  0  0  0
    7.2822    0.1552   17.6134 N   0  0  0  0  0  0  0  0  0  0  0  0
    8.8918    0.7274   20.8958 N   0  0  0  0  0  0  0  0  0  0  0  0
    8.7325   -1.7694   23.7429 N   0  0  0  0  0  0  0  0  0  0  0  0
   11.1295   -0.4688   22.8113 N   0  3  1  0  0  0  0  0  0  0  0  0
   10.8665    0.3363   19.6837 O   0  0  0  0  0  0  0  0  0  0  0  0
    9.5341   -4.2270   23.5603 O   0  0  0  0  0  0  0  0  0  0  0  0
    8.3768   -3.1732   21.5838 O   0  0  0  0  0  0  0  0  0  0  0  0
    8.5391   -3.3231   23.0172 S   0  0  0  0  0  0  0  0  0  0  0  0
    4.5169    0.7462   19.4847 H   0  0  0  0  0  0  0  0  0  0  0  0
    6.2397    0.9937   21.2577 H   0  0  0  0  0  0  0  0  0  0  0  0
    5.2702    0.2065   17.1626 H   0  0  0  0  0  0  0  0  0  0  0  0
    9.2269    0.1553   18.2833 H   0  0  0  0  0  0  0  0  0  0  0  0
   13.7001   -1.7024   24.6083 H   0  0  0  0  0  0  0  0  0  0  0  0
   14.7396   -0.3080   24.3209 H   0  0  0  0  0  0  0  0  0  0  0  0
   13.7901    0.0373   22.0942 H   0  0  0  0  0  0  0  0  0  0  0  0
   14.3274   -1.6331   22.2363 H   0  0  0  0  0  0  0  0  0  0  0  0
   12.7828    0.2473   25.7696 H   0  0  0  0  0  0  0  0  0  0  0  0
   12.8526    1.2160   24.3026 H   0  0  0  0  0  0  0  0  0  0  0  0
   12.0392   -1.4236   21.1485 H   0  0  0  0  0  0  0  0  0  0  0  0
   12.0091   -2.3924   22.6525 H   0  0  0  0  0  0  0  0  0  0  0  0
   10.5279    0.5921   24.5384 H   0  0  0  0  0  0  0  0  0  0  0  0
    6.6976   -4.7739   23.3028 H   0  0  0  0  0  0  0  0  0  0  0  0
    7.0353   -3.8048   24.7732 H   0  0  0  0  0  0  0  0  0  0  0  0
    6.2201   -3.0466   23.3673 H   0  0  0  0  0  0  0  0  0  0  0  0
   10.4309    1.5119   22.6643 H   0  0  0  0  0  0  0  0  0  0  0  0
   11.9986    1.1911   21.8484 H   0  0  0  0  0  0  0  0  0  0  0  0
   11.1536   -1.4317   26.0883 H   0  0  0  0  0  0  0  0  0  0  0  0
   11.2643   -2.3689   24.5967 H   0  0  0  0  0  0  0  0  0  0  0  0
    9.0049   -2.5605   25.6086 H   0  0  0  0  0  0  0  0  0  0  0  0
    8.7936   -0.8014   25.5553 H   0  0  0  0  0  0  0  0  0  0  0  0
    8.5616    0.9477   21.8332 H   0  0  0  0  0  0  0  0  0  0  0  0
    7.9869   -1.0815   23.4963 H   0  0  0  0  0  0  0  0  0  0  0  0
   10.2018   -0.9673   22.6753 H   0  0  0  0  0  0  0  0  0  0  0  0
  1  2  2  0  0  0  0
  1  3  1  0  0  0  0
  2  5  1  0  0  0  0
  3 16  2  0  0  0  0
  4  5  2  0  0  0  0
  4 16  1  0  0  0  0
  5 17  1  0  0  0  0
  6 13  1  0  0  0  0
  6 17  1  0  0  0  0
  6 20  2  0  0  0  0
  7  8  1  0  0  0  0
  7  9  1  0  0  0  0
  8 10  1  0  0  0  0
  9 11  1  0  0  0  0
 10 19  1  0  0  0  0
 11 14  1  0  0  0  0
 11 19  1  0  0  0  0
 12 23  1  0  0  0  0
 13 19  1  0  0  0  0
 14 15  1  0  0  0  0
 15 18  1  0  0  0  0
 18 23  1  0  0  0  0
 21 23  2  0  0  0  0
 22 23  2  0  0  0  0
  1 24  1  0  0  0  0
  2 25  1  0  0  0  0
  3 26  1  0  0  0  0
  4 27  1  0  0  0  0
  7 28  1  0  0  0  0
  7 29  1  0  0  0  0
  8 30  1  0  0  0  0
  8 31  1  0  0  0  0
  9 32  1  0  0  0  0
  9 33  1  0  0  0  0
 10 34  1  0  0  0  0
 10 35  1  0  0  0  0
 11 36  1  0  0  0  0
 12 37  1  0  0  0  0
 12 38  1  0  0  0  0
 12 39  1  0  0  0  0
 13 40  1  0  0  0  0
 13 41  1  0  0  0  0
 14 42  1  0  0  0  0
 14 43  1  0  0  0  0
 15 44  1  0  0  0  0
 15 45  1  0  0  0  0
 17 46  1  0  0  0  0
 18 47  1  0  0  0  0
 19 48  1  0  0  0  0
M  CHG  1  19   1
M  END
> <Hybrid2>
-9.718414

> <fragments>
x0678

> <Mpro-x0678_dock>
-9.718414

> <Mpro-x0107_dock>
-7.779883

> <Mpro-x0967_dock>
-7.269782

> <Mpro-x0072_dock>
-6.500528

> <Mpro-x1418_dock>
-6.377803

> <Mpro-x1334_dock>
-6.290522

> <Mpro-x0831_dock>
-6.079648

> <Mpro-x0195_dock>
-5.857573

> <Mpro-x0104_dock>
-5.842291

> <Mpro-x0397_dock>
-5.75581

> <Mpro-x0749_dock>
-5.68947

> <Mpro-x1077_dock>
-5.422368

> <Mpro-x0161_dock>
-5.26808

> <Mpro-x0692_dock>
-5.078519

> <Mpro-x1093_dock>
-5.050467

> <Mpro-x1386_dock>
-5.016975

> <Mpro-x0305_dock>
-5.006108

> <Mpro-x1385_dock>
-4.950011

> <Mpro-x0874_dock>
-4.906244

> <Mpro-x0946_dock>
-4.792756

> <Mpro-x0434_dock>
-4.654175

> <Mpro-x1311_dock>
-4.453655

> <Mpro-x0708_dock>
-4.412252

> <Mpro-x0770_dock>
-4.328972

> <Mpro-x0395_dock>
-4.29737

> <Mpro-x0830_dock>
-4.262575

> <Mpro-x0387_dock>
-4.156046

> <Mpro-x1348_dock>
-3.807223

> <Mpro-x0774_dock>
-3.770303

> <Mpro-x0759_dock>
-3.722128

> <Mpro-x1392_dock>
-3.70631

> <Mpro-x1382_dock>
-3.263245

> <Mpro-x0540_dock>
-3.071967

> <Mpro-x1249_dock>
-3.053327

> <Mpro-x1412_dock>
-2.856006

> <Mpro-x0426_dock>
-2.746155

> <Mpro-x1375_dock>
-2.252475

> <Mpro-x0354_dock>
-1.983199

> <Mpro-x1493_dock>
-1.810925

> <Mpro-x0734_dock>
-1.748354

> <Mpro-x1478_dock>
-1.633373

> <Mpro-x0820_dock>
-1.57642

> <Mpro-x1358_dock>
-1.486516

> <Mpro-x1380_dock>
-1.479072

> <Mpro-x1351_dock>
-1.420164

> <Mpro-x1425_dock>
-1.337985

> <Mpro-x1458_dock>
-1.055621

> <Mpro-x1187_dock>
-1.029526

> <Mpro-x1402_dock>
-0.945926

> <Mpro-x0736_dock>
-0.820212

> <Mpro-x1374_dock>
-0.805488

> <Mpro-x0786_dock>
-0.803833

> <Mpro-x0771_dock>
-0.694797

> <Mpro-x0731_dock>
0.08127

> <Mpro-x1384_dock>
0.214507

> <Mpro-x1308_dock>
0.777218

> <Mpro-x0981_dock>
0.811815

> <Mpro-x0755_dock>
1.124477

> <Mpro-x0691_dock>
1.139565

> <Mpro-x0769_dock>
1.256216

> <Mpro-x0978_dock>
1.281584

> <Mpro-x0705_dock>
1.344592

> <Mpro-x0887_dock>
1.4571

> <Mpro-x0689_dock>
1.517158

> <Mpro-x0752_dock>
3.139141

> <site>
active-noncovalent

$$$$
TRY-UNI-1fd-12
  -OEChem-04022003013D

 35 37  0     0  0  0  0  0  0999 V2000
    9.5871    1.0733   21.7521 C   0  0  0  0  0  0  0  0  0  0  0  0
    7.5426   -6.0781   21.9202 C   0  0  0  0  0  0  0  0  0  0  0  0
    9.7449   -1.1211   22.8350 C   0  0  0  0  0  0  0  0  0  0  0  0
    7.4330   -5.8553   23.2916 C   0  0  0  0  0  0  0  0  0  0  0  0
    9.5942   -1.9135   23.9676 C   0  0  0  0  0  0  0  0  0  0  0  0
    6.5132   -5.6544   21.0905 C   0  0  0  0  0  0  0  0  0  0  0  0
    8.9958    0.7452   24.1049 C   0  0  0  0  0  0  0  0  0  0  0  0
    4.5585   -4.2037   24.8244 C   0  0  0  0  0  0  0  0  0  0  0  0
    9.4421    0.2346   22.8967 C   0  0  0  0  0  0  0  0  0  0  0  0
    6.2777   -5.2094   23.7608 C   0  0  0  0  0  0  0  0  0  0  0  0
    5.7828   -4.8030   25.0281 C   0  0  0  0  0  0  0  0  0  0  0  0
    9.1413   -1.3067   25.1280 C   0  0  0  0  0  0  0  0  0  0  0  0
    5.3239   -4.8381   22.8176 C   0  0  0  0  0  0  0  0  0  0  0  0
    7.8325   -4.3410   26.4291 C   0  0  0  0  0  0  0  0  0  0  0  0
    6.4497   -4.9849   26.3329 C   0  0  0  0  0  0  0  0  0  0  0  0
    8.9668   -2.1319   26.3700 C   0  0  0  0  0  0  0  0  0  0  0  0
    9.7050    1.7556   20.8208 N   0  0  0  0  0  0  0  0  0  0  0  0
    8.8370    0.0068   25.2262 N   0  0  0  0  0  0  0  0  0  0  0  0
    5.3801   -5.0289   21.4859 N   0  0  0  0  0  0  0  0  0  0  0  0
    4.2900   -4.2309   23.4804 N   0  0  0  0  0  0  0  0  0  0  0  0
    7.7849   -2.9595   26.3075 N   0  0  0  0  0  0  0  0  0  0  0  0
    8.8563   -4.9983   26.5989 O   0  0  0  0  0  0  0  0  0  0  0  0
    8.4162   -6.5734   21.5101 H   0  0  0  0  0  0  0  0  0  0  0  0
   10.0991   -1.5734   21.9121 H   0  0  0  0  0  0  0  0  0  0  0  0
    8.2201   -6.1733   23.9676 H   0  0  0  0  0  0  0  0  0  0  0  0
    9.8269   -2.9724   23.9329 H   0  0  0  0  0  0  0  0  0  0  0  0
    6.5820   -5.8189   20.0183 H   0  0  0  0  0  0  0  0  0  0  0  0
    8.7429    1.7955   24.2188 H   0  0  0  0  0  0  0  0  0  0  0  0
    3.8539   -3.7597   25.5140 H   0  0  0  0  0  0  0  0  0  0  0  0
    5.8332   -4.5712   27.1548 H   0  0  0  0  0  0  0  0  0  0  0  0
    6.5700   -6.0592   26.5741 H   0  0  0  0  0  0  0  0  0  0  0  0
    9.8306   -2.7884   26.5219 H   0  0  0  0  0  0  0  0  0  0  0  0
    8.8828   -1.4947   27.2566 H   0  0  0  0  0  0  0  0  0  0  0  0
    3.4566   -3.8611   23.0446 H   0  0  0  0  0  0  0  0  0  0  0  0
    6.8833   -2.5127   26.1690 H   0  0  0  0  0  0  0  0  0  0  0  0
  1  9  1  0  0  0  0
  1 17  3  0  0  0  0
  2  4  2  0  0  0  0
  2  6  1  0  0  0  0
  3  5  2  0  0  0  0
  3  9  1  0  0  0  0
  4 10  1  0  0  0  0
  5 12  1  0  0  0  0
  6 19  2  0  0  0  0
  7  9  2  0  0  0  0
  7 18  1  0  0  0  0
  8 11  2  0  0  0  0
  8 20  1  0  0  0  0
 10 11  1  0  0  0  0
 10 13  2  0  0  0  0
 11 15  1  0  0  0  0
 12 16  1  0  0  0  0
 12 18  2  0  0  0  0
 13 19  1  0  0  0  0
 13 20  1  0  0  0  0
 14 15  1  0  0  0  0
 14 21  1  0  0  0  0
 14 22  2  0  0  0  0
 16 21  1  0  0  0  0
  2 23  1  0  0  0  0
  3 24  1  0  0  0  0
  4 25  1  0  0  0  0
  5 26  1  0  0  0  0
  6 27  1  0  0  0  0
  7 28  1  0  0  0  0
  8 29  1  0  0  0  0
 15 30  1  0  0  0  0
 15 31  1  0  0  0  0
 16 32  1  0  0  0  0
 16 33  1  0  0  0  0
 20 34  1  0  0  0  0
 21 35  1  0  0  0  0
M  END
> <Hybrid2>
-9.711810

> <fragments>
x1077

> <Mpro-x1077_dock>
-9.71181

> <Mpro-x0104_dock>
-8.530151

> <Mpro-x0946_dock>
-8.380386

> <Mpro-x0678_dock>
-8.070947

> <Mpro-x0749_dock>
-7.880761

> <Mpro-x1093_dock>
-7.749762

> <Mpro-x0397_dock>
-7.666777

> <Mpro-x0107_dock>
-7.630189

> <Mpro-x0195_dock>
-6.877539

> <Mpro-x0161_dock>
-6.834606

> <Mpro-x0830_dock>
-6.832492

> <Mpro-x0072_dock>
-6.626976

> <Mpro-x1392_dock>
-6.558506

> <Mpro-x0434_dock>
-5.950496

> <Mpro-x1311_dock>
-5.800432

> <Mpro-x0874_dock>
-5.720704

> <Mpro-x0831_dock>
-5.490009

> <Mpro-x0692_dock>
-5.361278

> <Mpro-x1334_dock>
-5.27515

> <Mpro-x1249_dock>
-5.250353

> <Mpro-x1348_dock>
-5.097859

> <Mpro-x1374_dock>
-5.091591

> <Mpro-x1458_dock>
-5.073323

> <Mpro-x0736_dock>
-4.892415

> <Mpro-x0734_dock>
-4.695221

> <Mpro-x0395_dock>
-4.506582

> <Mpro-x1385_dock>
-4.444962

> <Mpro-x1187_dock>
-4.30146

> <Mpro-x1418_dock>
-4.122702

> <Mpro-x1412_dock>
-4.11821

> <Mpro-x0820_dock>
-3.801507

> <Mpro-x1386_dock>
-3.770154

> <Mpro-x0354_dock>
-3.673601

> <Mpro-x0708_dock>
-3.661059

> <Mpro-x0770_dock>
-3.66066

> <Mpro-x0387_dock>
-3.652421

> <Mpro-x1478_dock>
-3.642577

> <Mpro-x1493_dock>
-3.626058

> <Mpro-x0967_dock>
-3.602153

> <Mpro-x0759_dock>
-3.53068

> <Mpro-x1375_dock>
-3.440997

> <Mpro-x0540_dock>
-3.323825

> <Mpro-x0774_dock>
-3.292998

> <Mpro-x1384_dock>
-2.980072

> <Mpro-x0426_dock>
-2.73718

> <Mpro-x0305_dock>
-2.722383

> <Mpro-x1358_dock>
-2.564554

> <Mpro-x1351_dock>
-2.482543

> <Mpro-x0731_dock>
-2.43208

> <Mpro-x0771_dock>
-2.044474

> <Mpro-x1425_dock>
-1.859159

> <Mpro-x0981_dock>
-1.692198

> <Mpro-x0691_dock>
-1.665651

> <Mpro-x0769_dock>
-1.637239

> <Mpro-x1380_dock>
-1.357518

> <Mpro-x1382_dock>
-1.204539

> <Mpro-x1308_dock>
-1.181548

> <Mpro-x0786_dock>
-1.063389

> <Mpro-x0752_dock>
-1.045998

> <Mpro-x0755_dock>
-0.855175

> <Mpro-x1402_dock>
-0.8409

> <Mpro-x0705_dock>
-0.463297

> <Mpro-x0887_dock>
-0.441489

> <Mpro-x0689_dock>
0.104106

> <Mpro-x0978_dock>
0.291524

> <site>
active-noncovalent

$$$$
WAR-XCH-b72-48
  -OEChem-04022003013D

 50 51  0     1  0  0  0  0  0999 V2000
   10.8061   -2.0902   23.3343 C   0  0  0  0  0  0  0  0  0  0  0  0
    8.8646   -0.7295   23.7991 C   0  0  0  0  0  0  0  0  0  0  0  0
   10.0916   -3.2328   23.6944 C   0  0  0  0  0  0  0  0  0  0  0  0
    8.1500   -1.8721   24.1592 C   0  0  0  0  0  0  0  0  0  0  0  0
   10.1926   -0.8386   23.3867 C   0  0  0  0  0  0  0  0  0  0  0  0
    8.7636   -3.1237   24.1068 C   0  0  0  0  0  0  0  0  0  0  0  0
   13.0785    1.4795   22.9688 C   0  0  0  0  0  0  0  0  0  0  0  0
   11.1496    2.3107   21.6088 C   0  0  0  0  0  0  0  0  0  0  0  0
   12.1223    0.6191   23.7944 C   0  0  0  0  0  0  0  0  0  0  0  0
   10.1964    1.4465   22.4351 C   0  0  0  0  0  0  0  0  0  0  0  0
   12.4061    2.7258   22.3816 C   0  0  0  0  0  0  0  0  0  0  0  0
   11.5324    5.9290   25.0765 C   0  0  0  0  0  0  0  0  0  0  0  0
    9.6636    5.7529   23.3880 C   0  0  0  0  0  0  0  0  0  0  0  0
   13.2896    5.7014   22.4209 C   0  0  0  0  0  0  0  0  0  0  0  0
   12.0999    3.7732   23.4540 C   0  0  0  0  0  0  0  0  0  0  0  0
   11.1345    6.0629   23.6154 C   0  0  0  0  0  0  0  0  0  0  0  0
   10.9095    0.3089   23.0252 N   0  0  0  0  0  0  0  0  0  0  0  0
    6.3541   -3.8743   24.9647 N   0  0  0  0  0  0  0  0  0  0  0  0
   11.9602    5.0917   22.8029 N   0  3  1  0  0  0  0  0  0  0  0  0
    7.7075   -5.3872   23.3756 O   0  0  0  0  0  0  0  0  0  0  0  0
    8.4676   -5.1130   25.7620 O   0  0  0  0  0  0  0  0  0  0  0  0
    7.8686   -4.5532   24.5584 S   0  0  0  0  0  0  0  0  0  0  0  0
   11.8406   -2.1867   23.0147 H   0  0  0  0  0  0  0  0  0  0  0  0
    8.3765    0.2409   23.8425 H   0  0  0  0  0  0  0  0  0  0  0  0
   10.5797   -4.2026   23.6499 H   0  0  0  0  0  0  0  0  0  0  0  0
    7.1159   -1.7752   24.4792 H   0  0  0  0  0  0  0  0  0  0  0  0
   13.9344    1.7755   23.5994 H   0  0  0  0  0  0  0  0  0  0  0  0
   13.5004    0.8666   22.1554 H   0  0  0  0  0  0  0  0  0  0  0  0
   11.4377    1.7560   20.6993 H   0  0  0  0  0  0  0  0  0  0  0  0
   10.6099    3.2075   21.2551 H   0  0  0  0  0  0  0  0  0  0  0  0
   12.6216   -0.3121   24.0922 H   0  0  0  0  0  0  0  0  0  0  0  0
   11.8618    1.1629   24.7110 H   0  0  0  0  0  0  0  0  0  0  0  0
    9.7535    2.0692   23.2233 H   0  0  0  0  0  0  0  0  0  0  0  0
    9.3767    1.0850   21.7999 H   0  0  0  0  0  0  0  0  0  0  0  0
   13.1151    3.1868   21.6578 H   0  0  0  0  0  0  0  0  0  0  0  0
   11.2893    4.9294   25.4517 H   0  0  0  0  0  0  0  0  0  0  0  0
   12.6070    6.0898   25.2174 H   0  0  0  0  0  0  0  0  0  0  0  0
   10.9988    6.6575   25.6967 H   0  0  0  0  0  0  0  0  0  0  0  0
    9.4188    4.7530   23.7615 H   0  0  0  0  0  0  0  0  0  0  0  0
    9.4046    5.7880   22.3241 H   0  0  0  0  0  0  0  0  0  0  0  0
    9.0256    6.4712   23.9140 H   0  0  0  0  0  0  0  0  0  0  0  0
   13.8621    5.8553   23.3375 H   0  0  0  0  0  0  0  0  0  0  0  0
   13.7978    5.0033   21.7531 H   0  0  0  0  0  0  0  0  0  0  0  0
   13.0901    6.6502   21.9190 H   0  0  0  0  0  0  0  0  0  0  0  0
   12.9131    3.8448   24.1739 H   0  0  0  0  0  0  0  0  0  0  0  0
   11.1609    3.5528   23.9585 H   0  0  0  0  0  0  0  0  0  0  0  0
   11.3781    7.0627   23.2416 H   0  0  0  0  0  0  0  0  0  0  0  0
    5.5658   -4.0382   24.3266 H   0  0  0  0  0  0  0  0  0  0  0  0
    6.0873   -3.8499   25.9564 H   0  0  0  0  0  0  0  0  0  0  0  0
   11.4450    4.9598   21.9133 H   0  0  0  0  0  0  0  0  0  0  0  0
  1  3  2  0  0  0  0
  1  5  1  0  0  0  0
  2  4  1  0  0  0  0
  2  5  2  0  0  0  0
  3  6  1  0  0  0  0
  4  6  2  0  0  0  0
  5 17  1  0  0  0  0
  6 22  1  0  0  0  0
  7  9  1  0  0  0  0
  7 11  1  0  0  0  0
  8 10  1  0  0  0  0
  8 11  1  0  0  0  0
  9 17  1  0  0  0  0
 10 17  1  0  0  0  0
 11 15  1  0  0  0  0
 12 16  1  0  0  0  0
 13 16  1  0  0  0  0
 14 19  1  0  0  0  0
 15 19  1  0  0  0  0
 16 19  1  0  0  0  0
 18 22  1  0  0  0  0
 20 22  2  0  0  0  0
 21 22  2  0  0  0  0
  1 23  1  0  0  0  0
  2 24  1  0  0  0  0
  3 25  1  0  0  0  0
  4 26  1  0  0  0  0
  7 27  1  0  0  0  0
  7 28  1  0  0  0  0
  8 29  1  0  0  0  0
  8 30  1  0  0  0  0
  9 31  1  0  0  0  0
  9 32  1  0  0  0  0
 10 33  1  0  0  0  0
 10 34  1  0  0  0  0
 11 35  1  0  0  0  0
 12 36  1  0  0  0  0
 12 37  1  0  0  0  0
 12 38  1  0  0  0  0
 13 39  1  0  0  0  0
 13 40  1  0  0  0  0
 13 41  1  0  0  0  0
 14 42  1  0  0  0  0
 14 43  1  0  0  0  0
 14 44  1  0  0  0  0
 15 45  1  0  0  0  0
 15 46  1  0  0  0  0
 16 47  1  0  0  0  0
 18 48  1  0  0  0  0
 18 49  1  0  0  0  0
 19 50  1  0  0  0  0
M  CHG  1  19   1
M  END
> <Hybrid2>
-9.625897

> <fragments>
x0104

> <Mpro-x0104_dock>
-9.625897

> <Mpro-x0874_dock>
-8.767859

> <Mpro-x0195_dock>
-8.711694

> <Mpro-x0946_dock>
-7.695249

> <Mpro-x0161_dock>
-6.792365

> <Mpro-x0072_dock>
-6.668615

> <Mpro-x0107_dock>
-6.312779

> <Mpro-x1077_dock>
-5.815593

> <Mpro-x0830_dock>
-5.481714

> <Mpro-x1093_dock>
-4.880714

> <Mpro-x1334_dock>
-4.849851

> <Mpro-x0395_dock>
-4.664014

> <Mpro-x1392_dock>
-4.58275

> <Mpro-x0749_dock>
-4.223958

> <Mpro-x0434_dock>
-3.988106

> <Mpro-x1348_dock>
-3.948533

> <Mpro-x0305_dock>
-3.705475

> <Mpro-x0397_dock>
-3.669807

> <Mpro-x1187_dock>
-3.58909

> <Mpro-x1311_dock>
-3.558188

> <Mpro-x0678_dock>
-3.367893

> <Mpro-x1385_dock>
-3.352954

> <Mpro-x0387_dock>
-3.229315

> <Mpro-x1374_dock>
-3.093832

> <Mpro-x0967_dock>
-2.643865

> <Mpro-x0692_dock>
-2.431028

> <Mpro-x0708_dock>
-2.186438

> <Mpro-x1375_dock>
-1.898672

> <Mpro-x1380_dock>
-1.877813

> <Mpro-x1249_dock>
-1.844263

> <Mpro-x1412_dock>
-1.83603

> <Mpro-x0736_dock>
-1.613394

> <Mpro-x0354_dock>
-1.395636

> <Mpro-x1358_dock>
-1.037458

> <Mpro-x0978_dock>
-0.978385

> <Mpro-x0831_dock>
-0.93131

> <Mpro-x0540_dock>
-0.800639

> <Mpro-x0426_dock>
-0.794572

> <Mpro-x1351_dock>
-0.725666

> <Mpro-x1386_dock>
-0.649968

> <Mpro-x1458_dock>
-0.471435

> <Mpro-x0759_dock>
-0.339589

> <Mpro-x0734_dock>
-0.151259

> <Mpro-x1493_dock>
-0.032982

> <Mpro-x1418_dock>
0.122116

> <Mpro-x1478_dock>
0.164049

> <Mpro-x1384_dock>
0.312041

> <Mpro-x0774_dock>
0.515929

> <Mpro-x0771_dock>
0.564098

> <Mpro-x0887_dock>
0.624346

> <Mpro-x0770_dock>
0.703189

> <Mpro-x0786_dock>
0.87372

> <Mpro-x0705_dock>
0.997053

> <Mpro-x0820_dock>
1.092868

> <Mpro-x0752_dock>
1.134448

> <Mpro-x1425_dock>
1.589748

> <Mpro-x0689_dock>
1.885154

> <Mpro-x0769_dock>
1.903389

> <Mpro-x0691_dock>
1.937331

> <Mpro-x1308_dock>
2.011723

> <Mpro-x1402_dock>
2.132498

> <Mpro-x0731_dock>
2.164115

> <Mpro-x0755_dock>
2.269757

> <Mpro-x1382_dock>
2.372647

> <Mpro-x0981_dock>
2.55227

> <site>
active-noncovalent

$$$$
CHR-SOS-709-12
  -OEChem-04022003013D

 25 26  0     0  0  0  0  0  0999 V2000
   13.1452   -0.4387   24.2904 C   0  0  0  0  0  0  0  0  0  0  0  0
    6.4766    0.4467   19.7640 C   0  0  0  0  0  0  0  0  0  0  0  0
   11.8572   -0.1758   23.8242 C   0  0  0  0  0  0  0  0  0  0  0  0
    7.5976    0.1880   20.5448 C   0  0  0  0  0  0  0  0  0  0  0  0
   14.0265   -1.1937   23.5164 C   0  0  0  0  0  0  0  0  0  0  0  0
   12.3315   -1.4230   21.8101 C   0  0  0  0  0  0  0  0  0  0  0  0
    6.6179    0.3890   18.3869 C   0  0  0  0  0  0  0  0  0  0  0  0
    8.8456   -0.1490   18.5485 C   0  0  0  0  0  0  0  0  0  0  0  0
   11.4503   -0.6679   22.5841 C   0  0  0  0  0  0  0  0  0  0  0  0
    8.8087   -0.1163   19.9332 C   0  0  0  0  0  0  0  0  0  0  0  0
   13.6196   -1.6859   22.2763 C   0  0  0  0  0  0  0  0  0  0  0  0
   10.1070   -0.3939   22.0992 C   0  0  0  0  0  0  0  0  0  0  0  0
    7.7777    0.0968   17.7568 N   0  0  0  0  0  0  0  0  0  0  0  0
    9.9690   -0.3845   20.7025 N   0  0  0  0  0  0  0  0  0  0  0  0
    9.1709   -0.1535   22.8745 O   0  0  0  0  0  0  0  0  0  0  0  0
   14.7077   -2.6171   21.3215 Cl  0  0  0  0  0  0  0  0  0  0  0  0
   13.4620   -0.0551   25.2557 H   0  0  0  0  0  0  0  0  0  0  0  0
    5.5223    0.6860   20.2193 H   0  0  0  0  0  0  0  0  0  0  0  0
   11.1795    0.4137   24.4365 H   0  0  0  0  0  0  0  0  0  0  0  0
    7.5165    0.2261   21.6279 H   0  0  0  0  0  0  0  0  0  0  0  0
   15.0271   -1.3904   23.8926 H   0  0  0  0  0  0  0  0  0  0  0  0
   12.0115   -1.8052   20.8429 H   0  0  0  0  0  0  0  0  0  0  0  0
    5.7737    0.5836   17.7338 H   0  0  0  0  0  0  0  0  0  0  0  0
    9.7619   -0.3807   18.0135 H   0  0  0  0  0  0  0  0  0  0  0  0
   10.8109   -0.5978   20.1734 H   0  0  0  0  0  0  0  0  0  0  0  0
  1  3  2  0  0  0  0
  1  5  1  0  0  0  0
  2  4  2  0  0  0  0
  2  7  1  0  0  0  0
  3  9  1  0  0  0  0
  4 10  1  0  0  0  0
  5 11  2  0  0  0  0
  6  9  2  0  0  0  0
  6 11  1  0  0  0  0
  7 13  2  0  0  0  0
  8 10  2  0  0  0  0
  8 13  1  0  0  0  0
  9 12  1  0  0  0  0
 10 14  1  0  0  0  0
 11 16  1  0  0  0  0
 12 14  1  0  0  0  0
 12 15  2  0  0  0  0
  1 17  1  0  0  0  0
  2 18  1  0  0  0  0
  3 19  1  0  0  0  0
  4 20  1  0  0  0  0
  5 21  1  0  0  0  0
  6 22  1  0  0  0  0
  7 23  1  0  0  0  0
  8 24  1  0  0  0  0
 14 25  1  0  0  0  0
M  END
> <Hybrid2>
-9.620449

> <fragments>
x0678

> <Mpro-x0678_dock>
-9.620449

> <Mpro-x0195_dock>
-8.263953

> <Mpro-x0107_dock>
-8.233748

> <Mpro-x0397_dock>
-8.129518

> <Mpro-x0749_dock>
-8.129119

> <Mpro-x0072_dock>
-8.032594

> <Mpro-x0104_dock>
-7.196639

> <Mpro-x0692_dock>
-7.167702

> <Mpro-x1392_dock>
-7.124239

> <Mpro-x1093_dock>
-6.937104

> <Mpro-x0759_dock>
-6.924399

> <Mpro-x0161_dock>
-6.847405

> <Mpro-x1077_dock>
-6.714396

> <Mpro-x0946_dock>
-6.581397

> <Mpro-x1348_dock>
-6.206504

> <Mpro-x0831_dock>
-6.087778

> <Mpro-x1412_dock>
-5.974125

> <Mpro-x1385_dock>
-5.8528

> <Mpro-x0395_dock>
-5.824271

> <Mpro-x1334_dock>
-5.803101

> <Mpro-x0830_dock>
-5.732413

> <Mpro-x0305_dock>
-5.703822

> <Mpro-x0874_dock>
-5.638656

> <Mpro-x0354_dock>
-5.478983

> <Mpro-x0434_dock>
-5.424383

> <Mpro-x1311_dock>
-5.401683

> <Mpro-x1418_dock>
-5.317985

> <Mpro-x0708_dock>
-5.206874

> <Mpro-x1375_dock>
-5.041046

> <Mpro-x0387_dock>
-4.99359

> <Mpro-x0770_dock>
-4.833056

> <Mpro-x0774_dock>
-4.673413

> <Mpro-x1187_dock>
-4.537316

> <Mpro-x1374_dock>
-4.526641

> <Mpro-x1380_dock>
-4.3561

> <Mpro-x0540_dock>
-4.321605

> <Mpro-x1386_dock>
-4.274369

> <Mpro-x0734_dock>
-4.059705

> <Mpro-x0736_dock>
-3.985825

> <Mpro-x1382_dock>
-3.900878

> <Mpro-x0426_dock>
-3.865284

> <Mpro-x0967_dock>
-3.761658

> <Mpro-x1249_dock>
-3.751662

> <Mpro-x1358_dock>
-3.717001

> <Mpro-x0786_dock>
-3.610568

> <Mpro-x1478_dock>
-3.16011

> <Mpro-x1351_dock>
-2.81874

> <Mpro-x0981_dock>
-2.664953

> <Mpro-x0820_dock>
-2.540844

> <Mpro-x1493_dock>
-2.377498

> <Mpro-x1458_dock>
-2.348676

> <Mpro-x1384_dock>
-2.101993

> <Mpro-x1402_dock>
-2.074245

> <Mpro-x0771_dock>
-2.053815

> <Mpro-x1308_dock>
-1.947583

> <Mpro-x1425_dock>
-1.843824

> <Mpro-x0689_dock>
-1.576213

> <Mpro-x0978_dock>
-1.567183

> <Mpro-x0755_dock>
-1.297897

> <Mpro-x0731_dock>
-1.292174

> <Mpro-x0691_dock>
-1.154877

> <Mpro-x0769_dock>
-1.030835

> <Mpro-x0705_dock>
-1.025922

> <Mpro-x0887_dock>
-0.697422

> <Mpro-x0752_dock>
-0.643055

> <site>
active-noncovalent

$$$$
WAR-XCH-b68-25
  -OEChem-04022003013D

 47 49  0     0  0  0  0  0  0999 V2000
   12.7792   -0.0669   24.1447 C   0  0  0  0  0  0  0  0  0  0  0  0
   13.5919   -2.0878   23.0994 C   0  0  0  0  0  0  0  0  0  0  0  0
    7.4692   -4.0231   26.5749 C   0  0  0  0  0  0  0  0  0  0  0  0
    6.3863   -5.4830   24.9833 C   0  0  0  0  0  0  0  0  0  0  0  0
   11.5978   -0.1616   23.4093 C   0  0  0  0  0  0  0  0  0  0  0  0
   12.4104   -2.1825   22.3640 C   0  0  0  0  0  0  0  0  0  0  0  0
    6.9669   -4.7936   27.6234 C   0  0  0  0  0  0  0  0  0  0  0  0
    5.8840   -6.2536   26.0319 C   0  0  0  0  0  0  0  0  0  0  0  0
   13.7763   -1.0299   23.9897 C   0  0  0  0  0  0  0  0  0  0  0  0
    7.1788   -4.3677   25.2548 C   0  0  0  0  0  0  0  0  0  0  0  0
   11.4133   -1.2194   22.5190 C   0  0  0  0  0  0  0  0  0  0  0  0
    6.1743   -5.9089   27.3520 C   0  0  0  0  0  0  0  0  0  0  0  0
    8.5428   -1.4097   23.5469 C   0  0  0  0  0  0  0  0  0  0  0  0
    9.3868   -3.5089   22.4616 C   0  0  0  0  0  0  0  0  0  0  0  0
    7.3422   -2.1849   24.0908 C   0  0  0  0  0  0  0  0  0  0  0  0
    8.1686   -4.2559   22.9984 C   0  0  0  0  0  0  0  0  0  0  0  0
    9.0752   -2.0256   22.2523 C   0  0  0  0  0  0  0  0  0  0  0  0
   15.0400   -0.9293   24.7752 C   0  0  0  0  0  0  0  0  0  0  0  0
    7.6744   -3.6074   24.2193 N   0  0  0  0  0  0  0  0  0  0  0  0
    6.7995   -8.0167   28.8589 N   0  0  0  0  0  0  0  0  0  0  0  0
   10.2422   -1.3146   21.7916 N   0  0  0  0  0  0  0  0  0  0  0  0
    5.4785   -6.0405   29.8563 O   0  0  0  0  0  0  0  0  0  0  0  0
    4.3508   -7.5654   28.1978 O   0  0  0  0  0  0  0  0  0  0  0  0
    5.5446   -6.8736   28.6638 S   0  0  0  0  0  0  0  0  0  0  0  0
   12.9149    0.7611   24.8352 H   0  0  0  0  0  0  0  0  0  0  0  0
   14.3638   -2.8417   22.9708 H   0  0  0  0  0  0  0  0  0  0  0  0
    8.0855   -3.1559   26.7979 H   0  0  0  0  0  0  0  0  0  0  0  0
    6.1548   -5.7610   23.9581 H   0  0  0  0  0  0  0  0  0  0  0  0
   10.8278    0.5950   23.5366 H   0  0  0  0  0  0  0  0  0  0  0  0
   12.2776   -3.0106   21.6726 H   0  0  0  0  0  0  0  0  0  0  0  0
    7.1993   -4.5157   28.6479 H   0  0  0  0  0  0  0  0  0  0  0  0
    5.2674   -7.1203   25.8086 H   0  0  0  0  0  0  0  0  0  0  0  0
    8.2370   -0.3768   23.3502 H   0  0  0  0  0  0  0  0  0  0  0  0
    9.3302   -1.3635   24.3044 H   0  0  0  0  0  0  0  0  0  0  0  0
   10.2304   -3.6319   23.1411 H   0  0  0  0  0  0  0  0  0  0  0  0
    9.6798   -3.9475   21.5055 H   0  0  0  0  0  0  0  0  0  0  0  0
    7.0347   -1.7797   25.0628 H   0  0  0  0  0  0  0  0  0  0  0  0
    6.5014   -2.0523   23.3987 H   0  0  0  0  0  0  0  0  0  0  0  0
    7.3882   -4.2528   22.2263 H   0  0  0  0  0  0  0  0  0  0  0  0
    8.4208   -5.3043   23.2051 H   0  0  0  0  0  0  0  0  0  0  0  0
    8.2972   -1.9349   21.4730 H   0  0  0  0  0  0  0  0  0  0  0  0
   14.9407   -1.4625   25.7286 H   0  0  0  0  0  0  0  0  0  0  0  0
   15.8872   -1.3574   24.2237 H   0  0  0  0  0  0  0  0  0  0  0  0
   15.2953    0.1173   24.9868 H   0  0  0  0  0  0  0  0  0  0  0  0
    7.3928   -7.9432   29.6944 H   0  0  0  0  0  0  0  0  0  0  0  0
    6.6219   -8.9833   28.5596 H   0  0  0  0  0  0  0  0  0  0  0  0
   10.1932   -0.8659   20.8873 H   0  0  0  0  0  0  0  0  0  0  0  0
  1  5  2  0  0  0  0
  1  9  1  0  0  0  0
  2  6  1  0  0  0  0
  2  9  2  0  0  0  0
  3  7  2  0  0  0  0
  3 10  1  0  0  0  0
  4  8  1  0  0  0  0
  4 10  2  0  0  0  0
  5 11  1  0  0  0  0
  6 11  2  0  0  0  0
  7 12  1  0  0  0  0
  8 12  2  0  0  0  0
  9 18  1  0  0  0  0
 10 19  1  0  0  0  0
 11 21  1  0  0  0  0
 12 24  1  0  0  0  0
 13 15  1  0  0  0  0
 13 17  1  0  0  0  0
 14 16  1  0  0  0  0
 14 17  1  0  0  0  0
 15 19  1  0  0  0  0
 16 19  1  0  0  0  0
 17 21  1  0  0  0  0
 20 24  1  0  0  0  0
 22 24  2  0  0  0  0
 23 24  2  0  0  0  0
  1 25  1  0  0  0  0
  2 26  1  0  0  0  0
  3 27  1  0  0  0  0
  4 28  1  0  0  0  0
  5 29  1  0  0  0  0
  6 30  1  0  0  0  0
  7 31  1  0  0  0  0
  8 32  1  0  0  0  0
 13 33  1  0  0  0  0
 13 34  1  0  0  0  0
 14 35  1  0  0  0  0
 14 36  1  0  0  0  0
 15 37  1  0  0  0  0
 15 38  1  0  0  0  0
 16 39  1  0  0  0  0
 16 40  1  0  0  0  0
 17 41  1  0  0  0  0
 18 42  1  0  0  0  0
 18 43  1  0  0  0  0
 18 44  1  0  0  0  0
 20 45  1  0  0  0  0
 20 46  1  0  0  0  0
 21 47  1  0  0  0  0
M  END
> <Hybrid2>
-9.584717

> <fragments>
x0072

> <Mpro-x0072_dock>
-9.584717

> <Mpro-x0161_dock>
-9.102729

> <Mpro-x0104_dock>
-7.7515

> <Mpro-x0874_dock>
-6.815374

> <Mpro-x1093_dock>
-6.526307

> <Mpro-x0305_dock>
-6.213993

> <Mpro-x0387_dock>
-5.961385

> <Mpro-x1077_dock>
-5.794887

> <Mpro-x0395_dock>
-5.64834

> <Mpro-x1392_dock>
-5.53896

> <Mpro-x0107_dock>
-5.244394

> <Mpro-x0397_dock>
-4.856189

> <Mpro-x0195_dock>
-4.843551

> <Mpro-x1311_dock>
-4.71232

> <Mpro-x1249_dock>
-4.332797

> <Mpro-x0967_dock>
-3.991636

> <Mpro-x1187_dock>
-3.141632

> <Mpro-x0749_dock>
-3.114465

> <Mpro-x0830_dock>
-3.003404

> <Mpro-x0678_dock>
-2.976358

> <Mpro-x1380_dock>
-2.831315

> <Mpro-x1334_dock>
-2.747702

> <Mpro-x1374_dock>
-2.416519

> <Mpro-x1493_dock>
-2.365845

> <Mpro-x0354_dock>
-2.310295

> <Mpro-x0946_dock>
-2.265985

> <Mpro-x1385_dock>
-2.190346

> <Mpro-x0434_dock>
-1.910107

> <Mpro-x0831_dock>
-1.645814

> <Mpro-x0692_dock>
-1.610835

> <Mpro-x1358_dock>
-1.444793

> <Mpro-x1375_dock>
-1.383042

> <Mpro-x0887_dock>
-1.318754

> <Mpro-x0978_dock>
-1.162121

> <Mpro-x0771_dock>
-0.858088

> <Mpro-x0540_dock>
-0.665223

> <Mpro-x0981_dock>
-0.191

> <Mpro-x1478_dock>
0.027796

> <Mpro-x1348_dock>
0.10382

> <Mpro-x1384_dock>
0.196621

> <Mpro-x1425_dock>
0.373284

> <Mpro-x1412_dock>
0.477049

> <Mpro-x0752_dock>
0.512617

> <Mpro-x0769_dock>
0.53494

> <Mpro-x1458_dock>
0.54276

> <Mpro-x1308_dock>
0.643708

> <Mpro-x1351_dock>
0.666421

> <Mpro-x0426_dock>
0.863886

> <Mpro-x0708_dock>
1.00606

> <Mpro-x0691_dock>
1.153208

> <Mpro-x0689_dock>
1.308466

> <Mpro-x0820_dock>
1.533587

> <Mpro-x0755_dock>
1.647781

> <Mpro-x0731_dock>
1.718623

> <Mpro-x0786_dock>
1.800085

> <Mpro-x1386_dock>
1.885462

> <Mpro-x0770_dock>
2.002173

> <Mpro-x0774_dock>
2.023744

> <Mpro-x1418_dock>
2.1497

> <Mpro-x0705_dock>
2.335456

> <Mpro-x0736_dock>
2.490371

> <Mpro-x0734_dock>
2.514091

> <Mpro-x1402_dock>
2.61405

> <Mpro-x0759_dock>
2.892088

> <Mpro-x1382_dock>
3.504407

> <site>
active-noncovalent

$$$$
CHR-SOS-709-11
  -OEChem-04022003013D

 26 27  0     0  0  0  0  0  0999 V2000
    6.5307    0.8273   19.5935 C   0  0  0  0  0  0  0  0  0  0  0  0
    7.6108    0.5415   20.4211 C   0  0  0  0  0  0  0  0  0  0  0  0
   12.9083   -0.6648   24.3896 C   0  0  0  0  0  0  0  0  0  0  0  0
   13.8819   -1.2111   23.5534 C   0  0  0  0  0  0  0  0  0  0  0  0
   12.4960   -0.7392   21.6314 C   0  0  0  0  0  0  0  0  0  0  0  0
    6.6606    0.5567   18.2408 C   0  0  0  0  0  0  0  0  0  0  0  0
    8.8010   -0.2324   18.5130 C   0  0  0  0  0  0  0  0  0  0  0  0
   11.5224   -0.1930   22.4677 C   0  0  0  0  0  0  0  0  0  0  0  0
    8.7715    0.0014   19.8784 C   0  0  0  0  0  0  0  0  0  0  0  0
   11.7285   -0.1558   23.8467 C   0  0  0  0  0  0  0  0  0  0  0  0
   13.6758   -1.2483   22.1743 C   0  0  0  0  0  0  0  0  0  0  0  0
   10.2967    0.3310   21.8811 C   0  0  0  0  0  0  0  0  0  0  0  0
    7.7719    0.0323   17.6772 N   0  0  0  0  0  0  0  0  0  0  0  0
    9.8892   -0.3003   20.6967 N   0  0  0  0  0  0  0  0  0  0  0  0
    9.6922    1.2861   22.3855 O   0  0  0  0  0  0  0  0  0  0  0  0
   10.7882    0.3718   24.6805 O   0  0  0  0  0  0  0  0  0  0  0  0
   14.8780   -1.9204   21.1424 Cl  0  0  0  0  0  0  0  0  0  0  0  0
    5.6160    1.2487   19.9947 H   0  0  0  0  0  0  0  0  0  0  0  0
    7.5374    0.7434   21.4864 H   0  0  0  0  0  0  0  0  0  0  0  0
   13.0742   -0.6392   25.4632 H   0  0  0  0  0  0  0  0  0  0  0  0
   14.7968   -1.6028   23.9903 H   0  0  0  0  0  0  0  0  0  0  0  0
   12.3327   -0.7679   20.5561 H   0  0  0  0  0  0  0  0  0  0  0  0
    5.8470    0.7625   17.5531 H   0  0  0  0  0  0  0  0  0  0  0  0
    9.6788   -0.6527   18.0312 H   0  0  0  0  0  0  0  0  0  0  0  0
   10.4706   -1.0742   20.3846 H   0  0  0  0  0  0  0  0  0  0  0  0
   10.0260    0.6853   24.1693 H   0  0  0  0  0  0  0  0  0  0  0  0
  1  2  2  0  0  0  0
  1  6  1  0  0  0  0
  2  9  1  0  0  0  0
  3  4  2  0  0  0  0
  3 10  1  0  0  0  0
  4 11  1  0  0  0  0
  5  8  1  0  0  0  0
  5 11  2  0  0  0  0
  6 13  2  0  0  0  0
  7  9  2  0  0  0  0
  7 13  1  0  0  0  0
  8 10  2  0  0  0  0
  8 12  1  0  0  0  0
  9 14  1  0  0  0  0
 10 16  1  0  0  0  0
 11 17  1  0  0  0  0
 12 14  1  0  0  0  0
 12 15  2  0  0  0  0
  1 18  1  0  0  0  0
  2 19  1  0  0  0  0
  3 20  1  0  0  0  0
  4 21  1  0  0  0  0
  5 22  1  0  0  0  0
  6 23  1  0  0  0  0
  7 24  1  0  0  0  0
 14 25  1  0  0  0  0
 16 26  1  0  0  0  0
M  END
> <Hybrid2>
-9.563734

> <fragments>
x0678

> <Mpro-x0678_dock>
-9.563734

> <Mpro-x0107_dock>
-8.310019

> <Mpro-x0397_dock>
-8.137758

> <Mpro-x0072_dock>
-8.134067

> <Mpro-x0195_dock>
-8.012623

> <Mpro-x0749_dock>
-7.674662

> <Mpro-x0161_dock>
-7.461421

> <Mpro-x1093_dock>
-7.214292

> <Mpro-x0104_dock>
-6.927883

> <Mpro-x0946_dock>
-6.901561

> <Mpro-x0759_dock>
-6.680269

> <Mpro-x1077_dock>
-6.298558

> <Mpro-x0395_dock>
-6.267321

> <Mpro-x1392_dock>
-5.96596

> <Mpro-x0434_dock>
-5.910057

> <Mpro-x0830_dock>
-5.823372

> <Mpro-x1348_dock>
-5.801595

> <Mpro-x0831_dock>
-5.728712

> <Mpro-x0981_dock>
-5.694321

> <Mpro-x0770_dock>
-5.614776

> <Mpro-x1311_dock>
-5.487353

> <Mpro-x0708_dock>
-5.41338

> <Mpro-x0692_dock>
-5.338257

> <Mpro-x0874_dock>
-5.296846

> <Mpro-x1334_dock>
-5.213965

> <Mpro-x0305_dock>
-5.213022

> <Mpro-x1412_dock>
-5.203674

> <Mpro-x1386_dock>
-5.190896

> <Mpro-x1375_dock>
-5.18231

> <Mpro-x1380_dock>
-4.718334

> <Mpro-x0354_dock>
-4.686141

> <Mpro-x1385_dock>
-4.58643

> <Mpro-x1187_dock>
-4.518674

> <Mpro-x1418_dock>
-4.514227

> <Mpro-x1374_dock>
-4.409664

> <Mpro-x0967_dock>
-4.335839

> <Mpro-x0978_dock>
-4.250329

> <Mpro-x0540_dock>
-4.220742

> <Mpro-x0426_dock>
-4.191278

> <Mpro-x0734_dock>
-4.175234

> <Mpro-x0387_dock>
-4.17474

> <Mpro-x1478_dock>
-3.97264

> <Mpro-x1249_dock>
-3.949961

> <Mpro-x0774_dock>
-3.441529

> <Mpro-x1382_dock>
-3.255107

> <Mpro-x0786_dock>
-3.159938

> <Mpro-x0771_dock>
-3.133142

> <Mpro-x0736_dock>
-3.086857

> <Mpro-x1308_dock>
-3.022055

> <Mpro-x1358_dock>
-2.759715

> <Mpro-x0731_dock>
-2.615013

> <Mpro-x1458_dock>
-2.485395

> <Mpro-x0691_dock>
-2.468421

> <Mpro-x1493_dock>
-2.418307

> <Mpro-x1425_dock>
-2.319061

> <Mpro-x1402_dock>
-2.268442

> <Mpro-x1384_dock>
-2.198007

> <Mpro-x0769_dock>
-2.189275

> <Mpro-x0820_dock>
-2.15502

> <Mpro-x0755_dock>
-2.107368

> <Mpro-x0689_dock>
-2.004486

> <Mpro-x0887_dock>
-1.350151

> <Mpro-x0705_dock>
-1.345743

> <Mpro-x0752_dock>
-1.326965

> <Mpro-x1351_dock>
-1.265068

> <site>
active-noncovalent

$$$$
BAR-COM-4e0-58
  -OEChem-04022003013D

 40 42  0     0  0  0  0  0  0999 V2000
   13.8283   -1.7750   23.1899 C   0  0  0  0  0  0  0  0  0  0  0  0
   12.4719   -2.0989   23.1633 C   0  0  0  0  0  0  0  0  0  0  0  0
   14.2311   -0.4466   23.0523 C   0  0  0  0  0  0  0  0  0  0  0  0
   11.9208    0.2340   22.8613 C   0  0  0  0  0  0  0  0  0  0  0  0
   12.5467    6.0416   24.7827 C   0  0  0  0  0  0  0  0  0  0  0  0
   10.4295    6.6067   24.8717 C   0  0  0  0  0  0  0  0  0  0  0  0
   11.5181   -1.0944   22.9989 C   0  0  0  0  0  0  0  0  0  0  0  0
   13.2773    0.5578   22.8879 C   0  0  0  0  0  0  0  0  0  0  0  0
   12.2411    5.9122   23.4441 C   0  0  0  0  0  0  0  0  0  0  0  0
   12.8791    3.0326   22.5759 C   0  0  0  0  0  0  0  0  0  0  0  0
    9.6710   -2.7041   22.4807 C   0  0  0  0  0  0  0  0  0  0  0  0
    9.2096   -0.7079   23.8280 C   0  0  0  0  0  0  0  0  0  0  0  0
    9.2792   -3.5636   23.6778 C   0  0  0  0  0  0  0  0  0  0  0  0
    8.8200   -1.6370   24.9786 C   0  0  0  0  0  0  0  0  0  0  0  0
   13.1157    5.5052   22.2936 C   0  0  0  0  0  0  0  0  0  0  0  0
   11.5092    6.4402   25.6028 N   0  0  0  0  0  0  0  0  0  0  0  0
   10.1673   -1.4172   22.9731 N   0  0  0  0  0  0  0  0  0  0  0  0
   13.6807    1.8863   22.7491 N   0  0  0  0  0  0  0  0  0  0  0  0
   13.6685    4.1829   22.4761 N   0  0  0  0  0  0  0  0  0  0  0  0
   11.6520    3.0533   22.5168 O   0  0  0  0  0  0  0  0  0  0  0  0
    8.3078   -2.8761   24.4757 O   0  0  0  0  0  0  0  0  0  0  0  0
   10.5900    6.3009   23.1908 S   0  0  0  0  0  0  0  0  0  0  0  0
   14.5710   -2.5572   23.3181 H   0  0  0  0  0  0  0  0  0  0  0  0
   12.1691   -3.1374   23.2710 H   0  0  0  0  0  0  0  0  0  0  0  0
   15.2913   -0.2067   23.0735 H   0  0  0  0  0  0  0  0  0  0  0  0
   11.1775    1.0179   22.7324 H   0  0  0  0  0  0  0  0  0  0  0  0
   13.5193    5.8569   25.2194 H   0  0  0  0  0  0  0  0  0  0  0  0
    9.4871    6.9191   25.3004 H   0  0  0  0  0  0  0  0  0  0  0  0
   10.4349   -3.2202   21.8955 H   0  0  0  0  0  0  0  0  0  0  0  0
    8.7946   -2.5353   21.8493 H   0  0  0  0  0  0  0  0  0  0  0  0
    8.3223   -0.4571   23.2453 H   0  0  0  0  0  0  0  0  0  0  0  0
    9.6453    0.2059   24.2296 H   0  0  0  0  0  0  0  0  0  0  0  0
    8.8246   -4.4948   23.3331 H   0  0  0  0  0  0  0  0  0  0  0  0
   10.1469   -3.8211   24.2917 H   0  0  0  0  0  0  0  0  0  0  0  0
    9.6696   -1.8299   25.6441 H   0  0  0  0  0  0  0  0  0  0  0  0
    8.0315   -1.1711   25.5774 H   0  0  0  0  0  0  0  0  0  0  0  0
   12.5473    5.5068   21.3571 H   0  0  0  0  0  0  0  0  0  0  0  0
   13.9505    6.2027   22.1686 H   0  0  0  0  0  0  0  0  0  0  0  0
   14.6898    2.0664   22.7753 H   0  0  0  0  0  0  0  0  0  0  0  0
   14.6771    4.0840   22.5347 H   0  0  0  0  0  0  0  0  0  0  0  0
  1  2  1  0  0  0  0
  1  3  2  0  0  0  0
  2  7  2  0  0  0  0
  3  8  1  0  0  0  0
  4  7  1  0  0  0  0
  4  8  2  0  0  0  0
  5  9  2  0  0  0  0
  5 16  1  0  0  0  0
  6 16  2  0  0  0  0
  6 22  1  0  0  0  0
  7 17  1  0  0  0  0
  8 18  1  0  0  0  0
  9 15  1  0  0  0  0
  9 22  1  0  0  0  0
 10 18  1  0  0  0  0
 10 19  1  0  0  0  0
 10 20  2  0  0  0  0
 11 13  1  0  0  0  0
 11 17  1  0  0  0  0
 12 14  1  0  0  0  0
 12 17  1  0  0  0  0
 13 21  1  0  0  0  0
 14 21  1  0  0  0  0
 15 19  1  0  0  0  0
  1 23  1  0  0  0  0
  2 24  1  0  0  0  0
  3 25  1  0  0  0  0
  4 26  1  0  0  0  0
  5 27  1  0  0  0  0
  6 28  1  0  0  0  0
 11 29  1  0  0  0  0
 11 30  1  0  0  0  0
 12 31  1  0  0  0  0
 12 32  1  0  0  0  0
 13 33  1  0  0  0  0
 13 34  1  0  0  0  0
 14 35  1  0  0  0  0
 14 36  1  0  0  0  0
 15 37  1  0  0  0  0
 15 38  1  0  0  0  0
 18 39  1  0  0  0  0
 19 40  1  0  0  0  0
M  END
> <Hybrid2>
-9.563450

> <fragments>
x0195

> <Mpro-x0195_dock>
-9.56345

> <Mpro-x0678_dock>
-7.856439

> <Mpro-x0946_dock>
-7.587345

> <Mpro-x0104_dock>
-7.000306

> <Mpro-x1077_dock>
-6.416502

> <Mpro-x0161_dock>
-6.28993

> <Mpro-x1392_dock>
-5.620482

> <Mpro-x0434_dock>
-5.615469

> <Mpro-x0874_dock>
-5.465776

> <Mpro-x0107_dock>
-5.446613

> <Mpro-x1093_dock>
-5.427095

> <Mpro-x0830_dock>
-5.140593

> <Mpro-x0397_dock>
-5.119666

> <Mpro-x0387_dock>
-5.047791

> <Mpro-x1311_dock>
-4.922976

> <Mpro-x0072_dock>
-4.715821

> <Mpro-x0749_dock>
-4.667896

> <Mpro-x1249_dock>
-4.532057

> <Mpro-x1187_dock>
-4.243907

> <Mpro-x0967_dock>
-4.059578

> <Mpro-x0426_dock>
-3.540537

> <Mpro-x1348_dock>
-3.025465

> <Mpro-x0305_dock>
-2.965111

> <Mpro-x0354_dock>
-2.922429

> <Mpro-x0831_dock>
-2.80293

> <Mpro-x0981_dock>
-2.627552

> <Mpro-x0759_dock>
-2.385207

> <Mpro-x1385_dock>
-2.338534

> <Mpro-x0692_dock>
-2.280488

> <Mpro-x1493_dock>
-2.267017

> <Mpro-x1334_dock>
-1.716137

> <Mpro-x0395_dock>
-1.473711

> <Mpro-x0734_dock>
-1.451513

> <Mpro-x1384_dock>
-1.41784

> <Mpro-x1458_dock>
-1.413137

> <Mpro-x0540_dock>
-1.412398

> <Mpro-x1375_dock>
-1.319558

> <Mpro-x1418_dock>
-1.241795

> <Mpro-x0771_dock>
-1.218092

> <Mpro-x1478_dock>
-1.035074

> <Mpro-x1374_dock>
-1.031731

> <Mpro-x1308_dock>
-0.991436

> <Mpro-x0786_dock>
-0.964816

> <Mpro-x0691_dock>
-0.830769

> <Mpro-x0705_dock>
-0.706087

> <Mpro-x1358_dock>
-0.58628

> <Mpro-x0708_dock>
-0.533984

> <Mpro-x0887_dock>
-0.465753

> <Mpro-x1382_dock>
-0.408345

> <Mpro-x0731_dock>
-0.294914

> <Mpro-x1351_dock>
-0.261793

> <Mpro-x1425_dock>
-0.172853

> <Mpro-x1386_dock>
-0.15878

> <Mpro-x0769_dock>
-0.136766

> <Mpro-x1380_dock>
0.01379

> <Mpro-x1412_dock>
0.121198

> <Mpro-x0752_dock>
0.209325

> <Mpro-x0774_dock>
0.358738

> <Mpro-x0770_dock>
0.426306

> <Mpro-x0820_dock>
0.445749

> <Mpro-x0755_dock>
0.515119

> <Mpro-x0689_dock>
0.544385

> <Mpro-x1402_dock>
1.012727

> <Mpro-x0978_dock>
1.025643

> <Mpro-x0736_dock>
1.044545

> <site>
active-noncovalent

$$$$
DAR-DIA-23a-1
  -OEChem-04022003013D

 33 35  0     0  0  0  0  0  0999 V2000
    5.4514   -5.7739   26.0041 C   0  0  0  0  0  0  0  0  0  0  0  0
    8.5292   -3.7449   26.5200 C   0  0  0  0  0  0  0  0  0  0  0  0
    4.7505    1.0254   18.7564 C   0  0  0  0  0  0  0  0  0  0  0  0
    7.5898   -4.7695   26.6344 C   0  0  0  0  0  0  0  0  0  0  0  0
    5.2458    0.9797   20.0582 C   0  0  0  0  0  0  0  0  0  0  0  0
    8.2921   -2.6743   25.6578 C   0  0  0  0  0  0  0  0  0  0  0  0
    6.1760   -3.6530   25.0245 C   0  0  0  0  0  0  0  0  0  0  0  0
    5.5306    0.5165   17.7268 C   0  0  0  0  0  0  0  0  0  0  0  0
    8.5116   -0.4192   20.9058 C   0  0  0  0  0  0  0  0  0  0  0  0
    6.4131   -4.7236   25.8867 C   0  0  0  0  0  0  0  0  0  0  0  0
    6.5169    0.4167   20.2568 C   0  0  0  0  0  0  0  0  0  0  0  0
    7.3626    0.1817   21.3730 C   0  0  0  0  0  0  0  0  0  0  0  0
    7.1154   -2.6284   24.9101 C   0  0  0  0  0  0  0  0  0  0  0  0
    7.1904   -0.0559   19.1342 C   0  0  0  0  0  0  0  0  0  0  0  0
    7.6968   -0.4420   23.8025 C   0  0  0  0  0  0  0  0  0  0  0  0
    7.0739    0.5167   22.7818 C   0  0  0  0  0  0  0  0  0  0  0  0
    4.6703   -6.6269   26.0995 N   0  0  0  0  0  0  0  0  0  0  0  0
    6.7589   -0.0360   17.8589 N   0  0  0  0  0  0  0  0  0  0  0  0
    8.3965   -0.5580   19.5468 N   0  0  0  0  0  0  0  0  0  0  0  0
    6.8746   -1.5413   24.0365 N   0  0  0  0  0  0  0  0  0  0  0  0
    8.7877   -0.2082   24.3129 O   0  0  0  0  0  0  0  0  0  0  0  0
    9.4451   -3.7802   27.1029 H   0  0  0  0  0  0  0  0  0  0  0  0
    3.7738    1.4511   18.5527 H   0  0  0  0  0  0  0  0  0  0  0  0
    7.7896   -5.5975   27.3102 H   0  0  0  0  0  0  0  0  0  0  0  0
    4.6612    1.3683   20.8858 H   0  0  0  0  0  0  0  0  0  0  0  0
    9.0313   -1.8813   25.5768 H   0  0  0  0  0  0  0  0  0  0  0  0
    5.2592   -3.6142   24.4392 H   0  0  0  0  0  0  0  0  0  0  0  0
    5.1600    0.5429   16.7054 H   0  0  0  0  0  0  0  0  0  0  0  0
    9.4008   -0.7612   21.4171 H   0  0  0  0  0  0  0  0  0  0  0  0
    7.4284    1.5367   23.0290 H   0  0  0  0  0  0  0  0  0  0  0  0
    5.9823    0.5359   22.9693 H   0  0  0  0  0  0  0  0  0  0  0  0
    9.0946   -0.9668   18.9412 H   0  0  0  0  0  0  0  0  0  0  0  0
    5.9984   -1.5659   23.5190 H   0  0  0  0  0  0  0  0  0  0  0  0
  1 10  1  0  0  0  0
  1 17  3  0  0  0  0
  2  4  2  0  0  0  0
  2  6  1  0  0  0  0
  3  5  2  0  0  0  0
  3  8  1  0  0  0  0
  4 10  1  0  0  0  0
  5 11  1  0  0  0  0
  6 13  2  0  0  0  0
  7 10  2  0  0  0  0
  7 13  1  0  0  0  0
  8 18  2  0  0  0  0
  9 12  2  0  0  0  0
  9 19  1  0  0  0  0
 11 12  1  0  0  0  0
 11 14  2  0  0  0  0
 12 16  1  0  0  0  0
 13 20  1  0  0  0  0
 14 18  1  0  0  0  0
 14 19  1  0  0  0  0
 15 16  1  0  0  0  0
 15 20  1  0  0  0  0
 15 21  2  0  0  0  0
  2 22  1  0  0  0  0
  3 23  1  0  0  0  0
  4 24  1  0  0  0  0
  5 25  1  0  0  0  0
  6 26  1  0  0  0  0
  7 27  1  0  0  0  0
  8 28  1  0  0  0  0
  9 29  1  0  0  0  0
 16 30  1  0  0  0  0
 16 31  1  0  0  0  0
 19 32  1  0  0  0  0
 20 33  1  0  0  0  0
M  END
> <Hybrid2>
-9.539215

> <fragments>
x0107

> <Mpro-x0107_dock>
-9.539215

> <Mpro-x0678_dock>
-8.415022

> <Mpro-x0749_dock>
-8.347825

> <Mpro-x0397_dock>
-8.237673

> <Mpro-x0874_dock>
-8.228982

> <Mpro-x0830_dock>
-7.994029

> <Mpro-x0104_dock>
-7.878626

> <Mpro-x0072_dock>
-7.714703

> <Mpro-x0434_dock>
-7.617625

> <Mpro-x0195_dock>
-7.497174

> <Mpro-x0831_dock>
-7.495082

> <Mpro-x0161_dock>
-7.399648

> <Mpro-x1418_dock>
-7.37267

> <Mpro-x1093_dock>
-7.265885

> <Mpro-x1386_dock>
-7.059555

> <Mpro-x0770_dock>
-6.959287

> <Mpro-x1077_dock>
-6.925888

> <Mpro-x0946_dock>
-6.771332

> <Mpro-x0692_dock>
-6.770741

> <Mpro-x1392_dock>
-6.660779

> <Mpro-x0967_dock>
-5.957311

> <Mpro-x0708_dock>
-5.9187

> <Mpro-x0759_dock>
-5.678384

> <Mpro-x1311_dock>
-5.606283

> <Mpro-x0774_dock>
-5.508059

> <Mpro-x1249_dock>
-5.25837

> <Mpro-x1493_dock>
-5.19839

> <Mpro-x1412_dock>
-5.097655

> <Mpro-x0426_dock>
-5.095532

> <Mpro-x0395_dock>
-5.028057

> <Mpro-x1375_dock>
-4.745844

> <Mpro-x0387_dock>
-4.69439

> <Mpro-x0354_dock>
-4.602189

> <Mpro-x1348_dock>
-4.568647

> <Mpro-x1380_dock>
-4.434547

> <Mpro-x1458_dock>
-4.346188

> <Mpro-x0540_dock>
-4.313178

> <Mpro-x1385_dock>
-4.263711

> <Mpro-x1334_dock>
-4.186368

> <Mpro-x1374_dock>
-4.183549

> <Mpro-x1187_dock>
-3.993065

> <Mpro-x1478_dock>
-3.73733

> <Mpro-x0820_dock>
-3.629798

> <Mpro-x0734_dock>
-3.562375

> <Mpro-x1358_dock>
-3.408054

> <Mpro-x0305_dock>
-3.406175

> <Mpro-x0736_dock>
-2.882074

> <Mpro-x1351_dock>
-2.723322

> <Mpro-x1425_dock>
-2.532377

> <Mpro-x0786_dock>
-2.294485

> <Mpro-x0691_dock>
-1.812009

> <Mpro-x0771_dock>
-1.653973

> <Mpro-x0705_dock>
-1.613023

> <Mpro-x1384_dock>
-1.567952

> <Mpro-x0769_dock>
-1.477356

> <Mpro-x0755_dock>
-1.393062

> <Mpro-x0978_dock>
-1.315686

> <Mpro-x1382_dock>
-1.249707

> <Mpro-x0752_dock>
-1.190199

> <Mpro-x0731_dock>
-1.067379

> <Mpro-x1308_dock>
-1.05836

> <Mpro-x1402_dock>
-0.226475

> <Mpro-x0689_dock>
-0.143296

> <Mpro-x0887_dock>
0.341626

> <Mpro-x0981_dock>
0.770727

> <site>
active-noncovalent

$$$$
TRY-UNI-1fd-9
  -OEChem-04022003013D

 34 36  0     0  0  0  0  0  0999 V2000
    5.2301    1.2969   18.2343 C   0  0  0  0  0  0  0  0  0  0  0  0
    5.6709    1.1238   19.5451 C   0  0  0  0  0  0  0  0  0  0  0  0
   13.8950    0.9454   23.3332 C   0  0  0  0  0  0  0  0  0  0  0  0
   12.0473   -0.1445   24.4205 C   0  0  0  0  0  0  0  0  0  0  0  0
    6.0530    0.8878   17.1935 C   0  0  0  0  0  0  0  0  0  0  0  0
   13.1427    2.1089   23.3397 C   0  0  0  0  0  0  0  0  0  0  0  0
    8.9002   -0.3601   20.3879 C   0  0  0  0  0  0  0  0  0  0  0  0
    6.9332    0.5405   19.7407 C   0  0  0  0  0  0  0  0  0  0  0  0
    7.7320    0.1960   20.8631 C   0  0  0  0  0  0  0  0  0  0  0  0
   13.3296   -0.1983   23.8858 C   0  0  0  0  0  0  0  0  0  0  0  0
   11.3777    1.0678   24.3785 C   0  0  0  0  0  0  0  0  0  0  0  0
    7.6535    0.1770   18.6066 C   0  0  0  0  0  0  0  0  0  0  0  0
    8.3773    1.2579   23.0616 C   0  0  0  0  0  0  0  0  0  0  0  0
    7.3845    0.3938   22.2845 C   0  0  0  0  0  0  0  0  0  0  0  0
    9.9914    1.1625   24.9472 C   0  0  0  0  0  0  0  0  0  0  0  0
   11.8941    2.1999   23.8500 N   0  0  0  0  0  0  0  0  0  0  0  0
    7.2754    0.3216   17.3224 N   0  0  0  0  0  0  0  0  0  0  0  0
    8.8419   -0.3663   19.0183 N   0  0  0  0  0  0  0  0  0  0  0  0
    9.0087    0.5570   24.0793 N   0  0  0  0  0  0  0  0  0  0  0  0
    8.5768    2.4393   22.7910 O   0  0  0  0  0  0  0  0  0  0  0  0
   14.2134   -1.6739   23.9064 Cl  0  0  0  0  0  0  0  0  0  0  0  0
    4.2622    1.7431   18.0324 H   0  0  0  0  0  0  0  0  0  0  0  0
    5.0519    1.4320   20.3814 H   0  0  0  0  0  0  0  0  0  0  0  0
   14.8930    0.9407   22.9074 H   0  0  0  0  0  0  0  0  0  0  0  0
   11.5818   -1.0221   24.8582 H   0  0  0  0  0  0  0  0  0  0  0  0
    5.7252    1.0142   16.1650 H   0  0  0  0  0  0  0  0  0  0  0  0
   13.5386    3.0283   22.9210 H   0  0  0  0  0  0  0  0  0  0  0  0
    9.7677   -0.7526   20.9001 H   0  0  0  0  0  0  0  0  0  0  0  0
    6.3859    0.8615   22.3875 H   0  0  0  0  0  0  0  0  0  0  0  0
    7.3063   -0.5750   22.8155 H   0  0  0  0  0  0  0  0  0  0  0  0
    9.9378    0.6604   25.9194 H   0  0  0  0  0  0  0  0  0  0  0  0
    9.7014    2.2068   25.1041 H   0  0  0  0  0  0  0  0  0  0  0  0
    9.5651   -0.7164   18.4054 H   0  0  0  0  0  0  0  0  0  0  0  0
    8.7703   -0.4204   24.2193 H   0  0  0  0  0  0  0  0  0  0  0  0
  1  2  2  0  0  0  0
  1  5  1  0  0  0  0
  2  8  1  0  0  0  0
  3  6  2  0  0  0  0
  3 10  1  0  0  0  0
  4 10  2  0  0  0  0
  4 11  1  0  0  0  0
  5 17  2  0  0  0  0
  6 16  1  0  0  0  0
  7  9  2  0  0  0  0
  7 18  1  0  0  0  0
  8  9  1  0  0  0  0
  8 12  2  0  0  0  0
  9 14  1  0  0  0  0
 10 21  1  0  0  0  0
 11 15  1  0  0  0  0
 11 16  2  0  0  0  0
 12 17  1  0  0  0  0
 12 18  1  0  0  0  0
 13 14  1  0  0  0  0
 13 19  1  0  0  0  0
 13 20  2  0  0  0  0
 15 19  1  0  0  0  0
  1 22  1  0  0  0  0
  2 23  1  0  0  0  0
  3 24  1  0  0  0  0
  4 25  1  0  0  0  0
  5 26  1  0  0  0  0
  6 27  1  0  0  0  0
  7 28  1  0  0  0  0
 14 29  1  0  0  0  0
 14 30  1  0  0  0  0
 15 31  1  0  0  0  0
 15 32  1  0  0  0  0
 18 33  1  0  0  0  0
 19 34  1  0  0  0  0
M  END
> <Hybrid2>
-9.539196

> <fragments>
x0678

> <Mpro-x0678_dock>
-9.539196

> <Mpro-x0749_dock>
-9.264538

> <Mpro-x0161_dock>
-8.241321

> <Mpro-x0967_dock>
-8.071115

> <Mpro-x0434_dock>
-7.904606

> <Mpro-x0195_dock>
-7.870423

> <Mpro-x0107_dock>
-7.658628

> <Mpro-x0397_dock>
-7.419254

> <Mpro-x0831_dock>
-6.837605

> <Mpro-x1093_dock>
-6.780236

> <Mpro-x0072_dock>
-6.514696

> <Mpro-x0104_dock>
-6.485888

> <Mpro-x0830_dock>
-6.249883

> <Mpro-x1077_dock>
-5.823237

> <Mpro-x1374_dock>
-5.765111

> <Mpro-x1392_dock>
-5.75906

> <Mpro-x0874_dock>
-5.522594

> <Mpro-x1385_dock>
-5.371433

> <Mpro-x0946_dock>
-5.354934

> <Mpro-x0759_dock>
-5.323292

> <Mpro-x0387_dock>
-5.245292

> <Mpro-x1348_dock>
-5.236496

> <Mpro-x0692_dock>
-5.133458

> <Mpro-x1311_dock>
-5.08615

> <Mpro-x1249_dock>
-5.007907

> <Mpro-x1458_dock>
-4.80919

> <Mpro-x1418_dock>
-4.691843

> <Mpro-x0820_dock>
-4.684123

> <Mpro-x0395_dock>
-4.588449

> <Mpro-x0354_dock>
-4.435968

> <Mpro-x1478_dock>
-4.348645

> <Mpro-x0774_dock>
-4.27746

> <Mpro-x0736_dock>
-4.184643

> <Mpro-x1334_dock>
-4.166871

> <Mpro-x1493_dock>
-4.091261

> <Mpro-x1375_dock>
-4.021775

> <Mpro-x0305_dock>
-3.930734

> <Mpro-x0770_dock>
-3.912189

> <Mpro-x0734_dock>
-3.77248

> <Mpro-x1384_dock>
-3.769351

> <Mpro-x1386_dock>
-3.330175

> <Mpro-x1412_dock>
-3.288289

> <Mpro-x1382_dock>
-3.219535

> <Mpro-x0708_dock>
-3.182026

> <Mpro-x0540_dock>
-3.118257

> <Mpro-x1358_dock>
-2.186389

> <Mpro-x0731_dock>
-2.124729

> <Mpro-x0752_dock>
-1.979342

> <Mpro-x0755_dock>
-1.830146

> <Mpro-x0981_dock>
-1.788146

> <Mpro-x0426_dock>
-1.746827

> <Mpro-x0786_dock>
-1.661607

> <Mpro-x1308_dock>
-1.657885

> <Mpro-x1425_dock>
-1.643255

> <Mpro-x0771_dock>
-1.629648

> <Mpro-x1380_dock>
-1.543576

> <Mpro-x1187_dock>
-1.487147

> <Mpro-x0769_dock>
-1.377914

> <Mpro-x0705_dock>
-1.076586

> <Mpro-x0887_dock>
-0.987141

> <Mpro-x1402_dock>
-0.894961

> <Mpro-x0689_dock>
-0.747615

> <Mpro-x0691_dock>
-0.52564

> <Mpro-x1351_dock>
-0.421812

> <Mpro-x0978_dock>
1.212471

> <site>
active-noncovalent

$$$$
BAR-COM-4e0-61
  -OEChem-04022003013D

 41 43  0     0  0  0  0  0  0999 V2000
   14.2144   -1.9052   22.7576 C   0  0  0  0  0  0  0  0  0  0  0  0
   12.8564   -2.2229   22.7348 C   0  0  0  0  0  0  0  0  0  0  0  0
   14.6215   -0.5754   22.6506 C   0  0  0  0  0  0  0  0  0  0  0  0
   12.9636    5.8740   24.5693 C   0  0  0  0  0  0  0  0  0  0  0  0
   12.3125    0.1192   22.4980 C   0  0  0  0  0  0  0  0  0  0  0  0
   11.8108    6.2719   25.3049 C   0  0  0  0  0  0  0  0  0  0  0  0
   11.9054   -1.2107   22.6050 C   0  0  0  0  0  0  0  0  0  0  0  0
   13.6706    0.4368   22.5208 C   0  0  0  0  0  0  0  0  0  0  0  0
   12.6599    5.7781   23.2287 C   0  0  0  0  0  0  0  0  0  0  0  0
    9.1559   -0.0260   24.1230 C   0  0  0  0  0  0  0  0  0  0  0  0
   13.2797    2.9206   22.2785 C   0  0  0  0  0  0  0  0  0  0  0  0
    8.5112   -0.1850   25.4800 C   0  0  0  0  0  0  0  0  0  0  0  0
    9.2396   -1.3828   26.0775 C   0  0  0  0  0  0  0  0  0  0  0  0
    9.6187   -2.2174   24.8705 C   0  0  0  0  0  0  0  0  0  0  0  0
   10.4438   -1.5531   22.5806 C   0  0  0  0  0  0  0  0  0  0  0  0
   13.5238    5.3989   22.0608 C   0  0  0  0  0  0  0  0  0  0  0  0
   10.6898    6.4761   24.6171 N   0  0  0  0  0  0  0  0  0  0  0  0
    9.7913   -1.2306   23.8309 N   0  0  0  0  0  0  0  0  0  0  0  0
   14.0781    1.7670   22.4145 N   0  0  0  0  0  0  0  0  0  0  0  0
   14.0729    4.0701   22.2034 N   0  0  0  0  0  0  0  0  0  0  0  0
    9.0706    0.9735   23.4252 O   0  0  0  0  0  0  0  0  0  0  0  0
   12.0523    2.9474   22.2296 O   0  0  0  0  0  0  0  0  0  0  0  0
   11.0096    6.1826   23.0128 S   0  0  0  0  0  0  0  0  0  0  0  0
   14.9548   -2.6933   22.8590 H   0  0  0  0  0  0  0  0  0  0  0  0
   12.5491   -3.2617   22.8181 H   0  0  0  0  0  0  0  0  0  0  0  0
   15.6825   -0.3395   22.6693 H   0  0  0  0  0  0  0  0  0  0  0  0
   13.9385    5.6740   24.9937 H   0  0  0  0  0  0  0  0  0  0  0  0
   11.5691    0.9068   22.3961 H   0  0  0  0  0  0  0  0  0  0  0  0
   11.7685    6.4227   26.3750 H   0  0  0  0  0  0  0  0  0  0  0  0
    8.6434    0.7149   26.0855 H   0  0  0  0  0  0  0  0  0  0  0  0
    7.4456   -0.3924   25.3410 H   0  0  0  0  0  0  0  0  0  0  0  0
   10.1434   -1.0454   26.5995 H   0  0  0  0  0  0  0  0  0  0  0  0
    8.6192   -1.9315   26.7917 H   0  0  0  0  0  0  0  0  0  0  0  0
   10.5437   -2.7787   25.0297 H   0  0  0  0  0  0  0  0  0  0  0  0
    8.8137   -2.8969   24.5725 H   0  0  0  0  0  0  0  0  0  0  0  0
    9.9322   -1.0051   21.7819 H   0  0  0  0  0  0  0  0  0  0  0  0
   10.2935   -2.6210   22.3902 H   0  0  0  0  0  0  0  0  0  0  0  0
   12.9482    5.4278   21.1292 H   0  0  0  0  0  0  0  0  0  0  0  0
   14.3604    6.0965   21.9480 H   0  0  0  0  0  0  0  0  0  0  0  0
   15.0881    1.9426   22.4375 H   0  0  0  0  0  0  0  0  0  0  0  0
   15.0815    3.9660   22.2513 H   0  0  0  0  0  0  0  0  0  0  0  0
  1  2  1  0  0  0  0
  1  3  2  0  0  0  0
  2  7  2  0  0  0  0
  3  8  1  0  0  0  0
  4  6  1  0  0  0  0
  4  9  2  0  0  0  0
  5  7  1  0  0  0  0
  5  8  2  0  0  0  0
  6 17  2  0  0  0  0
  7 15  1  0  0  0  0
  8 19  1  0  0  0  0
  9 16  1  0  0  0  0
  9 23  1  0  0  0  0
 10 12  1  0  0  0  0
 10 18  1  0  0  0  0
 10 21  2  0  0  0  0
 11 19  1  0  0  0  0
 11 20  1  0  0  0  0
 11 22  2  0  0  0  0
 12 13  1  0  0  0  0
 13 14  1  0  0  0  0
 14 18  1  0  0  0  0
 15 18  1  0  0  0  0
 16 20  1  0  0  0  0
 17 23  1  0  0  0  0
  1 24  1  0  0  0  0
  2 25  1  0  0  0  0
  3 26  1  0  0  0  0
  4 27  1  0  0  0  0
  5 28  1  0  0  0  0
  6 29  1  0  0  0  0
 12 30  1  0  0  0  0
 12 31  1  0  0  0  0
 13 32  1  0  0  0  0
 13 33  1  0  0  0  0
 14 34  1  0  0  0  0
 14 35  1  0  0  0  0
 15 36  1  0  0  0  0
 15 37  1  0  0  0  0
 16 38  1  0  0  0  0
 16 39  1  0  0  0  0
 19 40  1  0  0  0  0
 20 41  1  0  0  0  0
M  END
> <Hybrid2>
-9.494002

> <fragments>
x0195

> <Mpro-x0195_dock>
-9.494002

> <Mpro-x0678_dock>
-8.181396

> <Mpro-x0749_dock>
-7.178986

> <Mpro-x0107_dock>
-6.937262

> <Mpro-x0161_dock>
-6.57804

> <Mpro-x1077_dock>
-6.535358

> <Mpro-x0104_dock>
-6.360564

> <Mpro-x0072_dock>
-5.778143

> <Mpro-x0434_dock>
-5.545359

> <Mpro-x1187_dock>
-5.238705

> <Mpro-x0946_dock>
-5.120138

> <Mpro-x1093_dock>
-5.047626

> <Mpro-x0874_dock>
-4.936311

> <Mpro-x0397_dock>
-4.708565

> <Mpro-x0387_dock>
-4.609879

> <Mpro-x0967_dock>
-4.088877

> <Mpro-x0830_dock>
-3.993687

> <Mpro-x1392_dock>
-3.842162

> <Mpro-x0831_dock>
-3.141101

> <Mpro-x0354_dock>
-3.054031

> <Mpro-x0771_dock>
-2.698718

> <Mpro-x0305_dock>
-2.668211

> <Mpro-x0426_dock>
-2.521584

> <Mpro-x0395_dock>
-2.458034

> <Mpro-x1358_dock>
-2.333567

> <Mpro-x1375_dock>
-2.289608

> <Mpro-x0981_dock>
-2.270677

> <Mpro-x0731_dock>
-2.149814

> <Mpro-x1478_dock>
-2.027002

> <Mpro-x1249_dock>
-2.001752

> <Mpro-x0708_dock>
-1.869534

> <Mpro-x0540_dock>
-1.819281

> <Mpro-x1493_dock>
-1.74768

> <Mpro-x1348_dock>
-1.736733

> <Mpro-x0820_dock>
-1.734802

> <Mpro-x0692_dock>
-1.700893

> <Mpro-x0887_dock>
-1.647289

> <Mpro-x1418_dock>
-1.5607

> <Mpro-x0755_dock>
-1.448571

> <Mpro-x0759_dock>
-1.382294

> <Mpro-x0705_dock>
-1.353624

> <Mpro-x1351_dock>
-1.210953

> <Mpro-x1334_dock>
-1.085685

> <Mpro-x1311_dock>
-1.039713

> <Mpro-x1458_dock>
-1.017537

> <Mpro-x1384_dock>
-0.950081

> <Mpro-x0769_dock>
-0.922425

> <Mpro-x1374_dock>
-0.754711

> <Mpro-x1412_dock>
-0.751417

> <Mpro-x1308_dock>
-0.631927

> <Mpro-x0786_dock>
-0.619628

> <Mpro-x1385_dock>
-0.514229

> <Mpro-x0770_dock>
-0.453806

> <Mpro-x1425_dock>
-0.394966

> <Mpro-x0734_dock>
-0.353142

> <Mpro-x1386_dock>
-0.275335

> <Mpro-x0736_dock>
-0.206479

> <Mpro-x1380_dock>
-0.19715

> <Mpro-x0689_dock>
-0.101962

> <Mpro-x0691_dock>
0.166477

> <Mpro-x1402_dock>
0.450804

> <Mpro-x0978_dock>
0.472507

> <Mpro-x0752_dock>
0.826136

> <Mpro-x1382_dock>
0.947301

> <Mpro-x0774_dock>
1.589024

> <site>
active-noncovalent

$$$$
BAR-COM-4e0-20
  -OEChem-04022003013D

 45 47  0     1  0  0  0  0  0999 V2000
   13.6589   -1.6277   23.5165 C   0  0  0  0  0  0  0  0  0  0  0  0
   12.4272   -1.9452   22.9441 C   0  0  0  0  0  0  0  0  0  0  0  0
   14.0514   -0.2941   23.6317 C   0  0  0  0  0  0  0  0  0  0  0  0
   11.9804    0.4044   22.6020 C   0  0  0  0  0  0  0  0  0  0  0  0
    6.4316    0.9165   17.6371 C   0  0  0  0  0  0  0  0  0  0  0  0
    5.9928    1.1262   18.9259 C   0  0  0  0  0  0  0  0  0  0  0  0
    7.9690   -0.5918   18.4059 C   0  0  0  0  0  0  0  0  0  0  0  0
   11.5880   -0.9292   22.4868 C   0  0  0  0  0  0  0  0  0  0  0  0
   13.2122    0.7219   23.1744 C   0  0  0  0  0  0  0  0  0  0  0  0
    7.5308   -0.3816   19.6948 C   0  0  0  0  0  0  0  0  0  0  0  0
    9.3856   -0.3730   21.3970 C   0  0  0  0  0  0  0  0  0  0  0  0
   11.3376    4.9833   23.4160 C   0  0  0  0  0  0  0  0  0  0  0  0
   12.5462    5.5496   22.6655 C   0  0  0  0  0  0  0  0  0  0  0  0
   11.7346    3.5759   23.8535 C   0  0  0  0  0  0  0  0  0  0  0  0
   13.6083    4.4535   22.6884 C   0  0  0  0  0  0  0  0  0  0  0  0
   12.7987    3.1713   22.8404 C   0  0  0  0  0  0  0  0  0  0  0  0
    7.1402   -1.3989   21.9595 C   0  0  0  0  0  0  0  0  0  0  0  0
    8.1653   -1.1268   20.8554 C   0  0  1  0  0  0  0  0  0  0  0  0
    7.4276    0.0537   17.3540 N   0  0  0  0  0  0  0  0  0  0  0  0
    6.5346    0.4809   19.9779 N   0  0  0  0  0  0  0  0  0  0  0  0
   10.3561   -1.2474   21.9142 N   0  0  0  0  0  0  0  0  0  0  0  0
   13.6033    2.0490   23.2888 N   0  0  0  0  0  0  0  0  0  0  0  0
    9.4572    0.8518   21.3525 O   0  0  0  0  0  0  0  0  0  0  0  0
   14.3122   -2.4189   23.8730 H   0  0  0  0  0  0  0  0  0  0  0  0
   12.1324   -2.9883   22.8593 H   0  0  0  0  0  0  0  0  0  0  0  0
   15.0137   -0.0580   24.0788 H   0  0  0  0  0  0  0  0  0  0  0  0
   11.3257    1.1962   22.2446 H   0  0  0  0  0  0  0  0  0  0  0  0
    5.9959    1.4356   16.7924 H   0  0  0  0  0  0  0  0  0  0  0  0
    5.1924    1.8195   19.1527 H   0  0  0  0  0  0  0  0  0  0  0  0
    8.7690   -1.2839   18.1707 H   0  0  0  0  0  0  0  0  0  0  0  0
   11.0619    5.6049   24.2739 H   0  0  0  0  0  0  0  0  0  0  0  0
   10.4709    4.9443   22.7461 H   0  0  0  0  0  0  0  0  0  0  0  0
   12.2636    5.7856   21.6331 H   0  0  0  0  0  0  0  0  0  0  0  0
   12.9152    6.4724   23.1243 H   0  0  0  0  0  0  0  0  0  0  0  0
   12.1488    3.6160   24.8690 H   0  0  0  0  0  0  0  0  0  0  0  0
   10.8808    2.8914   23.8624 H   0  0  0  0  0  0  0  0  0  0  0  0
   14.2234    4.4581   21.7833 H   0  0  0  0  0  0  0  0  0  0  0  0
   14.2702    4.6064   23.5504 H   0  0  0  0  0  0  0  0  0  0  0  0
   12.3185    2.9117   21.8776 H   0  0  0  0  0  0  0  0  0  0  0  0
    6.7408   -0.4578   22.3538 H   0  0  0  0  0  0  0  0  0  0  0  0
    6.2897   -1.9879   21.5983 H   0  0  0  0  0  0  0  0  0  0  0  0
    7.5965   -1.9475   22.7910 H   0  0  0  0  0  0  0  0  0  0  0  0
    8.5233   -2.1056   20.5067 H   0  0  0  0  0  0  0  0  0  0  0  0
   10.1270   -2.2464   21.8589 H   0  0  0  0  0  0  0  0  0  0  0  0
   14.5073    2.2421   23.7108 H   0  0  0  0  0  0  0  0  0  0  0  0
  1  2  2  0  0  0  0
  1  3  1  0  0  0  0
  2  8  1  0  0  0  0
  3  9  2  0  0  0  0
  4  8  2  0  0  0  0
  4  9  1  0  0  0  0
  5  6  2  0  0  0  0
  5 19  1  0  0  0  0
  6 20  1  0  0  0  0
  7 10  1  0  0  0  0
  7 19  2  0  0  0  0
  8 21  1  0  0  0  0
  9 22  1  0  0  0  0
 10 18  1  0  0  0  0
 10 20  2  0  0  0  0
 11 18  1  0  0  0  0
 11 21  1  0  0  0  0
 11 23  2  0  0  0  0
 12 13  1  0  0  0  0
 12 14  1  0  0  0  0
 13 15  1  0  0  0  0
 14 16  1  0  0  0  0
 15 16  1  0  0  0  0
 16 22  1  0  0  0  0
 17 18  1  0  0  0  0
  1 24  1  0  0  0  0
  2 25  1  0  0  0  0
  3 26  1  0  0  0  0
  4 27  1  0  0  0  0
  5 28  1  0  0  0  0
  6 29  1  0  0  0  0
  7 30  1  0  0  0  0
 12 31  1  0  0  0  0
 12 32  1  0  0  0  0
 13 33  1  0  0  0  0
 13 34  1  0  0  0  0
 14 35  1  0  0  0  0
 14 36  1  0  0  0  0
 15 37  1  0  0  0  0
 15 38  1  0  0  0  0
 16 39  1  0  0  0  0
 17 40  1  0  0  0  0
 17 41  1  0  0  0  0
 17 42  1  0  0  0  0
 18 43  1  0  0  0  0
 21 44  1  0  0  0  0
 22 45  1  0  0  0  0
M  END
> <Hybrid2>
-9.470178

> <fragments>
x0678

> <Mpro-x0678_dock>
-9.470178

> <Mpro-x0397_dock>
-7.744445

> <Mpro-x1093_dock>
-7.60656

> <Mpro-x0830_dock>
-6.92039

> <Mpro-x0946_dock>
-6.779657

> <Mpro-x0874_dock>
-6.608668

> <Mpro-x0107_dock>
-6.474488

> <Mpro-x0072_dock>
-6.19883

> <Mpro-x0195_dock>
-6.010082

> <Mpro-x0395_dock>
-5.708262

> <Mpro-x1077_dock>
-5.60976

> <Mpro-x0831_dock>
-5.5575

> <Mpro-x0749_dock>
-5.274219

> <Mpro-x0161_dock>
-5.102883

> <Mpro-x1392_dock>
-4.952533

> <Mpro-x0434_dock>
-4.612346

> <Mpro-x0305_dock>
-4.325968

> <Mpro-x0708_dock>
-4.282502

> <Mpro-x0387_dock>
-4.178926

> <Mpro-x0692_dock>
-4.017832

> <Mpro-x0104_dock>
-3.958369

> <Mpro-x0967_dock>
-3.478896

> <Mpro-x1418_dock>
-3.101796

> <Mpro-x1334_dock>
-2.990316

> <Mpro-x1386_dock>
-2.956201

> <Mpro-x1478_dock>
-2.901754

> <Mpro-x1385_dock>
-2.544386

> <Mpro-x0354_dock>
-2.540115

> <Mpro-x1458_dock>
-2.525983

> <Mpro-x1187_dock>
-2.433672

> <Mpro-x1311_dock>
-2.340883

> <Mpro-x0426_dock>
-2.321609

> <Mpro-x1493_dock>
-2.173331

> <Mpro-x0752_dock>
-2.089847

> <Mpro-x1412_dock>
-1.955594

> <Mpro-x0887_dock>
-1.951342

> <Mpro-x0820_dock>
-1.845061

> <Mpro-x0770_dock>
-1.835086

> <Mpro-x1249_dock>
-1.64709

> <Mpro-x1384_dock>
-1.64413

> <Mpro-x1380_dock>
-1.595269

> <Mpro-x0786_dock>
-1.464879

> <Mpro-x1348_dock>
-1.460694

> <Mpro-x0691_dock>
-1.391313

> <Mpro-x0731_dock>
-1.320242

> <Mpro-x0540_dock>
-1.277586

> <Mpro-x0734_dock>
-1.072122

> <Mpro-x1308_dock>
-1.007709

> <Mpro-x1358_dock>
-0.971952

> <Mpro-x1375_dock>
-0.869102

> <Mpro-x0759_dock>
-0.858069

> <Mpro-x0736_dock>
-0.804099

> <Mpro-x0769_dock>
-0.600982

> <Mpro-x1374_dock>
-0.586733

> <Mpro-x0689_dock>
-0.325229

> <Mpro-x1425_dock>
-0.224071

> <Mpro-x0774_dock>
-0.082565

> <Mpro-x1402_dock>
0.160066

> <Mpro-x0705_dock>
0.25305

> <Mpro-x1351_dock>
0.370656

> <Mpro-x0978_dock>
0.624377

> <Mpro-x0771_dock>
0.695039

> <Mpro-x0755_dock>
0.843272

> <Mpro-x0981_dock>
1.658599

> <Mpro-x1382_dock>
2.061615

> <site>
active-noncovalent

$$$$
BAR-COM-4e0-2
  -OEChem-04022003013D

 45 49  0     0  0  0  0  0  0999 V2000
    5.7412   -5.4434   22.0574 C   0  0  0  0  0  0  0  0  0  0  0  0
    5.1567    1.0241   19.3421 C   0  0  0  0  0  0  0  0  0  0  0  0
    6.1115    1.1826   20.3404 C   0  0  0  0  0  0  0  0  0  0  0  0
    6.1178   -4.2178   21.5082 C   0  0  0  0  0  0  0  0  0  0  0  0
    5.9314   -5.6860   23.4178 C   0  0  0  0  0  0  0  0  0  0  0  0
    6.8749   -3.4774   23.6797 C   0  0  0  0  0  0  0  0  0  0  0  0
    5.5477    0.4123   18.1620 C   0  0  0  0  0  0  0  0  0  0  0  0
    7.6998    0.1320   18.9157 C   0  0  0  0  0  0  0  0  0  0  0  0
    7.4097    0.7308   20.1310 C   0  0  0  0  0  0  0  0  0  0  0  0
    6.6847   -3.2348   22.3193 C   0  0  0  0  0  0  0  0  0  0  0  0
    6.4983   -4.7030   24.2289 C   0  0  0  0  0  0  0  0  0  0  0  0
    8.4151    0.8802   21.1394 C   0  0  0  0  0  0  0  0  0  0  0  0
    8.6948   -0.0361   22.1260 C   0  0  0  0  0  0  0  0  0  0  0  0
   10.0058    1.7489   22.2725 C   0  0  0  0  0  0  0  0  0  0  0  0
    7.6405   -4.4492   26.4085 C   0  0  0  0  0  0  0  0  0  0  0  0
   11.0483    2.5179   22.8685 C   0  0  0  0  0  0  0  0  0  0  0  0
   11.6977    2.0385   23.9470 C   0  0  0  0  0  0  0  0  0  0  0  0
   11.3626    0.7471   24.5256 C   0  0  0  0  0  0  0  0  0  0  0  0
   10.3822    0.0168   23.9696 C   0  0  0  0  0  0  0  0  0  0  0  0
    7.0819   -1.9409   21.7381 C   0  0  0  0  0  0  0  0  0  0  0  0
    6.7991   -0.0394   17.9222 N   0  0  0  0  0  0  0  0  0  0  0  0
    9.2284    1.9809   21.2345 N   0  0  0  0  0  0  0  0  0  0  0  0
    7.4430   -4.9408   27.6100 N   0  0  0  0  0  0  0  0  0  0  0  0
    6.3385   -5.7552   27.5010 N   0  0  0  0  0  0  0  0  0  0  0  0
    5.8704   -5.7604   26.2588 N   0  0  0  0  0  0  0  0  0  0  0  0
    6.6860   -4.9434   25.5778 N   0  0  0  0  0  0  0  0  0  0  0  0
    9.7152    0.5182   22.8554 N   0  0  0  0  0  0  0  0  0  0  0  0
    8.5869   -3.5940   25.9621 N   0  0  0  0  0  0  0  0  0  0  0  0
    8.1376   -1.2570   22.4070 N   0  0  0  0  0  0  0  0  0  0  0  0
    6.5014   -1.4838   20.7558 O   0  0  0  0  0  0  0  0  0  0  0  0
    5.2993   -6.2085   21.4259 H   0  0  0  0  0  0  0  0  0  0  0  0
    4.1389    1.3693   19.4833 H   0  0  0  0  0  0  0  0  0  0  0  0
    5.8289    1.6596   21.2755 H   0  0  0  0  0  0  0  0  0  0  0  0
    5.9659   -4.0407   20.4466 H   0  0  0  0  0  0  0  0  0  0  0  0
    5.6338   -6.6458   23.8330 H   0  0  0  0  0  0  0  0  0  0  0  0
    7.3191   -2.7093   24.3101 H   0  0  0  0  0  0  0  0  0  0  0  0
    4.8402    0.2657   17.3527 H   0  0  0  0  0  0  0  0  0  0  0  0
    8.6944   -0.2417   18.6894 H   0  0  0  0  0  0  0  0  0  0  0  0
   11.3064    3.4827   22.4462 H   0  0  0  0  0  0  0  0  0  0  0  0
   12.4931    2.6091   24.4144 H   0  0  0  0  0  0  0  0  0  0  0  0
   11.9110    0.4035   25.3942 H   0  0  0  0  0  0  0  0  0  0  0  0
   10.0879   -0.9509   24.3568 H   0  0  0  0  0  0  0  0  0  0  0  0
    9.2845   -3.1730   26.5921 H   0  0  0  0  0  0  0  0  0  0  0  0
    8.5982   -3.2495   24.9914 H   0  0  0  0  0  0  0  0  0  0  0  0
    8.5423   -1.7532   23.2227 H   0  0  0  0  0  0  0  0  0  0  0  0
  1  4  1  0  0  0  0
  1  5  2  0  0  0  0
  2  3  2  0  0  0  0
  2  7  1  0  0  0  0
  3  9  1  0  0  0  0
  4 10  2  0  0  0  0
  5 11  1  0  0  0  0
  6 10  1  0  0  0  0
  6 11  2  0  0  0  0
  7 21  2  0  0  0  0
  8  9  2  0  0  0  0
  8 21  1  0  0  0  0
  9 12  1  0  0  0  0
 10 20  1  0  0  0  0
 11 26  1  0  0  0  0
 12 13  2  0  0  0  0
 12 22  1  0  0  0  0
 13 27  1  0  0  0  0
 13 29  1  0  0  0  0
 14 16  1  0  0  0  0
 14 22  2  0  0  0  0
 14 27  1  0  0  0  0
 15 23  2  0  0  0  0
 15 26  1  0  0  0  0
 15 28  1  0  0  0  0
 16 17  2  0  0  0  0
 17 18  1  0  0  0  0
 18 19  2  0  0  0  0
 19 27  1  0  0  0  0
 20 29  1  0  0  0  0
 20 30  2  0  0  0  0
 23 24  1  0  0  0  0
 24 25  2  0  0  0  0
 25 26  1  0  0  0  0
  1 31  1  0  0  0  0
  2 32  1  0  0  0  0
  3 33  1  0  0  0  0
  4 34  1  0  0  0  0
  5 35  1  0  0  0  0
  6 36  1  0  0  0  0
  7 37  1  0  0  0  0
  8 38  1  0  0  0  0
 16 39  1  0  0  0  0
 17 40  1  0  0  0  0
 18 41  1  0  0  0  0
 19 42  1  0  0  0  0
 28 43  1  0  0  0  0
 28 44  1  0  0  0  0
 29 45  1  0  0  0  0
M  END
> <Hybrid2>
-9.456435

> <fragments>
x0107

> <Mpro-x0107_dock>
-9.456435

> <Mpro-x0397_dock>
-8.667477

> <Mpro-x1077_dock>
-7.473299

> <Mpro-x0434_dock>
-7.46546

> <Mpro-x0161_dock>
-7.411664

> <Mpro-x0749_dock>
-7.379937

> <Mpro-x0678_dock>
-6.993381

> <Mpro-x0195_dock>
-6.853802

> <Mpro-x0072_dock>
-6.829168

> <Mpro-x1418_dock>
-6.279463

> <Mpro-x0387_dock>
-5.999368

> <Mpro-x0874_dock>
-5.614514

> <Mpro-x1093_dock>
-5.220957

> <Mpro-x0967_dock>
-5.148206

> <Mpro-x0104_dock>
-4.079782

> <Mpro-x0705_dock>
-3.734192

> <Mpro-x0830_dock>
-3.325357

> <Mpro-x1392_dock>
-3.312028

> <Mpro-x0354_dock>
-3.25625

> <Mpro-x0759_dock>
-2.836792

> <Mpro-x0692_dock>
-2.678883

> <Mpro-x0946_dock>
-2.67535

> <Mpro-x0395_dock>
-2.660471

> <Mpro-x0831_dock>
-2.562737

> <Mpro-x1334_dock>
-2.502099

> <Mpro-x0770_dock>
-2.467661

> <Mpro-x0887_dock>
-2.206665

> <Mpro-x1385_dock>
-2.043781

> <Mpro-x1187_dock>
-1.817821

> <Mpro-x1386_dock>
-1.702459

> <Mpro-x1358_dock>
-1.627399

> <Mpro-x1311_dock>
-1.539973

> <Mpro-x0736_dock>
-1.41918

> <Mpro-x1458_dock>
-1.07417

> <Mpro-x1249_dock>
-0.753304

> <Mpro-x0305_dock>
-0.730233

> <Mpro-x1380_dock>
-0.422309

> <Mpro-x0540_dock>
-0.376503

> <Mpro-x0426_dock>
-0.254858

> <Mpro-x0689_dock>
-0.106056

> <Mpro-x1348_dock>
0.030344

> <Mpro-x0708_dock>
0.233633

> <Mpro-x1425_dock>
0.235883

> <Mpro-x1351_dock>
0.28155

> <Mpro-x1412_dock>
0.577033

> <Mpro-x0771_dock>
0.903839

> <Mpro-x1384_dock>
1.118716

> <Mpro-x0752_dock>
1.130451

> <Mpro-x0786_dock>
1.189056

> <Mpro-x1493_dock>
1.197527

> <Mpro-x0774_dock>
1.695271

> <Mpro-x1375_dock>
1.766353

> <Mpro-x0734_dock>
1.787009

> <Mpro-x0981_dock>
1.981767

> <Mpro-x1382_dock>
2.187652

> <Mpro-x0820_dock>
2.229758

> <Mpro-x0731_dock>
2.607563

> <Mpro-x1374_dock>
2.796981

> <Mpro-x0769_dock>
2.94839

> <Mpro-x1478_dock>
3.527276

> <Mpro-x0755_dock>
3.545743

> <Mpro-x0691_dock>
3.573364

> <Mpro-x1308_dock>
3.583536

> <Mpro-x1402_dock>
3.766379

> <Mpro-x0978_dock>
5.401047

> <site>
active-noncovalent

$$$$
WAR-XCH-b72-4
  -OEChem-04022003013D

 29 30  0     0  0  0  0  0  0999 V2000
   10.7891    1.0601   21.2145 C   0  0  0  0  0  0  0  0  0  0  0  0
   10.2042   -1.2689   21.4800 C   0  0  0  0  0  0  0  0  0  0  0  0
   11.9202    0.8665   22.0073 C   0  0  0  0  0  0  0  0  0  0  0  0
   11.3354   -1.4626   22.2728 C   0  0  0  0  0  0  0  0  0  0  0  0
    6.4353    0.7427   19.8322 C   0  0  0  0  0  0  0  0  0  0  0  0
    6.6166    0.5418   18.4733 C   0  0  0  0  0  0  0  0  0  0  0  0
    8.8351    0.0163   18.7560 C   0  0  0  0  0  0  0  0  0  0  0  0
    9.9310   -0.0076   20.9508 C   0  0  0  0  0  0  0  0  0  0  0  0
    8.7579    0.1927   20.1281 C   0  0  0  0  0  0  0  0  0  0  0  0
    7.5314    0.5627   20.6686 C   0  0  0  0  0  0  0  0  0  0  0  0
   12.1934   -0.3949   22.5365 C   0  0  0  0  0  0  0  0  0  0  0  0
    7.3557    0.7760   22.1372 C   0  0  0  0  0  0  0  0  0  0  0  0
    7.7925    0.1820   17.9116 N   0  0  0  0  0  0  0  0  0  0  0  0
   12.9826   -0.3015   25.0808 N   0  0  0  0  0  0  0  0  0  0  0  0
   13.9800   -2.0443   23.4642 O   0  0  0  0  0  0  0  0  0  0  0  0
   14.5916    0.3843   23.1893 O   0  0  0  0  0  0  0  0  0  0  0  0
   13.6104   -0.6373   23.5275 S   0  0  0  0  0  0  0  0  0  0  0  0
   10.5895    2.0493   20.8095 H   0  0  0  0  0  0  0  0  0  0  0  0
    9.5451   -2.1115   21.2840 H   0  0  0  0  0  0  0  0  0  0  0  0
   12.5821    1.7049   22.2069 H   0  0  0  0  0  0  0  0  0  0  0  0
   11.5390   -2.4489   22.6806 H   0  0  0  0  0  0  0  0  0  0  0  0
    5.4649    1.0321   20.2216 H   0  0  0  0  0  0  0  0  0  0  0  0
    5.7936    0.6705   17.7777 H   0  0  0  0  0  0  0  0  0  0  0  0
    9.7627   -0.2738   18.2709 H   0  0  0  0  0  0  0  0  0  0  0  0
    7.0615   -0.1608   22.6236 H   0  0  0  0  0  0  0  0  0  0  0  0
    8.2840    1.1339   22.5986 H   0  0  0  0  0  0  0  0  0  0  0  0
    6.5866    1.5317   22.3378 H   0  0  0  0  0  0  0  0  0  0  0  0
   12.8544   -1.0881   25.7291 H   0  0  0  0  0  0  0  0  0  0  0  0
   13.2713    0.5714   25.5390 H   0  0  0  0  0  0  0  0  0  0  0  0
  1  3  2  0  0  0  0
  1  8  1  0  0  0  0
  2  4  1  0  0  0  0
  2  8  2  0  0  0  0
  3 11  1  0  0  0  0
  4 11  2  0  0  0  0
  5  6  2  0  0  0  0
  5 10  1  0  0  0  0
  6 13  1  0  0  0  0
  7  9  1  0  0  0  0
  7 13  2  0  0  0  0
  8  9  1  0  0  0  0
  9 10  2  0  0  0  0
 10 12  1  0  0  0  0
 11 17  1  0  0  0  0
 14 17  1  0  0  0  0
 15 17  2  0  0  0  0
 16 17  2  0  0  0  0
  1 18  1  0  0  0  0
  2 19  1  0  0  0  0
  3 20  1  0  0  0  0
  4 21  1  0  0  0  0
  5 22  1  0  0  0  0
  6 23  1  0  0  0  0
  7 24  1  0  0  0  0
 12 25  1  0  0  0  0
 12 26  1  0  0  0  0
 12 27  1  0  0  0  0
 14 28  1  0  0  0  0
 14 29  1  0  0  0  0
M  END
> <Hybrid2>
-9.448851

> <fragments>
x0678

> <Mpro-x0678_dock>
-9.448851

> <Mpro-x0749_dock>
-8.120616

> <Mpro-x0107_dock>
-7.614154

> <Mpro-x0759_dock>
-7.249028

> <Mpro-x0161_dock>
-6.978937

> <Mpro-x0072_dock>
-6.754902

> <Mpro-x1392_dock>
-6.598107

> <Mpro-x1418_dock>
-6.557085

> <Mpro-x0708_dock>
-6.478773

> <Mpro-x1311_dock>
-6.456579

> <Mpro-x0831_dock>
-6.233466

> <Mpro-x1386_dock>
-6.188358

> <Mpro-x0830_dock>
-6.180917

> <Mpro-x0874_dock>
-5.98286

> <Mpro-x0770_dock>
-5.969638

> <Mpro-x0395_dock>
-5.918765

> <Mpro-x1385_dock>
-5.904727

> <Mpro-x1077_dock>
-5.879412

> <Mpro-x0692_dock>
-5.803606

> <Mpro-x0195_dock>
-5.712417

> <Mpro-x1093_dock>
-5.626642

> <Mpro-x1334_dock>
-5.482871

> <Mpro-x0774_dock>
-5.378281

> <Mpro-x1374_dock>
-5.245401

> <Mpro-x1375_dock>
-5.18022

> <Mpro-x0946_dock>
-5.178098

> <Mpro-x0387_dock>
-5.172122

> <Mpro-x0434_dock>
-5.095268

> <Mpro-x0397_dock>
-5.038868

> <Mpro-x1412_dock>
-5.033663

> <Mpro-x1382_dock>
-4.990808

> <Mpro-x0305_dock>
-4.968926

> <Mpro-x0104_dock>
-4.936868

> <Mpro-x0967_dock>
-4.72936

> <Mpro-x1380_dock>
-3.91953

> <Mpro-x0734_dock>
-3.838848

> <Mpro-x1458_dock>
-3.83378

> <Mpro-x1348_dock>
-3.777229

> <Mpro-x0540_dock>
-3.518879

> <Mpro-x1187_dock>
-3.410159

> <Mpro-x0736_dock>
-3.364504

> <Mpro-x1358_dock>
-3.289685

> <Mpro-x0354_dock>
-3.289617

> <Mpro-x1478_dock>
-3.128695

> <Mpro-x0820_dock>
-3.057925

> <Mpro-x1402_dock>
-2.9951

> <Mpro-x1425_dock>
-2.975175

> <Mpro-x1351_dock>
-2.967871

> <Mpro-x1249_dock>
-2.905533

> <Mpro-x0771_dock>
-2.867078

> <Mpro-x0786_dock>
-2.620421

> <Mpro-x0426_dock>
-2.550664

> <Mpro-x1493_dock>
-2.54833

> <Mpro-x1384_dock>
-2.521174

> <Mpro-x1308_dock>
-2.477382

> <Mpro-x0705_dock>
-2.183227

> <Mpro-x0752_dock>
-1.67758

> <Mpro-x0755_dock>
-1.18314

> <Mpro-x0887_dock>
-1.116406

> <Mpro-x0769_dock>
-1.070152

> <Mpro-x0689_dock>
-0.911214

> <Mpro-x0691_dock>
-0.874634

> <Mpro-x0978_dock>
-0.711666

> <Mpro-x0981_dock>
0.271017

> <Mpro-x0731_dock>
1.01328

> <site>
active-noncovalent

$$$$
BAR-COM-4e0-26
  -OEChem-04022003013D

 47 49  0     1  0  0  0  0  0999 V2000
    9.9046    4.2003   23.8093 C   0  0  0  0  0  0  0  0  0  0  0  0
   11.0335    4.0682   24.6179 C   0  0  0  0  0  0  0  0  0  0  0  0
    9.6235    3.2362   22.8412 C   0  0  0  0  0  0  0  0  0  0  0  0
   11.8813    2.9722   24.4582 C   0  0  0  0  0  0  0  0  0  0  0  0
    6.4708    1.0891   17.5915 C   0  0  0  0  0  0  0  0  0  0  0  0
    5.9615    1.2062   18.8661 C   0  0  0  0  0  0  0  0  0  0  0  0
    8.2628   -0.0693   18.4138 C   0  0  0  0  0  0  0  0  0  0  0  0
   10.4713    2.1402   22.6815 C   0  0  0  0  0  0  0  0  0  0  0  0
   11.6003    2.0081   23.4901 C   0  0  0  0  0  0  0  0  0  0  0  0
    7.7540    0.0483   19.6885 C   0  0  0  0  0  0  0  0  0  0  0  0
   10.1595    1.1453   21.6648 C   0  0  0  0  0  0  0  0  0  0  0  0
   14.2945   -2.1268   23.4133 C   0  0  0  0  0  0  0  0  0  0  0  0
   13.1329   -1.8526   22.4623 C   0  0  0  0  0  0  0  0  0  0  0  0
   14.5799   -0.9291   24.3148 C   0  0  0  0  0  0  0  0  0  0  0  0
   11.8795   -1.4102   23.2178 C   0  0  0  0  0  0  0  0  0  0  0  0
   13.3287   -0.4826   25.0721 C   0  0  0  0  0  0  0  0  0  0  0  0
   12.1511   -0.2162   24.1345 C   0  0  0  0  0  0  0  0  0  0  0  0
    7.6672   -1.6015   21.6024 C   0  0  0  0  0  0  0  0  0  0  0  0
    8.4924   -0.5467   20.8681 C   0  0  2  0  0  0  0  0  0  0  0  0
    7.6305    0.4492   17.3425 N   0  0  0  0  0  0  0  0  0  0  0  0
    6.5940    0.6879   19.9375 N   0  0  0  0  0  0  0  0  0  0  0  0
    8.9340    0.4812   21.7831 N   0  0  0  0  0  0  0  0  0  0  0  0
   10.9698    0.8998   20.7550 O   0  0  0  0  0  0  0  0  0  0  0  0
   12.4437    0.9382   23.3499 O   0  0  0  0  0  0  0  0  0  0  0  0
    9.2445    5.0540   23.9339 H   0  0  0  0  0  0  0  0  0  0  0  0
   11.2520    4.8195   25.3710 H   0  0  0  0  0  0  0  0  0  0  0  0
    8.7406    3.3492   22.2171 H   0  0  0  0  0  0  0  0  0  0  0  0
   12.7591    2.8753   25.0915 H   0  0  0  0  0  0  0  0  0  0  0  0
    5.9620    1.5060   16.7312 H   0  0  0  0  0  0  0  0  0  0  0  0
    5.0295    1.7204   19.0654 H   0  0  0  0  0  0  0  0  0  0  0  0
    9.1944   -0.5824   18.2060 H   0  0  0  0  0  0  0  0  0  0  0  0
   14.0691   -3.0059   24.0273 H   0  0  0  0  0  0  0  0  0  0  0  0
   15.1927   -2.3663   22.8308 H   0  0  0  0  0  0  0  0  0  0  0  0
   13.4193   -1.0797   21.7406 H   0  0  0  0  0  0  0  0  0  0  0  0
   12.9086   -2.7599   21.8885 H   0  0  0  0  0  0  0  0  0  0  0  0
   15.3645   -1.1921   25.0348 H   0  0  0  0  0  0  0  0  0  0  0  0
   14.9619   -0.0964   23.7141 H   0  0  0  0  0  0  0  0  0  0  0  0
   11.0859   -1.1535   22.5010 H   0  0  0  0  0  0  0  0  0  0  0  0
   11.4809   -2.2471   23.8071 H   0  0  0  0  0  0  0  0  0  0  0  0
   13.0496   -1.2437   25.8138 H   0  0  0  0  0  0  0  0  0  0  0  0
   13.5503    0.4243   25.6539 H   0  0  0  0  0  0  0  0  0  0  0  0
   11.2535    0.0037   24.7268 H   0  0  0  0  0  0  0  0  0  0  0  0
    6.7330   -1.1758   21.9846 H   0  0  0  0  0  0  0  0  0  0  0  0
    7.4131   -2.4276   20.9287 H   0  0  0  0  0  0  0  0  0  0  0  0
    8.2132   -2.0330   22.4488 H   0  0  0  0  0  0  0  0  0  0  0  0
    9.4098   -1.0306   20.5110 H   0  0  0  0  0  0  0  0  0  0  0  0
    8.3381    0.6758   22.5811 H   0  0  0  0  0  0  0  0  0  0  0  0
  1  2  1  0  0  0  0
  1  3  2  0  0  0  0
  2  4  2  0  0  0  0
  3  8  1  0  0  0  0
  4  9  1  0  0  0  0
  5  6  2  0  0  0  0
  5 20  1  0  0  0  0
  6 21  1  0  0  0  0
  7 10  1  0  0  0  0
  7 20  2  0  0  0  0
  8  9  2  0  0  0  0
  8 11  1  0  0  0  0
  9 24  1  0  0  0  0
 10 19  1  0  0  0  0
 10 21  2  0  0  0  0
 11 22  1  0  0  0  0
 11 23  2  0  0  0  0
 12 13  1  0  0  0  0
 12 14  1  0  0  0  0
 13 15  1  0  0  0  0
 14 16  1  0  0  0  0
 15 17  1  0  0  0  0
 16 17  1  0  0  0  0
 17 24  1  0  0  0  0
 18 19  1  0  0  0  0
 19 22  1  0  0  0  0
  1 25  1  0  0  0  0
  2 26  1  0  0  0  0
  3 27  1  0  0  0  0
  4 28  1  0  0  0  0
  5 29  1  0  0  0  0
  6 30  1  0  0  0  0
  7 31  1  0  0  0  0
 12 32  1  0  0  0  0
 12 33  1  0  0  0  0
 13 34  1  0  0  0  0
 13 35  1  0  0  0  0
 14 36  1  0  0  0  0
 14 37  1  0  0  0  0
 15 38  1  0  0  0  0
 15 39  1  0  0  0  0
 16 40  1  0  0  0  0
 16 41  1  0  0  0  0
 17 42  1  0  0  0  0
 18 43  1  0  0  0  0
 18 44  1  0  0  0  0
 18 45  1  0  0  0  0
 19 46  1  0  0  0  0
 22 47  1  0  0  0  0
M  END
> <Hybrid2>
-9.447334

> <fragments>
x0678

> <Mpro-x0678_dock>
-9.447334

> <Mpro-x0107_dock>
-7.963238

> <Mpro-x0072_dock>
-7.339118

> <Mpro-x0830_dock>
-7.283922

> <Mpro-x0874_dock>
-7.041025

> <Mpro-x0195_dock>
-7.029889

> <Mpro-x0387_dock>
-6.615399

> <Mpro-x0305_dock>
-6.3759

> <Mpro-x1418_dock>
-6.123106

> <Mpro-x1093_dock>
-6.028455

> <Mpro-x0434_dock>
-5.890043

> <Mpro-x0831_dock>
-5.845543

> <Mpro-x1386_dock>
-5.601021

> <Mpro-x1392_dock>
-5.510915

> <Mpro-x0946_dock>
-5.507977

> <Mpro-x0397_dock>
-5.49741

> <Mpro-x0104_dock>
-5.372095

> <Mpro-x0967_dock>
-5.260186

> <Mpro-x0770_dock>
-5.039363

> <Mpro-x1412_dock>
-4.651015

> <Mpro-x0395_dock>
-4.61025

> <Mpro-x1077_dock>
-4.512187

> <Mpro-x0759_dock>
-4.450017

> <Mpro-x1249_dock>
-4.134928

> <Mpro-x0692_dock>
-4.063331

> <Mpro-x0749_dock>
-4.056892

> <Mpro-x0161_dock>
-3.995782

> <Mpro-x0354_dock>
-3.677012

> <Mpro-x1187_dock>
-3.422303

> <Mpro-x0736_dock>
-3.411782

> <Mpro-x0774_dock>
-3.395688

> <Mpro-x1311_dock>
-3.317438

> <Mpro-x1385_dock>
-3.155434

> <Mpro-x1348_dock>
-2.637271

> <Mpro-x1458_dock>
-2.502306

> <Mpro-x1380_dock>
-2.291406

> <Mpro-x1334_dock>
-2.229335

> <Mpro-x1425_dock>
-2.165486

> <Mpro-x1478_dock>
-2.043923

> <Mpro-x1375_dock>
-1.992288

> <Mpro-x0426_dock>
-1.970639

> <Mpro-x0708_dock>
-1.862592

> <Mpro-x0755_dock>
-1.799076

> <Mpro-x0731_dock>
-1.769794

> <Mpro-x1374_dock>
-1.731661

> <Mpro-x0820_dock>
-1.67243

> <Mpro-x0689_dock>
-1.554938

> <Mpro-x0769_dock>
-1.482175

> <Mpro-x0540_dock>
-1.461452

> <Mpro-x1384_dock>
-1.46025

> <Mpro-x0734_dock>
-1.42327

> <Mpro-x1308_dock>
-1.341815

> <Mpro-x1402_dock>
-1.216036

> <Mpro-x1493_dock>
-1.159275

> <Mpro-x0771_dock>
-0.577164

> <Mpro-x0691_dock>
-0.498301

> <Mpro-x1358_dock>
-0.443866

> <Mpro-x1382_dock>
-0.257526

> <Mpro-x0705_dock>
0.191788

> <Mpro-x1351_dock>
0.483113

> <Mpro-x0786_dock>
0.71567

> <Mpro-x0887_dock>
0.863663

> <Mpro-x0752_dock>
1.574794

> <Mpro-x0978_dock>
1.789111

> <Mpro-x0981_dock>
1.952261

> <site>
active-noncovalent

$$$$
WAR-XCH-b68-27
  -OEChem-04022003013D

 47 49  0     0  0  0  0  0  0999 V2000
   13.2810   -1.4108   23.7214 C   0  0  0  0  0  0  0  0  0  0  0  0
   13.1821   -0.2606   24.5041 C   0  0  0  0  0  0  0  0  0  0  0  0
    5.8799   -4.5477   26.0154 C   0  0  0  0  0  0  0  0  0  0  0  0
    8.0726   -5.5345   26.2503 C   0  0  0  0  0  0  0  0  0  0  0  0
   12.2139   -1.7960   22.9098 C   0  0  0  0  0  0  0  0  0  0  0  0
    5.4249   -5.3010   27.0975 C   0  0  0  0  0  0  0  0  0  0  0  0
    7.6176   -6.2879   27.3325 C   0  0  0  0  0  0  0  0  0  0  0  0
   10.9490    0.1193   23.6639 C   0  0  0  0  0  0  0  0  0  0  0  0
   12.0161    0.5045   24.4754 C   0  0  0  0  0  0  0  0  0  0  0  0
    7.2037   -4.6645   25.5917 C   0  0  0  0  0  0  0  0  0  0  0  0
   11.0479   -1.0310   22.8811 C   0  0  0  0  0  0  0  0  0  0  0  0
    6.2937   -6.1711   27.7561 C   0  0  0  0  0  0  0  0  0  0  0  0
    8.1719   -1.6687   23.6904 C   0  0  0  0  0  0  0  0  0  0  0  0
    9.4847   -3.6593   22.9082 C   0  0  0  0  0  0  0  0  0  0  0  0
    7.0837   -2.6052   24.2166 C   0  0  0  0  0  0  0  0  0  0  0  0
    8.3747   -4.5721   23.4230 C   0  0  0  0  0  0  0  0  0  0  0  0
    8.9321   -2.2873   22.5163 C   0  0  0  0  0  0  0  0  0  0  0  0
   11.9106    1.7338   25.3129 C   0  0  0  0  0  0  0  0  0  0  0  0
    7.6534   -3.9211   24.5235 N   0  0  0  0  0  0  0  0  0  0  0  0
    6.0617   -6.0568   30.4090 N   0  0  0  0  0  0  0  0  0  0  0  0
    9.9909   -1.4125   22.0767 N   0  0  0  0  0  0  0  0  0  0  0  0
    4.2817   -7.2671   28.9905 O   0  0  0  0  0  0  0  0  0  0  0  0
    6.5684   -8.2951   29.2385 O   0  0  0  0  0  0  0  0  0  0  0  0
    5.7249   -7.1149   29.1104 S   0  0  0  0  0  0  0  0  0  0  0  0
   14.1891   -2.0065   23.7437 H   0  0  0  0  0  0  0  0  0  0  0  0
   14.0187    0.0321   25.1336 H   0  0  0  0  0  0  0  0  0  0  0  0
    5.1941   -3.8730   25.5093 H   0  0  0  0  0  0  0  0  0  0  0  0
    9.1065   -5.6324   25.9290 H   0  0  0  0  0  0  0  0  0  0  0  0
   12.3017   -2.6941   22.3036 H   0  0  0  0  0  0  0  0  0  0  0  0
    4.3915   -5.2021   27.4188 H   0  0  0  0  0  0  0  0  0  0  0  0
    8.3033   -6.9627   27.8380 H   0  0  0  0  0  0  0  0  0  0  0  0
   10.0406    0.7171   23.6425 H   0  0  0  0  0  0  0  0  0  0  0  0
    7.7053   -0.7349   23.3598 H   0  0  0  0  0  0  0  0  0  0  0  0
    8.8593   -1.4053   24.4991 H   0  0  0  0  0  0  0  0  0  0  0  0
   10.2654   -3.5576   23.6624 H   0  0  0  0  0  0  0  0  0  0  0  0
    9.9451   -4.1191   22.0314 H   0  0  0  0  0  0  0  0  0  0  0  0
    6.6135   -2.1792   25.1116 H   0  0  0  0  0  0  0  0  0  0  0  0
    6.3052   -2.6981   23.4492 H   0  0  0  0  0  0  0  0  0  0  0  0
    7.6868   -4.7873   22.5950 H   0  0  0  0  0  0  0  0  0  0  0  0
    8.7908   -5.5303   23.7608 H   0  0  0  0  0  0  0  0  0  0  0  0
    8.2313   -2.4172   21.6720 H   0  0  0  0  0  0  0  0  0  0  0  0
   12.2693    2.6078   24.7556 H   0  0  0  0  0  0  0  0  0  0  0  0
   10.8730    1.9190   25.6200 H   0  0  0  0  0  0  0  0  0  0  0  0
   12.5022    1.6411   26.2331 H   0  0  0  0  0  0  0  0  0  0  0  0
    5.2692   -5.5995   30.8760 H   0  0  0  0  0  0  0  0  0  0  0  0
    6.8320   -6.3018   31.0430 H   0  0  0  0  0  0  0  0  0  0  0  0
    9.9511   -1.0652   21.1284 H   0  0  0  0  0  0  0  0  0  0  0  0
  1  2  2  0  0  0  0
  1  5  1  0  0  0  0
  2  9  1  0  0  0  0
  3  6  2  0  0  0  0
  3 10  1  0  0  0  0
  4  7  1  0  0  0  0
  4 10  2  0  0  0  0
  5 11  2  0  0  0  0
  6 12  1  0  0  0  0
  7 12  2  0  0  0  0
  8  9  2  0  0  0  0
  8 11  1  0  0  0  0
  9 18  1  0  0  0  0
 10 19  1  0  0  0  0
 11 21  1  0  0  0  0
 12 24  1  0  0  0  0
 13 15  1  0  0  0  0
 13 17  1  0  0  0  0
 14 16  1  0  0  0  0
 14 17  1  0  0  0  0
 15 19  1  0  0  0  0
 16 19  1  0  0  0  0
 17 21  1  0  0  0  0
 20 24  1  0  0  0  0
 22 24  2  0  0  0  0
 23 24  2  0  0  0  0
  1 25  1  0  0  0  0
  2 26  1  0  0  0  0
  3 27  1  0  0  0  0
  4 28  1  0  0  0  0
  5 29  1  0  0  0  0
  6 30  1  0  0  0  0
  7 31  1  0  0  0  0
  8 32  1  0  0  0  0
 13 33  1  0  0  0  0
 13 34  1  0  0  0  0
 14 35  1  0  0  0  0
 14 36  1  0  0  0  0
 15 37  1  0  0  0  0
 15 38  1  0  0  0  0
 16 39  1  0  0  0  0
 16 40  1  0  0  0  0
 17 41  1  0  0  0  0
 18 42  1  0  0  0  0
 18 43  1  0  0  0  0
 18 44  1  0  0  0  0
 20 45  1  0  0  0  0
 20 46  1  0  0  0  0
 21 47  1  0  0  0  0
M  END
> <Hybrid2>
-9.421846

> <fragments>
x0072

> <Mpro-x0072_dock>
-9.421846

> <Mpro-x0161_dock>
-8.025053

> <Mpro-x0104_dock>
-7.87645

> <Mpro-x0874_dock>
-6.913514

> <Mpro-x1093_dock>
-6.832717

> <Mpro-x0395_dock>
-6.270374

> <Mpro-x0946_dock>
-6.121657

> <Mpro-x0195_dock>
-6.066746

> <Mpro-x1077_dock>
-5.922265

> <Mpro-x0305_dock>
-5.729566

> <Mpro-x1392_dock>
-5.575535

> <Mpro-x0387_dock>
-5.379996

> <Mpro-x0397_dock>
-5.227695

> <Mpro-x1334_dock>
-4.588279

> <Mpro-x0967_dock>
-4.548663

> <Mpro-x1311_dock>
-4.49649

> <Mpro-x0749_dock>
-4.323514

> <Mpro-x1493_dock>
-3.727763

> <Mpro-x0354_dock>
-3.629608

> <Mpro-x0107_dock>
-3.578708

> <Mpro-x0830_dock>
-3.452201

> <Mpro-x1249_dock>
-3.343215

> <Mpro-x0678_dock>
-3.197226

> <Mpro-x1187_dock>
-3.025729

> <Mpro-x1385_dock>
-2.850433

> <Mpro-x1374_dock>
-2.584763

> <Mpro-x0434_dock>
-2.374326

> <Mpro-x0692_dock>
-1.982175

> <Mpro-x1380_dock>
-1.948411

> <Mpro-x1375_dock>
-1.864996

> <Mpro-x0978_dock>
-1.79214

> <Mpro-x1358_dock>
-1.744392

> <Mpro-x0831_dock>
-1.086547

> <Mpro-x1348_dock>
-0.926759

> <Mpro-x1458_dock>
-0.569655

> <Mpro-x0708_dock>
-0.412437

> <Mpro-x1384_dock>
-0.333131

> <Mpro-x0887_dock>
-0.324016

> <Mpro-x1478_dock>
-0.32021

> <Mpro-x0540_dock>
-0.302807

> <Mpro-x1412_dock>
-0.215866

> <Mpro-x0771_dock>
-0.166964

> <Mpro-x1425_dock>
0.230151

> <Mpro-x1351_dock>
0.442576

> <Mpro-x0736_dock>
0.592208

> <Mpro-x0820_dock>
0.694546

> <Mpro-x0691_dock>
0.842714

> <Mpro-x0689_dock>
1.085844

> <Mpro-x0769_dock>
1.134236

> <Mpro-x0752_dock>
1.175793

> <Mpro-x1308_dock>
1.270543

> <Mpro-x0734_dock>
1.350915

> <Mpro-x1402_dock>
1.368897

> <Mpro-x0981_dock>
1.373483

> <Mpro-x0770_dock>
1.383258

> <Mpro-x0755_dock>
1.387857

> <Mpro-x1386_dock>
1.408975

> <Mpro-x0731_dock>
1.411884

> <Mpro-x0759_dock>
1.477777

> <Mpro-x1418_dock>
1.686722

> <Mpro-x0705_dock>
1.922072

> <Mpro-x0426_dock>
1.949127

> <Mpro-x0774_dock>
2.02842

> <Mpro-x0786_dock>
2.052278

> <Mpro-x1382_dock>
3.046688

> <site>
active-noncovalent

$$$$
KIM-UNI-2ee-1
  -OEChem-04022003013D

 36 37  0     0  0  0  0  0  0999 V2000
   12.6052   -3.2355   25.7140 C   0  0  0  0  0  0  0  0  0  0  0  0
   11.0470   -1.5694   24.9186 C   0  0  0  0  0  0  0  0  0  0  0  0
   13.3474   -0.9663   25.3444 C   0  0  0  0  0  0  0  0  0  0  0  0
   11.3190   -2.8812   25.3070 C   0  0  0  0  0  0  0  0  0  0  0  0
   13.6194   -2.2781   25.7328 C   0  0  0  0  0  0  0  0  0  0  0  0
   12.0612   -0.6119   24.9373 C   0  0  0  0  0  0  0  0  0  0  0  0
    5.8710   -4.3260   21.8922 C   0  0  0  0  0  0  0  0  0  0  0  0
    6.5824   -3.6659   24.1680 C   0  0  0  0  0  0  0  0  0  0  0  0
    8.0356   -3.0474   22.2762 C   0  0  0  0  0  0  0  0  0  0  0  0
    7.7766   -4.2206   24.9307 C   0  0  0  0  0  0  0  0  0  0  0  0
    9.2529   -3.5914   23.0117 C   0  0  0  0  0  0  0  0  0  0  0  0
    5.0680   -5.4532   22.4909 C   0  0  0  0  0  0  0  0  0  0  0  0
   10.2286   -3.9116   25.2879 C   0  0  0  0  0  0  0  0  0  0  0  0
    6.8105   -3.7184   22.7239 N   0  0  0  0  0  0  0  0  0  0  0  0
    9.0229   -3.4786   24.5023 N   0  3  0  0  0  0  0  0  0  0  0  0
    5.6661   -3.9953   20.7214 O   0  0  0  0  0  0  0  0  0  0  0  0
   14.8746   -2.6235   26.1301 O   0  0  0  0  0  0  0  0  0  0  0  0
   11.7261    1.0063   24.4570 Cl  0  0  0  0  0  0  0  0  0  0  0  0
   12.8192   -4.2567   26.0193 H   0  0  0  0  0  0  0  0  0  0  0  0
   10.0421   -1.2984   24.6019 H   0  0  0  0  0  0  0  0  0  0  0  0
   14.1438   -0.2258   25.3618 H   0  0  0  0  0  0  0  0  0  0  0  0
    5.6827   -4.2269   24.4396 H   0  0  0  0  0  0  0  0  0  0  0  0
    6.4041   -2.6172   24.4353 H   0  0  0  0  0  0  0  0  0  0  0  0
    7.9113   -1.9762   22.4761 H   0  0  0  0  0  0  0  0  0  0  0  0
    8.1898   -3.1557   21.2013 H   0  0  0  0  0  0  0  0  0  0  0  0
    7.6558   -4.0613   26.0071 H   0  0  0  0  0  0  0  0  0  0  0  0
    7.9335   -5.2864   24.7302 H   0  0  0  0  0  0  0  0  0  0  0  0
    9.4359   -4.6462   22.7782 H   0  0  0  0  0  0  0  0  0  0  0  0
   10.1434   -3.0008   22.7736 H   0  0  0  0  0  0  0  0  0  0  0  0
    4.1692   -5.0474   22.9433 H   0  0  0  0  0  0  0  0  0  0  0  0
    5.6673   -5.9561   23.2431 H   0  0  0  0  0  0  0  0  0  0  0  0
    4.8041   -6.1563   21.7074 H   0  0  0  0  0  0  0  0  0  0  0  0
   10.5767   -4.8481   24.8390 H   0  0  0  0  0  0  0  0  0  0  0  0
    9.8795   -4.1369   26.3013 H   0  0  0  0  0  0  0  0  0  0  0  0
    8.8768   -2.4822   24.7158 H   0  0  0  0  0  0  0  0  0  0  0  0
   14.9053   -3.5639   26.3676 H   0  0  0  0  0  0  0  0  0  0  0  0
  1  4  1  0  0  0  0
  1  5  2  0  0  0  0
  2  4  2  0  0  0  0
  2  6  1  0  0  0  0
  3  5  1  0  0  0  0
  3  6  2  0  0  0  0
  4 13  1  0  0  0  0
  5 17  1  0  0  0  0
  6 18  1  0  0  0  0
  7 12  1  0  0  0  0
  7 14  1  0  0  0  0
  7 16  2  0  0  0  0
  8 10  1  0  0  0  0
  8 14  1  0  0  0  0
  9 11  1  0  0  0  0
  9 14  1  0  0  0  0
 10 15  1  0  0  0  0
 11 15  1  0  0  0  0
 13 15  1  0  0  0  0
  1 19  1  0  0  0  0
  2 20  1  0  0  0  0
  3 21  1  0  0  0  0
  8 22  1  0  0  0  0
  8 23  1  0  0  0  0
  9 24  1  0  0  0  0
  9 25  1  0  0  0  0
 10 26  1  0  0  0  0
 10 27  1  0  0  0  0
 11 28  1  0  0  0  0
 11 29  1  0  0  0  0
 12 30  1  0  0  0  0
 12 31  1  0  0  0  0
 12 32  1  0  0  0  0
 13 33  1  0  0  0  0
 13 34  1  0  0  0  0
 15 35  1  0  0  0  0
 17 36  1  0  0  0  0
M  CHG  1  15   1
M  END
> <Hybrid2>
-9.378798

> <fragments>
x0749

> <Mpro-x0749_dock>
-9.378798

> <Mpro-x1385_dock>
-8.592437

> <Mpro-x1093_dock>
-8.460577

> <Mpro-x0678_dock>
-8.424341

> <Mpro-x1334_dock>
-8.303434

> <Mpro-x0830_dock>
-8.297713

> <Mpro-x0072_dock>
-7.957883

> <Mpro-x0434_dock>
-7.870207

> <Mpro-x0831_dock>
-7.4804

> <Mpro-x0104_dock>
-7.198503

> <Mpro-x1386_dock>
-7.136817

> <Mpro-x0195_dock>
-6.949169

> <Mpro-x0107_dock>
-6.767799

> <Mpro-x1412_dock>
-6.750396

> <Mpro-x0967_dock>
-6.582281

> <Mpro-x0874_dock>
-6.553918

> <Mpro-x1418_dock>
-6.553241

> <Mpro-x0395_dock>
-6.447381

> <Mpro-x0708_dock>
-6.393311

> <Mpro-x0397_dock>
-6.376567

> <Mpro-x0161_dock>
-6.322535

> <Mpro-x0774_dock>
-6.239656

> <Mpro-x1077_dock>
-6.213952

> <Mpro-x1375_dock>
-6.152954

> <Mpro-x0692_dock>
-6.102665

> <Mpro-x1311_dock>
-6.097549

> <Mpro-x0759_dock>
-6.070396

> <Mpro-x1392_dock>
-5.943044

> <Mpro-x0387_dock>
-5.660494

> <Mpro-x0946_dock>
-5.401695

> <Mpro-x0734_dock>
-5.386672

> <Mpro-x0770_dock>
-5.284522

> <Mpro-x1382_dock>
-5.232975

> <Mpro-x0305_dock>
-5.191783

> <Mpro-x0736_dock>
-4.665867

> <Mpro-x0752_dock>
-4.59653

> <Mpro-x1187_dock>
-4.537982

> <Mpro-x1348_dock>
-4.499279

> <Mpro-x1249_dock>
-4.307494

> <Mpro-x0820_dock>
-3.945205

> <Mpro-x1380_dock>
-3.80283

> <Mpro-x0354_dock>
-3.639683

> <Mpro-x0771_dock>
-3.609516

> <Mpro-x1458_dock>
-3.285128

> <Mpro-x0786_dock>
-3.276387

> <Mpro-x1374_dock>
-3.166648

> <Mpro-x1493_dock>
-3.098548

> <Mpro-x0731_dock>
-3.06728

> <Mpro-x1308_dock>
-3.034706

> <Mpro-x1358_dock>
-3.012041

> <Mpro-x1478_dock>
-2.918308

> <Mpro-x0769_dock>
-2.782658

> <Mpro-x1351_dock>
-2.729446

> <Mpro-x0755_dock>
-2.651661

> <Mpro-x0691_dock>
-2.571495

> <Mpro-x1402_dock>
-2.446685

> <Mpro-x0705_dock>
-2.415696

> <Mpro-x1384_dock>
-2.381923

> <Mpro-x1425_dock>
-2.204988

> <Mpro-x0689_dock>
-2.132366

> <Mpro-x0887_dock>
-1.407861

> <Mpro-x0540_dock>
-1.27822

> <Mpro-x0426_dock>
-1.012998

> <Mpro-x0981_dock>
-0.907857

> <Mpro-x0978_dock>
-0.828812

> <site>
active-covalent

$$$$
JOH-MSK-ec6-2
  -OEChem-04022003013D

 40 42  0     1  0  0  0  0  0999 V2000
   10.9207   -2.3319   22.5105 C   0  0  0  0  0  0  0  0  0  0  0  0
    9.7180   -2.3056   23.2182 C   0  0  0  0  0  0  0  0  0  0  0  0
   11.8259   -1.2845   22.6806 C   0  0  0  0  0  0  0  0  0  0  0  0
   11.5672   -0.2077   23.5469 C   0  0  0  0  0  0  0  0  0  0  0  0
   10.3923   -0.2047   24.2618 C   0  0  0  0  0  0  0  0  0  0  0  0
    9.4866   -1.2451   24.0848 C   0  0  0  0  0  0  0  0  0  0  0  0
   10.4948    4.6584   23.8055 C   0  0  0  0  0  0  0  0  0  0  0  0
   13.1737   -1.1467   22.0429 C   0  0  0  0  0  0  0  0  0  0  0  0
    9.8272    0.7741   25.2133 C   0  0  0  0  0  0  0  0  0  0  0  0
   13.4419    0.3495   22.2467 C   0  0  0  0  0  0  0  0  0  0  0  0
    8.6861   -0.0673   25.7853 C   0  0  0  0  0  0  0  0  0  0  0  0
   12.7227    0.7518   23.5534 C   0  0  1  0  0  0  0  0  0  0  0  0
    9.0991    6.2971   22.4847 C   0  0  0  0  0  0  0  0  0  0  0  0
   10.2134    6.1180   23.4996 C   0  0  0  0  0  0  0  0  0  0  0  0
   12.3619    2.2296   23.5581 C   0  0  0  0  0  0  0  0  0  0  0  0
   11.1673    2.5480   22.6665 C   0  0  0  0  0  0  0  0  0  0  0  0
   10.8466    3.9484   22.6612 N   0  0  0  0  0  0  0  0  0  0  0  0
   10.4181    4.1818   24.9346 O   0  0  0  0  0  0  0  0  0  0  0  0
    8.3493   -1.1117   24.8438 O   0  0  0  0  0  0  0  0  0  0  0  0
   11.1438   -3.1548   21.8391 H   0  0  0  0  0  0  0  0  0  0  0  0
    8.9921   -3.1032   23.1020 H   0  0  0  0  0  0  0  0  0  0  0  0
   13.9077   -1.7590   22.5766 H   0  0  0  0  0  0  0  0  0  0  0  0
   13.1648   -1.4097   20.9814 H   0  0  0  0  0  0  0  0  0  0  0  0
   10.5238    1.0891   25.9942 H   0  0  0  0  0  0  0  0  0  0  0  0
    9.4400    1.6465   24.6774 H   0  0  0  0  0  0  0  0  0  0  0  0
   14.5133    0.5736   22.2783 H   0  0  0  0  0  0  0  0  0  0  0  0
   13.0218    0.9052   21.3961 H   0  0  0  0  0  0  0  0  0  0  0  0
    8.9835   -0.5489   26.7258 H   0  0  0  0  0  0  0  0  0  0  0  0
    7.7979    0.5412   25.9848 H   0  0  0  0  0  0  0  0  0  0  0  0
   13.3651    0.5205   24.4123 H   0  0  0  0  0  0  0  0  0  0  0  0
    9.3443    5.8014   21.5395 H   0  0  0  0  0  0  0  0  0  0  0  0
    8.1661    5.8688   22.8634 H   0  0  0  0  0  0  0  0  0  0  0  0
    8.9268    7.3576   22.2728 H   0  0  0  0  0  0  0  0  0  0  0  0
    9.9433    6.6224   24.4344 H   0  0  0  0  0  0  0  0  0  0  0  0
   11.1331    6.5772   23.1199 H   0  0  0  0  0  0  0  0  0  0  0  0
   13.2278    2.8035   23.2072 H   0  0  0  0  0  0  0  0  0  0  0  0
   12.1580    2.5481   24.5876 H   0  0  0  0  0  0  0  0  0  0  0  0
   11.3861    2.2660   21.6317 H   0  0  0  0  0  0  0  0  0  0  0  0
   10.2753    2.0009   22.9874 H   0  0  0  0  0  0  0  0  0  0  0  0
   10.8783    4.4482   21.7729 H   0  0  0  0  0  0  0  0  0  0  0  0
  1  2  2  0  0  0  0
  1  3  1  0  0  0  0
  2  6  1  0  0  0  0
  3  4  2  0  0  0  0
  3  8  1  0  0  0  0
  4  5  1  0  0  0  0
  4 12  1  0  0  0  0
  5  6  2  0  0  0  0
  5  9  1  0  0  0  0
  6 19  1  0  0  0  0
  7 14  1  0  0  0  0
  7 17  1  0  0  0  0
  7 18  2  0  0  0  0
  8 10  1  0  0  0  0
  9 11  1  0  0  0  0
 10 12  1  0  0  0  0
 11 19  1  0  0  0  0
 12 15  1  0  0  0  0
 13 14  1  0  0  0  0
 15 16  1  0  0  0  0
 16 17  1  0  0  0  0
  1 20  1  0  0  0  0
  2 21  1  0  0  0  0
  8 22  1  0  0  0  0
  8 23  1  0  0  0  0
  9 24  1  0  0  0  0
  9 25  1  0  0  0  0
 10 26  1  0  0  0  0
 10 27  1  0  0  0  0
 11 28  1  0  0  0  0
 11 29  1  0  0  0  0
 12 30  1  0  0  0  0
 13 31  1  0  0  0  0
 13 32  1  0  0  0  0
 13 33  1  0  0  0  0
 14 34  1  0  0  0  0
 14 35  1  0  0  0  0
 15 36  1  0  0  0  0
 15 37  1  0  0  0  0
 16 38  1  0  0  0  0
 16 39  1  0  0  0  0
 17 40  1  0  0  0  0
M  END
> <Hybrid2>
-9.332843

> <fragments>
x0104

> <Mpro-x0104_dock>
-9.332843

> <Mpro-x0195_dock>
-8.813939

> <Mpro-x0749_dock>
-8.331724

> <Mpro-x0161_dock>
-8.231304

> <Mpro-x1385_dock>
-7.974613

> <Mpro-x0831_dock>
-7.909496

> <Mpro-x0678_dock>
-7.825113

> <Mpro-x1077_dock>
-7.74474

> <Mpro-x0434_dock>
-7.613575

> <Mpro-x1093_dock>
-7.521326

> <Mpro-x1334_dock>
-7.28225

> <Mpro-x0874_dock>
-7.238241

> <Mpro-x1375_dock>
-7.206899

> <Mpro-x0072_dock>
-6.670448

> <Mpro-x0946_dock>
-6.565015

> <Mpro-x1374_dock>
-6.55083

> <Mpro-x0708_dock>
-6.434987

> <Mpro-x0830_dock>
-6.159737

> <Mpro-x0692_dock>
-6.012927

> <Mpro-x1386_dock>
-5.985232

> <Mpro-x0734_dock>
-5.978434

> <Mpro-x1382_dock>
-5.968093

> <Mpro-x1348_dock>
-5.966545

> <Mpro-x1418_dock>
-5.788096

> <Mpro-x1249_dock>
-5.746939

> <Mpro-x1392_dock>
-5.742524

> <Mpro-x0354_dock>
-5.285257

> <Mpro-x0387_dock>
-5.231038

> <Mpro-x0770_dock>
-5.208428

> <Mpro-x0736_dock>
-5.151344

> <Mpro-x0759_dock>
-5.084911

> <Mpro-x0774_dock>
-5.056469

> <Mpro-x1412_dock>
-4.988082

> <Mpro-x1380_dock>
-4.958717

> <Mpro-x0395_dock>
-4.92327

> <Mpro-x1311_dock>
-4.813991

> <Mpro-x0397_dock>
-4.612568

> <Mpro-x0107_dock>
-4.51327

> <Mpro-x0967_dock>
-4.456696

> <Mpro-x1458_dock>
-4.279718

> <Mpro-x0305_dock>
-4.166683

> <Mpro-x1187_dock>
-4.061845

> <Mpro-x0820_dock>
-3.893207

> <Mpro-x1493_dock>
-3.69489

> <Mpro-x1478_dock>
-3.669294

> <Mpro-x0771_dock>
-3.470925

> <Mpro-x1358_dock>
-3.150086

> <Mpro-x1308_dock>
-3.039132

> <Mpro-x0689_dock>
-2.72096

> <Mpro-x0769_dock>
-2.669658

> <Mpro-x0755_dock>
-2.657959

> <Mpro-x0691_dock>
-2.633496

> <Mpro-x1351_dock>
-2.491285

> <Mpro-x0705_dock>
-2.420293

> <Mpro-x1402_dock>
-2.373722

> <Mpro-x1425_dock>
-2.354163

> <Mpro-x1384_dock>
-2.258499

> <Mpro-x0731_dock>
-2.229017

> <Mpro-x0752_dock>
-2.116815

> <Mpro-x0540_dock>
-1.927725

> <Mpro-x0426_dock>
-1.877383

> <Mpro-x0786_dock>
-1.351541

> <Mpro-x0887_dock>
-1.167361

> <Mpro-x0978_dock>
-0.042529

> <Mpro-x0981_dock>
-0.012259

> <site>
active-noncovalent

$$$$
MIH-UNI-6b9-6
  -OEChem-04022003013D

 30 31  0     0  0  0  0  0  0999 V2000
   13.8227   -0.1879   23.4102 C   0  0  0  0  0  0  0  0  0  0  0  0
   13.8259   -0.9434   22.2377 C   0  0  0  0  0  0  0  0  0  0  0  0
   12.7090   -0.2078   24.2498 C   0  0  0  0  0  0  0  0  0  0  0  0
   12.7153   -1.7188   21.9047 C   0  0  0  0  0  0  0  0  0  0  0  0
   11.5984   -0.9832   23.9168 C   0  0  0  0  0  0  0  0  0  0  0  0
    6.7629    0.9175   19.7580 C   0  0  0  0  0  0  0  0  0  0  0  0
    6.5333    0.6195   18.4350 C   0  0  0  0  0  0  0  0  0  0  0  0
    8.6584    0.2744   18.7730 C   0  0  0  0  0  0  0  0  0  0  0  0
   11.6015   -1.7388   22.7442 C   0  0  0  0  0  0  0  0  0  0  0  0
    8.1431    0.6936   19.9775 C   0  0  0  0  0  0  0  0  0  0  0  0
   10.4135   -2.5675   22.3886 C   0  0  0  0  0  0  0  0  0  0  0  0
    9.3768   -1.8206   21.5403 C   0  0  0  0  0  0  0  0  0  0  0  0
    8.8720   -0.6475   22.2019 N   0  0  0  0  0  0  0  0  0  0  0  0
   10.4253    1.1334   21.1642 O   0  0  0  0  0  0  0  0  0  0  0  0
    8.2985    1.8910   22.2721 O   0  0  0  0  0  0  0  0  0  0  0  0
    7.6835    0.2265   17.8275 O   0  0  0  0  0  0  0  0  0  0  0  0
    9.0297    0.9116   21.4912 S   0  0  0  0  0  0  0  0  0  0  0  0
   14.6881    0.4148   23.6700 H   0  0  0  0  0  0  0  0  0  0  0  0
   14.6934   -0.9289   21.5844 H   0  0  0  0  0  0  0  0  0  0  0  0
   12.7066    0.3794   25.1633 H   0  0  0  0  0  0  0  0  0  0  0  0
   12.7265   -2.3042   20.9890 H   0  0  0  0  0  0  0  0  0  0  0  0
   10.7350   -0.9925   24.5768 H   0  0  0  0  0  0  0  0  0  0  0  0
    6.0249    1.2543   20.4722 H   0  0  0  0  0  0  0  0  0  0  0  0
    5.6543    0.6337   17.8071 H   0  0  0  0  0  0  0  0  0  0  0  0
    9.6448   -0.0141   18.4393 H   0  0  0  0  0  0  0  0  0  0  0  0
    9.9228   -2.9182   23.3122 H   0  0  0  0  0  0  0  0  0  0  0  0
   10.7240   -3.4853   21.8604 H   0  0  0  0  0  0  0  0  0  0  0  0
    9.8219   -1.4849   20.5984 H   0  0  0  0  0  0  0  0  0  0  0  0
    8.5205   -2.4609   21.3042 H   0  0  0  0  0  0  0  0  0  0  0  0
    8.0882   -0.7738   22.8761 H   0  0  0  0  0  0  0  0  0  0  0  0
  1  2  1  0  0  0  0
  1  3  2  0  0  0  0
  2  4  2  0  0  0  0
  3  5  1  0  0  0  0
  4  9  1  0  0  0  0
  5  9  2  0  0  0  0
  6  7  2  0  0  0  0
  6 10  1  0  0  0  0
  7 16  1  0  0  0  0
  8 10  2  0  0  0  0
  8 16  1  0  0  0  0
  9 11  1  0  0  0  0
 10 17  1  0  0  0  0
 11 12  1  0  0  0  0
 12 13  1  0  0  0  0
 13 17  1  0  0  0  0
 14 17  2  0  0  0  0
 15 17  2  0  0  0  0
  1 18  1  0  0  0  0
  2 19  1  0  0  0  0
  3 20  1  0  0  0  0
  4 21  1  0  0  0  0
  5 22  1  0  0  0  0
  6 23  1  0  0  0  0
  7 24  1  0  0  0  0
  8 25  1  0  0  0  0
 11 26  1  0  0  0  0
 11 27  1  0  0  0  0
 12 28  1  0  0  0  0
 12 29  1  0  0  0  0
 13 30  1  0  0  0  0
M  END
> <Hybrid2>
-9.325847

> <fragments>
x0678

> <Mpro-x0678_dock>
-9.325847

> <Mpro-x1093_dock>
-8.674266

> <Mpro-x0831_dock>
-7.975928

> <Mpro-x1386_dock>
-7.825479

> <Mpro-x0434_dock>
-7.773761

> <Mpro-x0749_dock>
-7.749649

> <Mpro-x0692_dock>
-7.592846

> <Mpro-x1418_dock>
-7.447095

> <Mpro-x0072_dock>
-7.120572

> <Mpro-x0195_dock>
-7.074469

> <Mpro-x0770_dock>
-6.948487

> <Mpro-x0107_dock>
-6.779742

> <Mpro-x0161_dock>
-6.729626

> <Mpro-x0397_dock>
-6.725788

> <Mpro-x0104_dock>
-6.688921

> <Mpro-x0759_dock>
-6.580731

> <Mpro-x0708_dock>
-6.338305

> <Mpro-x1392_dock>
-6.275257

> <Mpro-x1375_dock>
-6.245608

> <Mpro-x1077_dock>
-6.056212

> <Mpro-x1385_dock>
-5.680708

> <Mpro-x0830_dock>
-5.679488

> <Mpro-x0395_dock>
-5.622631

> <Mpro-x0967_dock>
-5.609332

> <Mpro-x1458_dock>
-5.585433

> <Mpro-x1311_dock>
-5.423988

> <Mpro-x1374_dock>
-5.316711

> <Mpro-x0305_dock>
-5.03527

> <Mpro-x0387_dock>
-5.034268

> <Mpro-x1412_dock>
-5.022247

> <Mpro-x0874_dock>
-4.903889

> <Mpro-x0946_dock>
-4.823009

> <Mpro-x1334_dock>
-4.72186

> <Mpro-x0354_dock>
-4.678977

> <Mpro-x1478_dock>
-4.662028

> <Mpro-x1382_dock>
-4.636838

> <Mpro-x0820_dock>
-4.564439

> <Mpro-x1249_dock>
-4.47008

> <Mpro-x1187_dock>
-4.3999

> <Mpro-x0774_dock>
-4.274957

> <Mpro-x1380_dock>
-4.133547

> <Mpro-x0734_dock>
-4.061572

> <Mpro-x1493_dock>
-4.021048

> <Mpro-x0736_dock>
-3.957595

> <Mpro-x1308_dock>
-3.955275

> <Mpro-x1358_dock>
-3.763286

> <Mpro-x1348_dock>
-3.666427

> <Mpro-x0769_dock>
-2.977785

> <Mpro-x0755_dock>
-2.823872

> <Mpro-x1402_dock>
-2.793869

> <Mpro-x1425_dock>
-2.720998

> <Mpro-x0689_dock>
-2.706381

> <Mpro-x0691_dock>
-2.659783

> <Mpro-x1351_dock>
-2.633368

> <Mpro-x0540_dock>
-2.498326

> <Mpro-x0771_dock>
-2.342906

> <Mpro-x0786_dock>
-2.299192

> <Mpro-x0752_dock>
-2.017353

> <Mpro-x0731_dock>
-1.907888

> <Mpro-x0705_dock>
-1.887315

> <Mpro-x0981_dock>
-1.602686

> <Mpro-x0978_dock>
-1.472608

> <Mpro-x1384_dock>
-1.174864

> <Mpro-x0426_dock>
-0.802077

> <Mpro-x0887_dock>
-0.676827

> <site>
active-noncovalent

$$$$
WAR-XCH-b72-9
  -OEChem-04022003013D

 36 37  0     0  0  0  0  0  0999 V2000
    9.9267   -2.9196   23.2648 C   0  0  0  0  0  0  0  0  0  0  0  0
   10.3573   -4.6186   24.9277 C   0  0  0  0  0  0  0  0  0  0  0  0
   11.0990   -2.2605   23.6347 C   0  0  0  0  0  0  0  0  0  0  0  0
   11.5296   -3.9595   25.2975 C   0  0  0  0  0  0  0  0  0  0  0  0
    9.5558   -4.0987   23.9113 C   0  0  0  0  0  0  0  0  0  0  0  0
   11.9005   -2.7804   24.6510 C   0  0  0  0  0  0  0  0  0  0  0  0
    7.0623   -5.8186   21.7440 C   0  0  0  0  0  0  0  0  0  0  0  0
    6.4388   -6.1530   24.1459 C   0  0  0  0  0  0  0  0  0  0  0  0
    7.9428   -4.6328   22.1429 C   0  0  0  0  0  0  0  0  0  0  0  0
    7.3226   -4.9666   24.5374 C   0  0  0  0  0  0  0  0  0  0  0  0
    5.9079   -6.0286   22.7200 C   0  0  0  0  0  0  0  0  0  0  0  0
    3.7276   -5.2526   23.1385 C   0  0  0  0  0  0  0  0  0  0  0  0
    8.3791   -4.7608   23.5404 N   0  0  0  0  0  0  0  0  0  0  0  0
   14.5001   -2.6923   24.0690 N   0  0  0  0  0  0  0  0  0  0  0  0
   13.2390   -0.5508   24.7541 O   0  0  0  0  0  0  0  0  0  0  0  0
   13.6909   -2.3232   26.4868 O   0  0  0  0  0  0  0  0  0  0  0  0
    5.0115   -4.9255   22.6256 O   0  0  0  0  0  0  0  0  0  0  0  0
   13.3677   -1.9557   25.1152 S   0  0  0  0  0  0  0  0  0  0  0  0
    9.3094   -2.5054   22.4717 H   0  0  0  0  0  0  0  0  0  0  0  0
   10.0781   -5.5374   25.4373 H   0  0  0  0  0  0  0  0  0  0  0  0
   11.3780   -1.3426   23.1243 H   0  0  0  0  0  0  0  0  0  0  0  0
   12.1464   -4.3736   26.0909 H   0  0  0  0  0  0  0  0  0  0  0  0
    6.6716   -5.6680   20.7265 H   0  0  0  0  0  0  0  0  0  0  0  0
    7.6707   -6.7320   21.6880 H   0  0  0  0  0  0  0  0  0  0  0  0
    7.0060   -7.0877   24.2499 H   0  0  0  0  0  0  0  0  0  0  0  0
    5.5997   -6.2421   24.8509 H   0  0  0  0  0  0  0  0  0  0  0  0
    8.8176   -4.5811   21.4822 H   0  0  0  0  0  0  0  0  0  0  0  0
    7.3683   -3.7083   22.0065 H   0  0  0  0  0  0  0  0  0  0  0  0
    6.6933   -4.0719   24.6176 H   0  0  0  0  0  0  0  0  0  0  0  0
    7.7696   -5.1479   25.5230 H   0  0  0  0  0  0  0  0  0  0  0  0
    5.3507   -6.9373   22.4434 H   0  0  0  0  0  0  0  0  0  0  0  0
    3.0677   -4.3861   23.0506 H   0  0  0  0  0  0  0  0  0  0  0  0
    3.8179   -5.5504   24.1862 H   0  0  0  0  0  0  0  0  0  0  0  0
    3.3147   -6.0825   22.5602 H   0  0  0  0  0  0  0  0  0  0  0  0
   14.8749   -2.1324   23.2933 H   0  0  0  0  0  0  0  0  0  0  0  0
   15.1812   -3.3438   24.4776 H   0  0  0  0  0  0  0  0  0  0  0  0
  1  3  2  0  0  0  0
  1  5  1  0  0  0  0
  2  4  1  0  0  0  0
  2  5  2  0  0  0  0
  3  6  1  0  0  0  0
  4  6  2  0  0  0  0
  5 13  1  0  0  0  0
  6 18  1  0  0  0  0
  7  9  1  0  0  0  0
  7 11  1  0  0  0  0
  8 10  1  0  0  0  0
  8 11  1  0  0  0  0
  9 13  1  0  0  0  0
 10 13  1  0  0  0  0
 11 17  1  0  0  0  0
 12 17  1  0  0  0  0
 14 18  1  0  0  0  0
 15 18  2  0  0  0  0
 16 18  2  0  0  0  0
  1 19  1  0  0  0  0
  2 20  1  0  0  0  0
  3 21  1  0  0  0  0
  4 22  1  0  0  0  0
  7 23  1  0  0  0  0
  7 24  1  0  0  0  0
  8 25  1  0  0  0  0
  8 26  1  0  0  0  0
  9 27  1  0  0  0  0
  9 28  1  0  0  0  0
 10 29  1  0  0  0  0
 10 30  1  0  0  0  0
 11 31  1  0  0  0  0
 12 32  1  0  0  0  0
 12 33  1  0  0  0  0
 12 34  1  0  0  0  0
 14 35  1  0  0  0  0
 14 36  1  0  0  0  0
M  END
> <Hybrid2>
-9.316606

> <fragments>
x0749

> <Mpro-x0749_dock>
-9.316606

> <Mpro-x0072_dock>
-7.972608

> <Mpro-x0195_dock>
-7.828015

> <Mpro-x1077_dock>
-7.499621

> <Mpro-x0678_dock>
-7.388195

> <Mpro-x0161_dock>
-7.163068

> <Mpro-x0946_dock>
-6.666163

> <Mpro-x0830_dock>
-6.652362

> <Mpro-x1093_dock>
-6.601306

> <Mpro-x0104_dock>
-6.360484

> <Mpro-x0967_dock>
-6.284585

> <Mpro-x0395_dock>
-6.047187

> <Mpro-x0708_dock>
-5.985503

> <Mpro-x0874_dock>
-5.832602

> <Mpro-x0692_dock>
-5.806017

> <Mpro-x0107_dock>
-5.619974

> <Mpro-x1412_dock>
-5.585142

> <Mpro-x0759_dock>
-5.448888

> <Mpro-x1392_dock>
-5.390716

> <Mpro-x0831_dock>
-5.328358

> <Mpro-x1385_dock>
-5.108539

> <Mpro-x1311_dock>
-4.963229

> <Mpro-x0305_dock>
-4.858039

> <Mpro-x1418_dock>
-4.597695

> <Mpro-x1334_dock>
-4.518693

> <Mpro-x0434_dock>
-4.283117

> <Mpro-x1386_dock>
-4.093381

> <Mpro-x0387_dock>
-4.019917

> <Mpro-x1187_dock>
-4.009863

> <Mpro-x0770_dock>
-3.981819

> <Mpro-x1348_dock>
-3.924895

> <Mpro-x1249_dock>
-3.912548

> <Mpro-x0397_dock>
-3.865192

> <Mpro-x1375_dock>
-3.623029

> <Mpro-x1493_dock>
-3.54614

> <Mpro-x1382_dock>
-3.391275

> <Mpro-x1380_dock>
-3.240614

> <Mpro-x0354_dock>
-3.091788

> <Mpro-x0736_dock>
-3.053689

> <Mpro-x0774_dock>
-3.033202

> <Mpro-x1374_dock>
-2.812995

> <Mpro-x0426_dock>
-2.614603

> <Mpro-x0820_dock>
-2.45162

> <Mpro-x1458_dock>
-2.163928

> <Mpro-x0540_dock>
-2.119106

> <Mpro-x1478_dock>
-1.844274

> <Mpro-x1351_dock>
-1.806484

> <Mpro-x1358_dock>
-1.638327

> <Mpro-x0734_dock>
-1.627653

> <Mpro-x0771_dock>
-1.516719

> <Mpro-x1384_dock>
-1.333118

> <Mpro-x0705_dock>
-1.082255

> <Mpro-x0752_dock>
-1.030678

> <Mpro-x0887_dock>
-0.97005

> <Mpro-x0769_dock>
-0.954791

> <Mpro-x0689_dock>
-0.888896

> <Mpro-x0755_dock>
-0.765689

> <Mpro-x0691_dock>
-0.66199

> <Mpro-x1425_dock>
-0.622188

> <Mpro-x0786_dock>
-0.604782

> <Mpro-x1308_dock>
-0.420993

> <Mpro-x0978_dock>
-0.117626

> <Mpro-x1402_dock>
-0.099762

> <Mpro-x0731_dock>
0.261356

> <Mpro-x0981_dock>
1.088976

> <site>
active-covalent

$$$$
BAR-COM-4e0-42
  -OEChem-04022003013D

 36 38  0     0  0  0  0  0  0999 V2000
    7.4433   -3.5290   24.1267 C   0  0  0  0  0  0  0  0  0  0  0  0
    8.6517   -4.2107   23.9834 C   0  0  0  0  0  0  0  0  0  0  0  0
    7.2579   -2.2981   23.4973 C   0  0  0  0  0  0  0  0  0  0  0  0
    9.6749   -3.6613   23.2108 C   0  0  0  0  0  0  0  0  0  0  0  0
   11.7283   -0.7600   23.5283 C   0  0  0  0  0  0  0  0  0  0  0  0
   12.9287   -0.4857   24.1835 C   0  0  0  0  0  0  0  0  0  0  0  0
    5.6822    1.5015   18.5257 C   0  0  0  0  0  0  0  0  0  0  0  0
   14.0840   -2.0062   22.7035 C   0  0  0  0  0  0  0  0  0  0  0  0
    6.2011    0.8969   17.3678 C   0  0  0  0  0  0  0  0  0  0  0  0
    8.2811   -1.7487   22.7248 C   0  0  0  0  0  0  0  0  0  0  0  0
    9.4897   -2.4303   22.5815 C   0  0  0  0  0  0  0  0  0  0  0  0
   11.7056   -1.6575   22.4608 C   0  0  0  0  0  0  0  0  0  0  0  0
   14.1066   -1.1087   23.7711 C   0  0  0  0  0  0  0  0  0  0  0  0
   12.8835   -2.2806   22.0483 C   0  0  0  0  0  0  0  0  0  0  0  0
    6.3945    0.9226   19.5425 C   0  0  0  0  0  0  0  0  0  0  0  0
    8.0668   -0.4624   22.0764 C   0  0  0  0  0  0  0  0  0  0  0  0
    6.3849    1.0755   21.0360 C   0  0  0  0  0  0  0  0  0  0  0  0
    7.1618    0.0109   17.6451 N   0  0  0  0  0  0  0  0  0  0  0  0
    6.7542   -0.1498   21.7075 N   0  0  0  0  0  0  0  0  0  0  0  0
    9.0249    0.2970   21.8527 O   0  0  0  0  0  0  0  0  0  0  0  0
    7.2807    0.0312   19.0296 O   0  0  0  0  0  0  0  0  0  0  0  0
   10.5006   -1.9108   21.8292 O   0  0  0  0  0  0  0  0  0  0  0  0
   15.5870   -0.7695   24.5806 Cl  0  0  0  0  0  0  0  0  0  0  0  0
   12.8837   -3.3948   20.7314 Cl  0  0  0  0  0  0  0  0  0  0  0  0
    6.6466   -3.9572   24.7284 H   0  0  0  0  0  0  0  0  0  0  0  0
    8.7956   -5.1687   24.4741 H   0  0  0  0  0  0  0  0  0  0  0  0
    6.3118   -1.7761   23.6157 H   0  0  0  0  0  0  0  0  0  0  0  0
   10.6139   -4.1975   23.1031 H   0  0  0  0  0  0  0  0  0  0  0  0
   10.8143   -0.2715   23.8551 H   0  0  0  0  0  0  0  0  0  0  0  0
   12.9315    0.2153   25.0143 H   0  0  0  0  0  0  0  0  0  0  0  0
    4.9056    2.2472   18.6074 H   0  0  0  0  0  0  0  0  0  0  0  0
   15.0032   -2.4919   22.3828 H   0  0  0  0  0  0  0  0  0  0  0  0
    5.9231    1.0618   16.3372 H   0  0  0  0  0  0  0  0  0  0  0  0
    7.0869    1.8563   21.3487 H   0  0  0  0  0  0  0  0  0  0  0  0
    5.3924    1.3679   21.3948 H   0  0  0  0  0  0  0  0  0  0  0  0
    6.0195   -0.8336   21.8572 H   0  0  0  0  0  0  0  0  0  0  0  0
  1  2  1  0  0  0  0
  1  3  2  0  0  0  0
  2  4  2  0  0  0  0
  3 10  1  0  0  0  0
  4 11  1  0  0  0  0
  5  6  2  0  0  0  0
  5 12  1  0  0  0  0
  6 13  1  0  0  0  0
  7  9  1  0  0  0  0
  7 15  2  0  0  0  0
  8 13  2  0  0  0  0
  8 14  1  0  0  0  0
  9 18  2  0  0  0  0
 10 11  2  0  0  0  0
 10 16  1  0  0  0  0
 11 22  1  0  0  0  0
 12 14  2  0  0  0  0
 12 22  1  0  0  0  0
 13 23  1  0  0  0  0
 14 24  1  0  0  0  0
 15 17  1  0  0  0  0
 15 21  1  0  0  0  0
 16 19  1  0  0  0  0
 16 20  2  0  0  0  0
 17 19  1  0  0  0  0
 18 21  1  0  0  0  0
  1 25  1  0  0  0  0
  2 26  1  0  0  0  0
  3 27  1  0  0  0  0
  4 28  1  0  0  0  0
  5 29  1  0  0  0  0
  6 30  1  0  0  0  0
  7 31  1  0  0  0  0
  8 32  1  0  0  0  0
  9 33  1  0  0  0  0
 17 34  1  0  0  0  0
 17 35  1  0  0  0  0
 19 36  1  0  0  0  0
M  END
> <Hybrid2>
-9.313103

> <fragments>
x0678

> <Mpro-x0678_dock>
-9.313103

> <Mpro-x0072_dock>
-7.017084

> <Mpro-x0831_dock>
-6.752573

> <Mpro-x0161_dock>
-6.693622

> <Mpro-x0708_dock>
-6.34183

> <Mpro-x1093_dock>
-6.302909

> <Mpro-x0107_dock>
-6.235959

> <Mpro-x1392_dock>
-6.168747

> <Mpro-x0434_dock>
-5.874566

> <Mpro-x1077_dock>
-5.859444

> <Mpro-x1386_dock>
-5.827921

> <Mpro-x0195_dock>
-5.758622

> <Mpro-x1385_dock>
-5.754529

> <Mpro-x1418_dock>
-5.522076

> <Mpro-x0305_dock>
-5.361801

> <Mpro-x0759_dock>
-5.349392

> <Mpro-x0967_dock>
-5.259058

> <Mpro-x0749_dock>
-5.241942

> <Mpro-x0946_dock>
-5.150092

> <Mpro-x0770_dock>
-5.075951

> <Mpro-x0387_dock>
-4.904398

> <Mpro-x0874_dock>
-4.783169

> <Mpro-x1334_dock>
-4.70474

> <Mpro-x1412_dock>
-4.63925

> <Mpro-x1311_dock>
-4.383188

> <Mpro-x0104_dock>
-4.301316

> <Mpro-x0395_dock>
-4.290884

> <Mpro-x0692_dock>
-4.289933

> <Mpro-x1478_dock>
-3.982682

> <Mpro-x1458_dock>
-3.982625

> <Mpro-x0830_dock>
-3.839433

> <Mpro-x0771_dock>
-3.798592

> <Mpro-x0397_dock>
-3.775063

> <Mpro-x1358_dock>
-3.722228

> <Mpro-x1382_dock>
-3.514077

> <Mpro-x1374_dock>
-3.491695

> <Mpro-x0354_dock>
-3.280393

> <Mpro-x0774_dock>
-3.092541

> <Mpro-x1380_dock>
-2.998542

> <Mpro-x0769_dock>
-2.865724

> <Mpro-x0691_dock>
-2.862177

> <Mpro-x0736_dock>
-2.856162

> <Mpro-x1249_dock>
-2.846655

> <Mpro-x1308_dock>
-2.779272

> <Mpro-x0755_dock>
-2.515484

> <Mpro-x1402_dock>
-2.463305

> <Mpro-x0734_dock>
-2.357715

> <Mpro-x1425_dock>
-2.34516

> <Mpro-x1493_dock>
-2.271891

> <Mpro-x1375_dock>
-2.073051

> <Mpro-x0820_dock>
-1.729119

> <Mpro-x0689_dock>
-1.69091

> <Mpro-x1348_dock>
-1.60102

> <Mpro-x1187_dock>
-1.517017

> <Mpro-x0540_dock>
-1.414889

> <Mpro-x1351_dock>
-0.98308

> <Mpro-x1384_dock>
-0.849984

> <Mpro-x0752_dock>
-0.705984

> <Mpro-x0978_dock>
-0.667019

> <Mpro-x0426_dock>
-0.041903

> <Mpro-x0731_dock>
0.279109

> <Mpro-x0981_dock>
0.322742

> <Mpro-x0887_dock>
0.496966

> <Mpro-x0705_dock>
0.625679

> <Mpro-x0786_dock>
1.86259

> <site>
active-noncovalent

$$$$
BAR-COM-4e0-29
  -OEChem-04022003013D

 42 44  0     1  0  0  0  0  0999 V2000
    6.4123   -3.6711   27.3368 C   0  0  0  0  0  0  0  0  0  0  0  0
    7.4381   -2.7564   27.0989 C   0  0  0  0  0  0  0  0  0  0  0  0
    6.4206   -4.9104   26.6966 C   0  0  0  0  0  0  0  0  0  0  0  0
    6.3731    1.2794   19.8560 C   0  0  0  0  0  0  0  0  0  0  0  0
    5.8692   -5.3758   21.9869 C   0  0  0  0  0  0  0  0  0  0  0  0
    8.4721   -3.0808   26.2207 C   0  0  0  0  0  0  0  0  0  0  0  0
    7.4545   -5.2348   25.8183 C   0  0  0  0  0  0  0  0  0  0  0  0
    7.4195    1.0243   20.7248 C   0  0  0  0  0  0  0  0  0  0  0  0
    6.7641   -4.4723   22.6297 C   0  0  0  0  0  0  0  0  0  0  0  0
    6.5681    1.0163   18.5150 C   0  0  0  0  0  0  0  0  0  0  0  0
    6.5206   -6.4823   21.4882 C   0  0  0  0  0  0  0  0  0  0  0  0
    8.4803   -4.3200   25.5804 C   0  0  0  0  0  0  0  0  0  0  0  0
    8.5915    0.5228   20.1952 C   0  0  0  0  0  0  0  0  0  0  0  0
    8.0656   -4.9230   22.5979 C   0  0  0  0  0  0  0  0  0  0  0  0
    9.6211   -2.1159   21.9421 C   0  0  0  0  0  0  0  0  0  0  0  0
    9.6005   -4.6721   24.6283 C   0  0  0  0  0  0  0  0  0  0  0  0
    9.7569    0.2272   21.0944 C   0  0  0  0  0  0  0  0  0  0  0  0
    9.3091   -4.2618   23.1675 C   0  0  2  0  0  0  0  0  0  0  0  0
    7.7260    0.5256   18.0244 N   0  0  0  0  0  0  0  0  0  0  0  0
    8.7542    0.2746   18.8784 N   0  0  0  0  0  0  0  0  0  0  0  0
    9.4244   -0.7475   22.1076 N   0  0  0  0  0  0  0  0  0  0  0  0
    9.2156   -2.8241   23.0705 N   0  0  0  0  0  0  0  0  0  0  0  0
   10.0926   -2.6341   20.9308 O   0  0  0  0  0  0  0  0  0  0  0  0
    8.2044   -6.4293   21.7954 S   0  0  0  0  0  0  0  0  0  0  0  0
    5.6080   -3.4189   28.0217 H   0  0  0  0  0  0  0  0  0  0  0  0
    7.4324   -1.7919   27.5982 H   0  0  0  0  0  0  0  0  0  0  0  0
    5.6227   -5.6233   26.8824 H   0  0  0  0  0  0  0  0  0  0  0  0
    5.4302    1.6733   20.2175 H   0  0  0  0  0  0  0  0  0  0  0  0
    4.8018   -5.2229   21.8954 H   0  0  0  0  0  0  0  0  0  0  0  0
    9.2670   -2.3617   26.0413 H   0  0  0  0  0  0  0  0  0  0  0  0
    7.4526   -6.2026   25.3239 H   0  0  0  0  0  0  0  0  0  0  0  0
    7.3127    1.2163   21.7871 H   0  0  0  0  0  0  0  0  0  0  0  0
    6.4632   -3.5407   23.0920 H   0  0  0  0  0  0  0  0  0  0  0  0
    5.7876    1.1948   17.7845 H   0  0  0  0  0  0  0  0  0  0  0  0
    6.0884   -7.3191   20.9579 H   0  0  0  0  0  0  0  0  0  0  0  0
    9.7558   -5.7586   24.6859 H   0  0  0  0  0  0  0  0  0  0  0  0
   10.5392   -4.2257   24.9822 H   0  0  0  0  0  0  0  0  0  0  0  0
   10.6017   -0.1624   20.5160 H   0  0  0  0  0  0  0  0  0  0  0  0
   10.1012    1.1341   21.6025 H   0  0  0  0  0  0  0  0  0  0  0  0
   10.1681   -4.5527   22.5493 H   0  0  0  0  0  0  0  0  0  0  0  0
    9.0282   -0.4187   22.9826 H   0  0  0  0  0  0  0  0  0  0  0  0
    8.8808   -2.3075   23.8778 H   0  0  0  0  0  0  0  0  0  0  0  0
  1  2  1  0  0  0  0
  1  3  2  0  0  0  0
  2  6  2  0  0  0  0
  3  7  1  0  0  0  0
  4  8  2  0  0  0  0
  4 10  1  0  0  0  0
  5  9  1  0  0  0  0
  5 11  2  0  0  0  0
  6 12  1  0  0  0  0
  7 12  2  0  0  0  0
  8 13  1  0  0  0  0
  9 14  2  0  0  0  0
 10 19  2  0  0  0  0
 11 24  1  0  0  0  0
 12 16  1  0  0  0  0
 13 17  1  0  0  0  0
 13 20  2  0  0  0  0
 14 18  1  0  0  0  0
 14 24  1  0  0  0  0
 15 21  1  0  0  0  0
 15 22  1  0  0  0  0
 15 23  2  0  0  0  0
 16 18  1  0  0  0  0
 17 21  1  0  0  0  0
 18 22  1  0  0  0  0
 19 20  1  0  0  0  0
  1 25  1  0  0  0  0
  2 26  1  0  0  0  0
  3 27  1  0  0  0  0
  4 28  1  0  0  0  0
  5 29  1  0  0  0  0
  6 30  1  0  0  0  0
  7 31  1  0  0  0  0
  8 32  1  0  0  0  0
  9 33  1  0  0  0  0
 10 34  1  0  0  0  0
 11 35  1  0  0  0  0
 16 36  1  0  0  0  0
 16 37  1  0  0  0  0
 17 38  1  0  0  0  0
 17 39  1  0  0  0  0
 18 40  1  0  0  0  0
 21 41  1  0  0  0  0
 22 42  1  0  0  0  0
M  END
> <Hybrid2>
-9.271416

> <fragments>
x1077

> <Mpro-x1077_dock>
-9.271416

> <Mpro-x0678_dock>
-8.975275

> <Mpro-x0195_dock>
-7.743765

> <Mpro-x0397_dock>
-7.132635

> <Mpro-x0107_dock>
-7.005404

> <Mpro-x0874_dock>
-6.634741

> <Mpro-x0749_dock>
-6.385388

> <Mpro-x0104_dock>
-5.852237

> <Mpro-x0434_dock>
-5.731513

> <Mpro-x0072_dock>
-5.135752

> <Mpro-x1418_dock>
-4.915634

> <Mpro-x1392_dock>
-4.676721

> <Mpro-x0946_dock>
-4.676054

> <Mpro-x0967_dock>
-4.66233

> <Mpro-x1093_dock>
-4.525826

> <Mpro-x0387_dock>
-4.489762

> <Mpro-x1249_dock>
-4.393661

> <Mpro-x1311_dock>
-4.367445

> <Mpro-x0831_dock>
-4.172715

> <Mpro-x0354_dock>
-3.962374

> <Mpro-x0736_dock>
-3.891988

> <Mpro-x0426_dock>
-3.528095

> <Mpro-x0395_dock>
-3.460833

> <Mpro-x1386_dock>
-3.441019

> <Mpro-x0830_dock>
-3.218725

> <Mpro-x0752_dock>
-3.132019

> <Mpro-x0161_dock>
-3.036623

> <Mpro-x0770_dock>
-2.976144

> <Mpro-x0759_dock>
-2.957514

> <Mpro-x1458_dock>
-2.922468

> <Mpro-x0692_dock>
-2.767414

> <Mpro-x1334_dock>
-2.68057

> <Mpro-x0305_dock>
-2.658286

> <Mpro-x1478_dock>
-2.404698

> <Mpro-x1385_dock>
-2.355483

> <Mpro-x0981_dock>
-2.3478

> <Mpro-x1187_dock>
-2.232535

> <Mpro-x0731_dock>
-2.102287

> <Mpro-x0540_dock>
-2.071191

> <Mpro-x1380_dock>
-2.030712

> <Mpro-x0708_dock>
-1.938151

> <Mpro-x1374_dock>
-1.924908

> <Mpro-x1348_dock>
-1.715676

> <Mpro-x0887_dock>
-1.577397

> <Mpro-x1375_dock>
-1.567508

> <Mpro-x1493_dock>
-1.431856

> <Mpro-x0774_dock>
-1.204402

> <Mpro-x1412_dock>
-1.168401

> <Mpro-x1358_dock>
-1.056755

> <Mpro-x0691_dock>
-1.03366

> <Mpro-x1351_dock>
-0.988186

> <Mpro-x1308_dock>
-0.723893

> <Mpro-x0771_dock>
-0.672939

> <Mpro-x1402_dock>
-0.604602

> <Mpro-x0978_dock>
-0.467455

> <Mpro-x1425_dock>
-0.413024

> <Mpro-x0769_dock>
-0.399353

> <Mpro-x0689_dock>
-0.399202

> <Mpro-x0755_dock>
-0.362096

> <Mpro-x0820_dock>
-0.341888

> <Mpro-x1382_dock>
-0.28823

> <Mpro-x0734_dock>
-0.18763

> <Mpro-x1384_dock>
0.260269

> <Mpro-x0705_dock>
0.380556

> <Mpro-x0786_dock>
1.003721

> <site>
active-noncovalent

$$$$
JON-UIO-066-3
  -OEChem-04022003013D

 35 36  0     0  0  0  0  0  0999 V2000
    5.2205    0.7822   20.3387 C   0  0  0  0  0  0  0  0  0  0  0  0
    4.8311    1.1907   19.0680 C   0  0  0  0  0  0  0  0  0  0  0  0
    6.4628    0.1848   20.5206 C   0  0  0  0  0  0  0  0  0  0  0  0
    5.7134    0.9809   18.0205 C   0  0  0  0  0  0  0  0  0  0  0  0
    7.2720    0.0198   19.4081 C   0  0  0  0  0  0  0  0  0  0  0  0
    8.7582   -4.5935   24.6719 C   0  0  0  0  0  0  0  0  0  0  0  0
    9.2144   -0.3618   20.9295 C   0  0  0  0  0  0  0  0  0  0  0  0
    7.6665   -3.1693   22.9720 C   0  0  0  0  0  0  0  0  0  0  0  0
    9.8752   -2.4663   23.8926 C   0  0  0  0  0  0  0  0  0  0  0  0
    8.1429   -2.5240   21.6754 C   0  0  0  0  0  0  0  0  0  0  0  0
    9.4769   -1.1367   23.2617 C   0  0  0  0  0  0  0  0  0  0  0  0
    9.9444   -4.7968   25.5828 C   0  0  0  0  0  0  0  0  0  0  0  0
    8.6186   -0.6211   19.5672 C   0  0  0  0  0  0  0  0  0  0  0  0
    6.9282    0.4039   18.1583 N   0  0  0  0  0  0  0  0  0  0  0  0
    8.7815   -3.4453   23.8789 N   0  0  0  0  0  0  0  0  0  0  0  0
    8.9460   -1.3181   21.9100 N   0  0  0  0  0  0  0  0  0  0  0  0
    7.8430   -5.4200   24.6683 O   0  0  0  0  0  0  0  0  0  0  0  0
    9.8879    0.6538   21.1178 O   0  0  0  0  0  0  0  0  0  0  0  0
    4.5570    0.9292   21.1856 H   0  0  0  0  0  0  0  0  0  0  0  0
    3.8674    1.6586   18.9028 H   0  0  0  0  0  0  0  0  0  0  0  0
    6.7785   -0.1383   21.5068 H   0  0  0  0  0  0  0  0  0  0  0  0
    5.4572    1.2816   17.0100 H   0  0  0  0  0  0  0  0  0  0  0  0
    6.9744   -2.4962   23.5021 H   0  0  0  0  0  0  0  0  0  0  0  0
    7.0989   -4.0769   22.7341 H   0  0  0  0  0  0  0  0  0  0  0  0
   10.7597   -2.8704   23.3755 H   0  0  0  0  0  0  0  0  0  0  0  0
   10.1677   -2.3208   24.9461 H   0  0  0  0  0  0  0  0  0  0  0  0
    8.7717   -3.2271   21.1035 H   0  0  0  0  0  0  0  0  0  0  0  0
    7.2754   -2.2907   21.0382 H   0  0  0  0  0  0  0  0  0  0  0  0
    8.7601   -0.6281   23.9176 H   0  0  0  0  0  0  0  0  0  0  0  0
   10.3532   -0.4744   23.1812 H   0  0  0  0  0  0  0  0  0  0  0  0
    9.7437   -4.3231   26.5380 H   0  0  0  0  0  0  0  0  0  0  0  0
   10.8234   -4.3530   25.1262 H   0  0  0  0  0  0  0  0  0  0  0  0
   10.1063   -5.8607   25.7230 H   0  0  0  0  0  0  0  0  0  0  0  0
    8.5418   -1.6999   19.4209 H   0  0  0  0  0  0  0  0  0  0  0  0
    9.3142   -0.2533   18.8113 H   0  0  0  0  0  0  0  0  0  0  0  0
  1  2  1  0  0  0  0
  1  3  2  0  0  0  0
  2  4  2  0  0  0  0
  3  5  1  0  0  0  0
  4 14  1  0  0  0  0
  5 13  1  0  0  0  0
  5 14  2  0  0  0  0
  6 12  1  0  0  0  0
  6 15  1  0  0  0  0
  6 17  2  0  0  0  0
  7 13  1  0  0  0  0
  7 16  1  0  0  0  0
  7 18  2  0  0  0  0
  8 10  1  0  0  0  0
  8 15  1  0  0  0  0
  9 11  1  0  0  0  0
  9 15  1  0  0  0  0
 10 16  1  0  0  0  0
 11 16  1  0  0  0  0
  1 19  1  0  0  0  0
  2 20  1  0  0  0  0
  3 21  1  0  0  0  0
  4 22  1  0  0  0  0
  8 23  1  0  0  0  0
  8 24  1  0  0  0  0
  9 25  1  0  0  0  0
  9 26  1  0  0  0  0
 10 27  1  0  0  0  0
 10 28  1  0  0  0  0
 11 29  1  0  0  0  0
 11 30  1  0  0  0  0
 12 31  1  0  0  0  0
 12 32  1  0  0  0  0
 12 33  1  0  0  0  0
 13 34  1  0  0  0  0
 13 35  1  0  0  0  0
M  END
> <Hybrid2>
-9.234826

> <fragments>
x0107

> <Mpro-x0107_dock>
-9.234826

> <Mpro-x0072_dock>
-8.521597

> <Mpro-x0678_dock>
-8.4296

> <Mpro-x0397_dock>
-8.049828

> <Mpro-x0749_dock>
-7.881046

> <Mpro-x0830_dock>
-7.79626

> <Mpro-x1385_dock>
-7.262818

> <Mpro-x0434_dock>
-7.070398

> <Mpro-x1386_dock>
-6.880892

> <Mpro-x0161_dock>
-6.745624

> <Mpro-x1392_dock>
-6.659571

> <Mpro-x0831_dock>
-6.622123

> <Mpro-x0104_dock>
-6.598097

> <Mpro-x1093_dock>
-6.594359

> <Mpro-x1418_dock>
-6.33696

> <Mpro-x1077_dock>
-6.256313

> <Mpro-x0195_dock>
-6.053505

> <Mpro-x1334_dock>
-5.921881

> <Mpro-x1412_dock>
-5.862074

> <Mpro-x0759_dock>
-5.758884

> <Mpro-x0395_dock>
-5.745713

> <Mpro-x0946_dock>
-5.696835

> <Mpro-x0692_dock>
-5.61348

> <Mpro-x0874_dock>
-5.612278

> <Mpro-x1311_dock>
-5.545554

> <Mpro-x0820_dock>
-5.4355

> <Mpro-x0770_dock>
-5.431951

> <Mpro-x0734_dock>
-5.334849

> <Mpro-x1493_dock>
-5.316745

> <Mpro-x0387_dock>
-5.100296

> <Mpro-x0967_dock>
-5.049916

> <Mpro-x1458_dock>
-5.022428

> <Mpro-x1375_dock>
-4.763597

> <Mpro-x0736_dock>
-4.737181

> <Mpro-x0774_dock>
-4.628757

> <Mpro-x1249_dock>
-4.470415

> <Mpro-x0708_dock>
-4.367576

> <Mpro-x1382_dock>
-4.324941

> <Mpro-x1348_dock>
-4.157712

> <Mpro-x1380_dock>
-4.134117

> <Mpro-x0305_dock>
-3.894559

> <Mpro-x1374_dock>
-3.766925

> <Mpro-x1478_dock>
-3.683953

> <Mpro-x0354_dock>
-3.668854

> <Mpro-x1187_dock>
-3.229169

> <Mpro-x0771_dock>
-2.947026

> <Mpro-x1402_dock>
-2.823022

> <Mpro-x0769_dock>
-2.747786

> <Mpro-x0540_dock>
-2.71763

> <Mpro-x1358_dock>
-2.676493

> <Mpro-x1384_dock>
-2.473234

> <Mpro-x0691_dock>
-2.334638

> <Mpro-x1308_dock>
-2.20569

> <Mpro-x1351_dock>
-2.198397

> <Mpro-x0755_dock>
-2.190317

> <Mpro-x0752_dock>
-1.99782

> <Mpro-x0731_dock>
-1.97739

> <Mpro-x0786_dock>
-1.974233

> <Mpro-x0689_dock>
-1.967718

> <Mpro-x1425_dock>
-1.738678

> <Mpro-x0978_dock>
-1.440788

> <Mpro-x0426_dock>
-1.366929

> <Mpro-x0887_dock>
-1.227437

> <Mpro-x0705_dock>
-1.225889

> <Mpro-x0981_dock>
-0.430216

> <site>
active-noncovalent

$$$$
WAR-XCH-b72-20
  -OEChem-04022003013D

 54 56  0     0  0  0  0  0  0999 V2000
    9.0805   -1.2653   24.4223 C   0  0  0  0  0  0  0  0  0  0  0  0
   10.0714   -2.0296   22.3557 C   0  0  0  0  0  0  0  0  0  0  0  0
    8.1936   -2.3415   24.3951 C   0  0  0  0  0  0  0  0  0  0  0  0
    9.1844   -3.1059   22.3284 C   0  0  0  0  0  0  0  0  0  0  0  0
   10.0194   -1.1094   23.4026 C   0  0  0  0  0  0  0  0  0  0  0  0
    8.2455   -3.2618   23.3482 C   0  0  0  0  0  0  0  0  0  0  0  0
   10.2285    7.8314   24.7270 C   0  0  0  0  0  0  0  0  0  0  0  0
   11.0535    6.9046   25.6096 C   0  0  0  0  0  0  0  0  0  0  0  0
    9.0532    7.1231   24.0573 C   0  0  0  0  0  0  0  0  0  0  0  0
   12.0345    5.9802   24.8926 C   0  0  0  0  0  0  0  0  0  0  0  0
   10.5957    1.8585   24.9454 C   0  0  0  0  0  0  0  0  0  0  0  0
   10.3148    2.1177   22.4425 C   0  0  0  0  0  0  0  0  0  0  0  0
   11.3659    0.5637   24.6834 C   0  0  0  0  0  0  0  0  0  0  0  0
   11.0905    0.8107   22.2463 C   0  0  0  0  0  0  0  0  0  0  0  0
    9.4122    6.2902   22.8379 C   0  0  0  0  0  0  0  0  0  0  0  0
   11.7882    5.6496   23.4283 C   0  0  0  0  0  0  0  0  0  0  0  0
   10.7164    2.8210   23.7508 C   0  0  0  0  0  0  0  0  0  0  0  0
    9.8719    4.0730   23.9754 C   0  0  0  0  0  0  0  0  0  0  0  0
   10.9042   -0.0363   23.4292 N   0  0  0  0  0  0  0  0  0  0  0  0
    5.8321   -3.9339   22.4379 N   0  0  0  0  0  0  0  0  0  0  0  0
   10.3950    5.1842   23.1104 N   0  3  0  0  0  0  0  0  0  0  0  0
    7.7314   -5.6750   22.5202 O   0  0  0  0  0  0  0  0  0  0  0  0
    6.6935   -4.8799   24.6739 O   0  0  0  0  0  0  0  0  0  0  0  0
    7.1353   -4.6088   23.3130 S   0  0  0  0  0  0  0  0  0  0  0  0
    9.0310   -0.5540   25.2428 H   0  0  0  0  0  0  0  0  0  0  0  0
   10.7998   -1.9181   21.5564 H   0  0  0  0  0  0  0  0  0  0  0  0
    7.4663   -2.4530   25.1947 H   0  0  0  0  0  0  0  0  0  0  0  0
    9.2338   -3.8167   21.5078 H   0  0  0  0  0  0  0  0  0  0  0  0
    9.8581    8.6668   25.3137 H   0  0  0  0  0  0  0  0  0  0  0  0
   10.8684    8.2365   23.9479 H   0  0  0  0  0  0  0  0  0  0  0  0
   11.5722    7.4832   26.4099 H   0  0  0  0  0  0  0  0  0  0  0  0
   10.3355    6.2601   26.1663 H   0  0  0  0  0  0  0  0  0  0  0  0
    8.5927    6.4633   24.8018 H   0  0  0  0  0  0  0  0  0  0  0  0
    8.2854    7.8599   23.7944 H   0  0  0  0  0  0  0  0  0  0  0  0
   13.0441    6.4374   24.9556 H   0  0  0  0  0  0  0  0  0  0  0  0
   12.1369    5.0354   25.4678 H   0  0  0  0  0  0  0  0  0  0  0  0
    9.5439    1.6246   25.1338 H   0  0  0  0  0  0  0  0  0  0  0  0
   10.9882    2.3357   25.8466 H   0  0  0  0  0  0  0  0  0  0  0  0
   10.5064    2.7798   21.5909 H   0  0  0  0  0  0  0  0  0  0  0  0
    9.2390    1.9043   22.4442 H   0  0  0  0  0  0  0  0  0  0  0  0
   12.4376    0.7739   24.6257 H   0  0  0  0  0  0  0  0  0  0  0  0
   11.1974   -0.1201   25.5195 H   0  0  0  0  0  0  0  0  0  0  0  0
   10.7124    0.3109   21.3539 H   0  0  0  0  0  0  0  0  0  0  0  0
   12.1499    1.0260   22.1014 H   0  0  0  0  0  0  0  0  0  0  0  0
    8.5180    5.8474   22.3360 H   0  0  0  0  0  0  0  0  0  0  0  0
    9.8753    6.9639   22.0799 H   0  0  0  0  0  0  0  0  0  0  0  0
   11.9558    6.5438   22.8105 H   0  0  0  0  0  0  0  0  0  0  0  0
   12.4885    4.8701   23.0940 H   0  0  0  0  0  0  0  0  0  0  0  0
   11.7680    3.1448   23.6665 H   0  0  0  0  0  0  0  0  0  0  0  0
    9.9282    4.4185   25.0113 H   0  0  0  0  0  0  0  0  0  0  0  0
    8.8274    3.9119   23.6946 H   0  0  0  0  0  0  0  0  0  0  0  0
    5.6749   -4.2628   21.4774 H   0  0  0  0  0  0  0  0  0  0  0  0
    4.9679   -3.7187   22.9497 H   0  0  0  0  0  0  0  0  0  0  0  0
   10.5092    4.6999   22.1399 H   0  0  0  0  0  0  0  0  0  0  0  0
  1  3  2  0  0  0  0
  1  5  1  0  0  0  0
  2  4  1  0  0  0  0
  2  5  2  0  0  0  0
  3  6  1  0  0  0  0
  4  6  2  0  0  0  0
  5 19  1  0  0  0  0
  6 24  1  0  0  0  0
  7  8  1  0  0  0  0
  7  9  1  0  0  0  0
  8 10  1  0  0  0  0
  9 15  1  0  0  0  0
 10 16  1  0  0  0  0
 11 13  1  0  0  0  0
 11 17  1  0  0  0  0
 12 14  1  0  0  0  0
 12 17  1  0  0  0  0
 13 19  1  0  0  0  0
 14 19  1  0  0  0  0
 15 21  1  0  0  0  0
 16 21  1  0  0  0  0
 17 18  1  0  0  0  0
 18 21  1  0  0  0  0
 20 24  1  0  0  0  0
 22 24  2  0  0  0  0
 23 24  2  0  0  0  0
  1 25  1  0  0  0  0
  2 26  1  0  0  0  0
  3 27  1  0  0  0  0
  4 28  1  0  0  0  0
  7 29  1  0  0  0  0
  7 30  1  0  0  0  0
  8 31  1  0  0  0  0
  8 32  1  0  0  0  0
  9 33  1  0  0  0  0
  9 34  1  0  0  0  0
 10 35  1  0  0  0  0
 10 36  1  0  0  0  0
 11 37  1  0  0  0  0
 11 38  1  0  0  0  0
 12 39  1  0  0  0  0
 12 40  1  0  0  0  0
 13 41  1  0  0  0  0
 13 42  1  0  0  0  0
 14 43  1  0  0  0  0
 14 44  1  0  0  0  0
 15 45  1  0  0  0  0
 15 46  1  0  0  0  0
 16 47  1  0  0  0  0
 16 48  1  0  0  0  0
 17 49  1  0  0  0  0
 18 50  1  0  0  0  0
 18 51  1  0  0  0  0
 20 52  1  0  0  0  0
 20 53  1  0  0  0  0
 21 54  1  0  0  0  0
M  CHG  1  21   1
M  END
> <Hybrid2>
-9.220327

> <fragments>
x0104

> <Mpro-x0104_dock>
-9.220327

> <Mpro-x0072_dock>
-7.491733

> <Mpro-x1077_dock>
-6.637186

> <Mpro-x0874_dock>
-6.498322

> <Mpro-x0161_dock>
-6.329311

> <Mpro-x0195_dock>
-6.159018

> <Mpro-x0387_dock>
-6.126074

> <Mpro-x1093_dock>
-5.576196

> <Mpro-x0395_dock>
-5.508152

> <Mpro-x0434_dock>
-5.133474

> <Mpro-x1311_dock>
-4.759848

> <Mpro-x0946_dock>
-4.654975

> <Mpro-x0107_dock>
-3.916405

> <Mpro-x1392_dock>
-3.885499

> <Mpro-x0397_dock>
-3.650214

> <Mpro-x0305_dock>
-3.640011

> <Mpro-x0830_dock>
-3.548752

> <Mpro-x1187_dock>
-3.031755

> <Mpro-x0967_dock>
-2.302499

> <Mpro-x1374_dock>
-2.280182

> <Mpro-x0749_dock>
-2.26054

> <Mpro-x0354_dock>
-2.175784

> <Mpro-x0678_dock>
-1.89806

> <Mpro-x1334_dock>
-1.789889

> <Mpro-x1249_dock>
-1.747204

> <Mpro-x1375_dock>
-1.602531

> <Mpro-x0831_dock>
-1.580153

> <Mpro-x0978_dock>
-1.531245

> <Mpro-x0692_dock>
-1.353798

> <Mpro-x1493_dock>
-0.615455

> <Mpro-x1385_dock>
-0.589422

> <Mpro-x1380_dock>
-0.498657

> <Mpro-x1358_dock>
-0.097447

> <Mpro-x1478_dock>
0.073365

> <Mpro-x0540_dock>
0.077663

> <Mpro-x1412_dock>
0.127642

> <Mpro-x1351_dock>
0.194253

> <Mpro-x0759_dock>
0.427438

> <Mpro-x1348_dock>
0.639346

> <Mpro-x0887_dock>
0.7049

> <Mpro-x0708_dock>
0.931591

> <Mpro-x0752_dock>
0.940012

> <Mpro-x0771_dock>
0.946671

> <Mpro-x0736_dock>
1.087373

> <Mpro-x1458_dock>
1.132752

> <Mpro-x0426_dock>
1.265764

> <Mpro-x1384_dock>
1.294626

> <Mpro-x0734_dock>
1.336326

> <Mpro-x0691_dock>
1.866982

> <Mpro-x1308_dock>
1.900935

> <Mpro-x1425_dock>
2.083556

> <Mpro-x1418_dock>
2.09487

> <Mpro-x0769_dock>
2.191711

> <Mpro-x1386_dock>
2.329549

> <Mpro-x0755_dock>
2.335011

> <Mpro-x0705_dock>
2.343924

> <Mpro-x0689_dock>
2.344934

> <Mpro-x0770_dock>
2.35093

> <Mpro-x0820_dock>
2.352197

> <Mpro-x0731_dock>
2.517708

> <Mpro-x0774_dock>
2.606711

> <Mpro-x1402_dock>
3.066723

> <Mpro-x0786_dock>
3.166952

> <Mpro-x0981_dock>
3.418421

> <Mpro-x1382_dock>
4.040286

> <site>
active-noncovalent

$$$$
BAR-COM-4e0-52
  -OEChem-04022003013D

 37 38  0     0  0  0  0  0  0999 V2000
    6.0644    0.5954   17.2907 C   0  0  0  0  0  0  0  0  0  0  0  0
    7.1731   -0.0138   17.8677 C   0  0  0  0  0  0  0  0  0  0  0  0
    5.0573    1.1054   18.1024 C   0  0  0  0  0  0  0  0  0  0  0  0
   12.9790   -1.7024   23.1375 C   0  0  0  0  0  0  0  0  0  0  0  0
   13.1906    0.4155   23.1425 C   0  0  0  0  0  0  0  0  0  0  0  0
   11.7222   -1.2069   22.8817 C   0  0  0  0  0  0  0  0  0  0  0  0
    7.2266   -0.0873   19.2502 C   0  0  0  0  0  0  0  0  0  0  0  0
    5.2054    0.9816   19.4745 C   0  0  0  0  0  0  0  0  0  0  0  0
    8.6332   -0.8999   21.1846 C   0  0  0  0  0  0  0  0  0  0  0  0
   10.8438    1.1391   22.6688 C   0  0  0  0  0  0  0  0  0  0  0  0
   10.4100   -1.8937   22.6352 C   0  0  0  0  0  0  0  0  0  0  0  0
    4.4265    1.3226   21.6955 C   0  0  0  0  0  0  0  0  0  0  0  0
    3.2432    1.8883   22.4454 C   0  0  0  0  0  0  0  0  0  0  0  0
   13.8884   -0.6874   23.2992 N   0  0  0  0  0  0  0  0  0  0  0  0
    6.2678    0.3964   20.0715 N   0  0  0  0  0  0  0  0  0  0  0  0
   11.8735    0.1511   22.8884 N   0  0  0  0  0  0  0  0  0  0  0  0
    8.3470   -0.7022   19.8217 N   0  0  0  0  0  0  0  0  0  0  0  0
    9.8577   -1.5568   21.3433 N   0  0  0  0  0  0  0  0  0  0  0  0
    7.9280   -0.5564   22.1302 O   0  0  0  0  0  0  0  0  0  0  0  0
    4.2255    1.4754   20.2955 O   0  0  0  0  0  0  0  0  0  0  0  0
    3.2176    1.3944   23.7075 F   0  0  0  0  0  0  0  0  0  0  0  0
    3.3614    3.2347   22.5474 F   0  0  0  0  0  0  0  0  0  0  0  0
    5.9851    0.6727   16.2105 H   0  0  0  0  0  0  0  0  0  0  0  0
    7.9635   -0.4143   17.2414 H   0  0  0  0  0  0  0  0  0  0  0  0
    4.1862    1.5833   17.6678 H   0  0  0  0  0  0  0  0  0  0  0  0
   13.2776   -2.7380   23.2141 H   0  0  0  0  0  0  0  0  0  0  0  0
   13.5801    1.4227   23.2014 H   0  0  0  0  0  0  0  0  0  0  0  0
   10.8037    1.3521   21.5973 H   0  0  0  0  0  0  0  0  0  0  0  0
    9.8838    0.7481   23.0172 H   0  0  0  0  0  0  0  0  0  0  0  0
   11.0867    2.0452   23.2310 H   0  0  0  0  0  0  0  0  0  0  0  0
   10.5299   -2.9818   22.6774 H   0  0  0  0  0  0  0  0  0  0  0  0
    9.6730   -1.6179   23.3967 H   0  0  0  0  0  0  0  0  0  0  0  0
    5.3498    1.8426   21.9662 H   0  0  0  0  0  0  0  0  0  0  0  0
    4.5394    0.2548   21.9013 H   0  0  0  0  0  0  0  0  0  0  0  0
    2.2950    1.6532   21.9546 H   0  0  0  0  0  0  0  0  0  0  0  0
    9.0534   -1.0570   19.1719 H   0  0  0  0  0  0  0  0  0  0  0  0
   10.3830   -1.8086   20.5120 H   0  0  0  0  0  0  0  0  0  0  0  0
  1  2  2  0  0  0  0
  1  3  1  0  0  0  0
  2  7  1  0  0  0  0
  3  8  2  0  0  0  0
  4  6  2  0  0  0  0
  4 14  1  0  0  0  0
  5 14  2  0  0  0  0
  5 16  1  0  0  0  0
  6 11  1  0  0  0  0
  6 16  1  0  0  0  0
  7 15  2  0  0  0  0
  7 17  1  0  0  0  0
  8 15  1  0  0  0  0
  8 20  1  0  0  0  0
  9 17  1  0  0  0  0
  9 18  1  0  0  0  0
  9 19  2  0  0  0  0
 10 16  1  0  0  0  0
 11 18  1  0  0  0  0
 12 13  1  0  0  0  0
 12 20  1  0  0  0  0
 13 21  1  0  0  0  0
 13 22  1  0  0  0  0
  1 23  1  0  0  0  0
  2 24  1  0  0  0  0
  3 25  1  0  0  0  0
  4 26  1  0  0  0  0
  5 27  1  0  0  0  0
 10 28  1  0  0  0  0
 10 29  1  0  0  0  0
 10 30  1  0  0  0  0
 11 31  1  0  0  0  0
 11 32  1  0  0  0  0
 12 33  1  0  0  0  0
 12 34  1  0  0  0  0
 13 35  1  0  0  0  0
 17 36  1  0  0  0  0
 18 37  1  0  0  0  0
M  END
> <Hybrid2>
-9.207413

> <fragments>
x1093

> <Mpro-x1093_dock>
-9.207413

> <Mpro-x0678_dock>
-8.556589

> <Mpro-x0195_dock>
-7.793683

> <Mpro-x0161_dock>
-7.473745

> <Mpro-x0830_dock>
-6.716571

> <Mpro-x0434_dock>
-6.468292

> <Mpro-x0107_dock>
-6.298507

> <Mpro-x0946_dock>
-6.143373

> <Mpro-x0967_dock>
-6.046201

> <Mpro-x1077_dock>
-5.90642

> <Mpro-x0831_dock>
-5.900743

> <Mpro-x0104_dock>
-5.534327

> <Mpro-x0397_dock>
-5.523947

> <Mpro-x0749_dock>
-5.302862

> <Mpro-x1392_dock>
-4.512412

> <Mpro-x0072_dock>
-4.31647

> <Mpro-x0708_dock>
-4.16678

> <Mpro-x0874_dock>
-3.992993

> <Mpro-x1334_dock>
-3.905349

> <Mpro-x0426_dock>
-3.636687

> <Mpro-x1385_dock>
-3.625941

> <Mpro-x1249_dock>
-3.621725

> <Mpro-x0395_dock>
-3.592075

> <Mpro-x0692_dock>
-3.587996

> <Mpro-x0387_dock>
-3.576588

> <Mpro-x0305_dock>
-3.466937

> <Mpro-x1187_dock>
-3.315236

> <Mpro-x1418_dock>
-3.186466

> <Mpro-x0354_dock>
-3.093984

> <Mpro-x1412_dock>
-2.838552

> <Mpro-x0981_dock>
-2.734152

> <Mpro-x0774_dock>
-2.562216

> <Mpro-x0759_dock>
-2.328098

> <Mpro-x1311_dock>
-2.212572

> <Mpro-x1358_dock>
-2.103934

> <Mpro-x1386_dock>
-2.078215

> <Mpro-x1384_dock>
-2.059564

> <Mpro-x1375_dock>
-1.977629

> <Mpro-x0540_dock>
-1.96534

> <Mpro-x0770_dock>
-1.779862

> <Mpro-x1382_dock>
-1.657892

> <Mpro-x1374_dock>
-1.224344

> <Mpro-x1348_dock>
-1.209051

> <Mpro-x0887_dock>
-1.078754

> <Mpro-x1380_dock>
-0.991589

> <Mpro-x1458_dock>
-0.851525

> <Mpro-x1478_dock>
-0.73715

> <Mpro-x1425_dock>
-0.726914

> <Mpro-x0769_dock>
-0.636465

> <Mpro-x0820_dock>
-0.594481

> <Mpro-x0755_dock>
-0.479066

> <Mpro-x1402_dock>
-0.440938

> <Mpro-x1493_dock>
-0.331547

> <Mpro-x0786_dock>
-0.260241

> <Mpro-x0731_dock>
-0.255814

> <Mpro-x0689_dock>
-0.199596

> <Mpro-x1351_dock>
-0.198302

> <Mpro-x0771_dock>
-0.159411

> <Mpro-x0691_dock>
-0.005971

> <Mpro-x1308_dock>
0.030938

> <Mpro-x0736_dock>
0.081068

> <Mpro-x0705_dock>
0.223538

> <Mpro-x0978_dock>
0.489558

> <Mpro-x0734_dock>
1.031504

> <Mpro-x0752_dock>
1.514276

> <site>
active-noncovalent

$$$$
BAR-COM-4e0-22
  -OEChem-04022003013D

 38 40  0     0  0  0  0  0  0999 V2000
   13.5587   -0.5307   21.9378 C   0  0  0  0  0  0  0  0  0  0  0  0
   12.7746   -1.6336   22.2521 C   0  0  0  0  0  0  0  0  0  0  0  0
   13.1370    0.7416   22.3132 C   0  0  0  0  0  0  0  0  0  0  0  0
   11.5711   -1.4621   22.9407 C   0  0  0  0  0  0  0  0  0  0  0  0
   10.2782    2.3199   24.0787 C   0  0  0  0  0  0  0  0  0  0  0  0
    6.9236    5.1618   22.6969 C   0  0  0  0  0  0  0  0  0  0  0  0
    7.2090    5.7832   21.5040 C   0  0  0  0  0  0  0  0  0  0  0  0
   11.9265    0.9138   23.0059 C   0  0  0  0  0  0  0  0  0  0  0  0
   11.4781    2.1831   23.3957 C   0  0  0  0  0  0  0  0  0  0  0  0
   11.1253   -0.2015   23.3284 C   0  0  0  0  0  0  0  0  0  0  0  0
    9.5634    1.1708   24.3494 C   0  0  0  0  0  0  0  0  0  0  0  0
    8.8324    6.0638   22.9678 C   0  0  0  0  0  0  0  0  0  0  0  0
   11.0593    5.4240   23.9722 C   0  0  0  0  0  0  0  0  0  0  0  0
    7.6778    0.0560   25.2754 C   0  0  0  0  0  0  0  0  0  0  0  0
   12.2543    3.4282   23.1012 C   0  0  0  0  0  0  0  0  0  0  0  0
   10.1522    6.5472   23.5077 C   0  0  0  0  0  0  0  0  0  0  0  0
    7.9379    5.3404   23.6040 N   0  0  0  0  0  0  0  0  0  0  0  0
    9.9604   -0.0718   23.9911 N   0  0  0  0  0  0  0  0  0  0  0  0
    8.4347    6.3570   21.6930 N   0  0  0  0  0  0  0  0  0  0  0  0
   11.3991    4.5723   22.9270 N   0  0  0  0  0  0  0  0  0  0  0  0
   11.4421    5.2976   25.1325 O   0  0  0  0  0  0  0  0  0  0  0  0
    8.3739    1.2706   25.0222 O   0  0  0  0  0  0  0  0  0  0  0  0
   14.4946   -0.6601   21.4028 H   0  0  0  0  0  0  0  0  0  0  0  0
   13.0962   -2.6299   21.9627 H   0  0  0  0  0  0  0  0  0  0  0  0
   13.7696    1.5873   22.0550 H   0  0  0  0  0  0  0  0  0  0  0  0
   10.9744   -2.3417   23.1751 H   0  0  0  0  0  0  0  0  0  0  0  0
    9.9130    3.2930   24.3904 H   0  0  0  0  0  0  0  0  0  0  0  0
    6.0387    4.5962   22.9491 H   0  0  0  0  0  0  0  0  0  0  0  0
    6.6724    5.8669   20.5703 H   0  0  0  0  0  0  0  0  0  0  0  0
    6.7519    0.2713   25.8143 H   0  0  0  0  0  0  0  0  0  0  0  0
    8.3099   -0.6107   25.8674 H   0  0  0  0  0  0  0  0  0  0  0  0
    7.4393   -0.4223   24.3224 H   0  0  0  0  0  0  0  0  0  0  0  0
   12.9533    3.6551   23.9159 H   0  0  0  0  0  0  0  0  0  0  0  0
   12.8508    3.3184   22.1873 H   0  0  0  0  0  0  0  0  0  0  0  0
   10.6746    7.1275   22.7364 H   0  0  0  0  0  0  0  0  0  0  0  0
    9.9807    7.2300   24.3494 H   0  0  0  0  0  0  0  0  0  0  0  0
    8.9529    6.8968   21.0124 H   0  0  0  0  0  0  0  0  0  0  0  0
   11.0271    4.7664   21.9992 H   0  0  0  0  0  0  0  0  0  0  0  0
  1  2  1  0  0  0  0
  1  3  2  0  0  0  0
  2  4  2  0  0  0  0
  3  8  1  0  0  0  0
  4 10  1  0  0  0  0
  5  9  2  0  0  0  0
  5 11  1  0  0  0  0
  6  7  2  0  0  0  0
  6 17  1  0  0  0  0
  7 19  1  0  0  0  0
  8  9  1  0  0  0  0
  8 10  2  0  0  0  0
  9 15  1  0  0  0  0
 10 18  1  0  0  0  0
 11 18  2  0  0  0  0
 11 22  1  0  0  0  0
 12 16  1  0  0  0  0
 12 17  2  0  0  0  0
 12 19  1  0  0  0  0
 13 16  1  0  0  0  0
 13 20  1  0  0  0  0
 13 21  2  0  0  0  0
 14 22  1  0  0  0  0
 15 20  1  0  0  0  0
  1 23  1  0  0  0  0
  2 24  1  0  0  0  0
  3 25  1  0  0  0  0
  4 26  1  0  0  0  0
  5 27  1  0  0  0  0
  6 28  1  0  0  0  0
  7 29  1  0  0  0  0
 14 30  1  0  0  0  0
 14 31  1  0  0  0  0
 14 32  1  0  0  0  0
 15 33  1  0  0  0  0
 15 34  1  0  0  0  0
 16 35  1  0  0  0  0
 16 36  1  0  0  0  0
 19 37  1  0  0  0  0
 20 38  1  0  0  0  0
M  END
> <Hybrid2>
-9.205212

> <fragments>
x0104

> <Mpro-x0104_dock>
-9.205212

> <Mpro-x0195_dock>
-8.196181

> <Mpro-x0946_dock>
-7.803269

> <Mpro-x0678_dock>
-7.047707

> <Mpro-x0072_dock>
-7.027467

> <Mpro-x0830_dock>
-6.864415

> <Mpro-x1093_dock>
-6.747081

> <Mpro-x0397_dock>
-6.547242

> <Mpro-x1334_dock>
-6.508904

> <Mpro-x0161_dock>
-6.21459

> <Mpro-x0874_dock>
-6.178927

> <Mpro-x1077_dock>
-6.128969

> <Mpro-x0749_dock>
-6.072173

> <Mpro-x1311_dock>
-5.852604

> <Mpro-x0434_dock>
-5.681998

> <Mpro-x0831_dock>
-5.672347

> <Mpro-x1385_dock>
-5.618522

> <Mpro-x1375_dock>
-5.492392

> <Mpro-x0107_dock>
-5.10835

> <Mpro-x0967_dock>
-4.739453

> <Mpro-x1412_dock>
-4.678245

> <Mpro-x0820_dock>
-4.659495

> <Mpro-x1386_dock>
-4.589088

> <Mpro-x0770_dock>
-4.548888

> <Mpro-x1392_dock>
-4.528131

> <Mpro-x1249_dock>
-4.43341

> <Mpro-x1374_dock>
-4.382583

> <Mpro-x0540_dock>
-4.373915

> <Mpro-x1418_dock>
-4.337836

> <Mpro-x1458_dock>
-4.281894

> <Mpro-x0387_dock>
-4.104285

> <Mpro-x0774_dock>
-4.018719

> <Mpro-x1348_dock>
-4.007515

> <Mpro-x1478_dock>
-3.9859

> <Mpro-x0734_dock>
-3.865096

> <Mpro-x0736_dock>
-3.835296

> <Mpro-x0395_dock>
-3.756059

> <Mpro-x1493_dock>
-3.368938

> <Mpro-x0692_dock>
-3.354058

> <Mpro-x0305_dock>
-3.288174

> <Mpro-x0354_dock>
-3.034942

> <Mpro-x0759_dock>
-2.880193

> <Mpro-x1187_dock>
-2.873277

> <Mpro-x0708_dock>
-2.839747

> <Mpro-x0689_dock>
-2.771027

> <Mpro-x0426_dock>
-2.719453

> <Mpro-x0752_dock>
-2.35897

> <Mpro-x1380_dock>
-2.305522

> <Mpro-x1358_dock>
-2.132585

> <Mpro-x0755_dock>
-2.077839

> <Mpro-x1351_dock>
-1.881779

> <Mpro-x0771_dock>
-1.691502

> <Mpro-x0769_dock>
-1.675244

> <Mpro-x1384_dock>
-1.603971

> <Mpro-x1308_dock>
-1.454869

> <Mpro-x1402_dock>
-1.446367

> <Mpro-x0978_dock>
-1.422379

> <Mpro-x1382_dock>
-1.389073

> <Mpro-x0786_dock>
-1.064816

> <Mpro-x0731_dock>
-0.944659

> <Mpro-x0691_dock>
-0.769484

> <Mpro-x1425_dock>
-0.636748

> <Mpro-x0887_dock>
-0.413478

> <Mpro-x0705_dock>
-0.314777

> <Mpro-x0981_dock>
0.739302

> <site>
active-noncovalent

$$$$
BAR-COM-4e0-5
  -OEChem-04022003013D

 45 47  0     0  0  0  0  0  0999 V2000
   13.7572   -1.9265   23.0179 C   0  0  0  0  0  0  0  0  0  0  0  0
   14.2781   -0.9207   23.8319 C   0  0  0  0  0  0  0  0  0  0  0  0
   12.3886   -1.9694   22.7517 C   0  0  0  0  0  0  0  0  0  0  0  0
   13.4305    0.0422   24.3797 C   0  0  0  0  0  0  0  0  0  0  0  0
    6.7949    1.6688   24.7967 C   0  0  0  0  0  0  0  0  0  0  0  0
    7.5547   -0.8295   18.6924 C   0  0  0  0  0  0  0  0  0  0  0  0
    7.7818    2.2864   24.0651 C   0  0  0  0  0  0  0  0  0  0  0  0
    6.5579    1.1248   18.0973 C   0  0  0  0  0  0  0  0  0  0  0  0
    8.4168    1.9436   26.1474 C   0  0  0  0  0  0  0  0  0  0  0  0
    6.9734   -0.7806   19.9431 C   0  0  0  0  0  0  0  0  0  0  0  0
   11.5410   -1.0065   23.2995 C   0  0  0  0  0  0  0  0  0  0  0  0
   12.0619   -0.0007   24.1135 C   0  0  0  0  0  0  0  0  0  0  0  0
    6.1648    0.3115   20.1832 C   0  0  0  0  0  0  0  0  0  0  0  0
    9.5312   -1.5585   21.8723 C   0  0  0  0  0  0  0  0  0  0  0  0
    7.2273   -1.8635   20.9515 C   0  0  0  0  0  0  0  0  0  0  0  0
   10.1069    3.0723   24.6517 C   0  0  0  0  0  0  0  0  0  0  0  0
   11.0416    2.1366   23.8971 C   0  0  0  0  0  0  0  0  0  0  0  0
    7.3680    0.1095   17.7418 N   0  0  0  0  0  0  0  0  0  0  0  0
    7.1963    1.4585   26.0921 N   0  0  0  0  0  0  0  0  0  0  0  0
    5.9342    1.2867   19.2799 N   0  0  0  0  0  0  0  0  0  0  0  0
    8.8143    2.4563   24.9439 N   0  0  0  0  0  0  0  0  0  0  0  0
    5.5402    0.4167   21.4505 N   0  0  0  0  0  0  0  0  0  0  0  0
   10.1727   -1.0631   23.0243 N   0  0  0  0  0  0  0  0  0  0  0  0
    8.1425   -1.4364   21.9847 N   0  0  0  0  0  0  0  0  0  0  0  0
   10.0855   -2.0389   20.8866 O   0  0  0  0  0  0  0  0  0  0  0  0
   11.2511    0.9497   24.6589 O   0  0  0  0  0  0  0  0  0  0  0  0
   14.4174   -2.6758   22.5911 H   0  0  0  0  0  0  0  0  0  0  0  0
   15.3438   -0.8869   24.0386 H   0  0  0  0  0  0  0  0  0  0  0  0
   11.9944   -2.7581   22.1157 H   0  0  0  0  0  0  0  0  0  0  0  0
   13.8432    0.8231   25.0128 H   0  0  0  0  0  0  0  0  0  0  0  0
    5.8157    1.3650   24.4564 H   0  0  0  0  0  0  0  0  0  0  0  0
    8.2080   -1.6469   18.4039 H   0  0  0  0  0  0  0  0  0  0  0  0
    7.8360    2.6074   23.0343 H   0  0  0  0  0  0  0  0  0  0  0  0
    6.3902    1.8934   17.3528 H   0  0  0  0  0  0  0  0  0  0  0  0
    9.0541    1.9518   27.0211 H   0  0  0  0  0  0  0  0  0  0  0  0
    6.2924   -2.1687   21.4341 H   0  0  0  0  0  0  0  0  0  0  0  0
    7.6524   -2.7529   20.4744 H   0  0  0  0  0  0  0  0  0  0  0  0
    9.9150    3.9867   24.0784 H   0  0  0  0  0  0  0  0  0  0  0  0
   10.5486    3.3637   25.6116 H   0  0  0  0  0  0  0  0  0  0  0  0
   10.5866    1.8476   22.9445 H   0  0  0  0  0  0  0  0  0  0  0  0
   12.0121    2.6029   23.6984 H   0  0  0  0  0  0  0  0  0  0  0  0
    5.6637   -0.3199   22.1108 H   0  0  0  0  0  0  0  0  0  0  0  0
    4.9169    1.1764   21.6184 H   0  0  0  0  0  0  0  0  0  0  0  0
    9.5436   -0.7004   23.7473 H   0  0  0  0  0  0  0  0  0  0  0  0
    7.7596   -1.0287   22.8318 H   0  0  0  0  0  0  0  0  0  0  0  0
  1  2  1  0  0  0  0
  1  3  2  0  0  0  0
  2  4  2  0  0  0  0
  3 11  1  0  0  0  0
  4 12  1  0  0  0  0
  5  7  2  0  0  0  0
  5 19  1  0  0  0  0
  6 10  1  0  0  0  0
  6 18  2  0  0  0  0
  7 21  1  0  0  0  0
  8 18  1  0  0  0  0
  8 20  2  0  0  0  0
  9 19  2  0  0  0  0
  9 21  1  0  0  0  0
 10 13  2  0  0  0  0
 10 15  1  0  0  0  0
 11 12  2  0  0  0  0
 11 23  1  0  0  0  0
 12 26  1  0  0  0  0
 13 20  1  0  0  0  0
 13 22  1  0  0  0  0
 14 23  1  0  0  0  0
 14 24  1  0  0  0  0
 14 25  2  0  0  0  0
 15 24  1  0  0  0  0
 16 17  1  0  0  0  0
 16 21  1  0  0  0  0
 17 26  1  0  0  0  0
  1 27  1  0  0  0  0
  2 28  1  0  0  0  0
  3 29  1  0  0  0  0
  4 30  1  0  0  0  0
  5 31  1  0  0  0  0
  6 32  1  0  0  0  0
  7 33  1  0  0  0  0
  8 34  1  0  0  0  0
  9 35  1  0  0  0  0
 15 36  1  0  0  0  0
 15 37  1  0  0  0  0
 16 38  1  0  0  0  0
 16 39  1  0  0  0  0
 17 40  1  0  0  0  0
 17 41  1  0  0  0  0
 22 42  1  0  0  0  0
 22 43  1  0  0  0  0
 23 44  1  0  0  0  0
 24 45  1  0  0  0  0
M  END
> <Hybrid2>
-9.143970

> <fragments>
x0678

> <Mpro-x0678_dock>
-9.14397

> <Mpro-x0072_dock>
-7.847221

> <Mpro-x0195_dock>
-7.590447

> <Mpro-x0397_dock>
-7.502943

> <Mpro-x0161_dock>
-6.68165

> <Mpro-x0107_dock>
-6.469414

> <Mpro-x1077_dock>
-6.35692

> <Mpro-x0104_dock>
-6.258132

> <Mpro-x0749_dock>
-6.157643

> <Mpro-x0946_dock>
-5.986134

> <Mpro-x0434_dock>
-5.674332

> <Mpro-x1385_dock>
-5.368697

> <Mpro-x0387_dock>
-5.061675

> <Mpro-x0874_dock>
-4.999181

> <Mpro-x0831_dock>
-4.889051

> <Mpro-x0395_dock>
-4.581025

> <Mpro-x0830_dock>
-4.3082

> <Mpro-x0692_dock>
-4.278192

> <Mpro-x1392_dock>
-4.135913

> <Mpro-x1093_dock>
-4.010424

> <Mpro-x1249_dock>
-3.857698

> <Mpro-x1334_dock>
-3.847224

> <Mpro-x1311_dock>
-3.71757

> <Mpro-x1412_dock>
-3.707943

> <Mpro-x1375_dock>
-3.638522

> <Mpro-x1348_dock>
-3.465364

> <Mpro-x0426_dock>
-3.305399

> <Mpro-x0354_dock>
-3.046124

> <Mpro-x0540_dock>
-3.04007

> <Mpro-x1374_dock>
-3.031723

> <Mpro-x1187_dock>
-2.715525

> <Mpro-x0967_dock>
-2.247738

> <Mpro-x0770_dock>
-2.038402

> <Mpro-x1358_dock>
-2.032724

> <Mpro-x0774_dock>
-1.929033

> <Mpro-x0305_dock>
-1.864633

> <Mpro-x0708_dock>
-1.811751

> <Mpro-x1493_dock>
-1.746922

> <Mpro-x1418_dock>
-1.726688

> <Mpro-x1380_dock>
-1.660464

> <Mpro-x1478_dock>
-1.183235

> <Mpro-x0731_dock>
-1.15767

> <Mpro-x0771_dock>
-1.017032

> <Mpro-x0759_dock>
-0.995242

> <Mpro-x1425_dock>
-0.980838

> <Mpro-x1308_dock>
-0.975016

> <Mpro-x1382_dock>
-0.953021

> <Mpro-x1351_dock>
-0.848619

> <Mpro-x0769_dock>
-0.776122

> <Mpro-x1386_dock>
-0.51007

> <Mpro-x0689_dock>
-0.499903

> <Mpro-x0734_dock>
-0.492365

> <Mpro-x1458_dock>
-0.456458

> <Mpro-x0755_dock>
-0.437282

> <Mpro-x0691_dock>
-0.427967

> <Mpro-x0752_dock>
-0.342368

> <Mpro-x0736_dock>
-0.24293

> <Mpro-x0705_dock>
0.018818

> <Mpro-x0887_dock>
0.169919

> <Mpro-x0786_dock>
0.28211

> <Mpro-x1384_dock>
0.71884

> <Mpro-x0820_dock>
0.780974

> <Mpro-x0981_dock>
1.427766

> <Mpro-x0978_dock>
1.50202

> <Mpro-x1402_dock>
1.869087

> <site>
active-noncovalent

$$$$
BAR-COM-4e0-27
  -OEChem-04022003013D

 56 58  0     1  0  0  0  0  0999 V2000
   13.3073   -1.7547   23.1801 C   0  0  0  0  0  0  0  0  0  0  0  0
   13.5025   -0.5780   23.9032 C   0  0  0  0  0  0  0  0  0  0  0  0
   12.0174   -2.2499   22.9887 C   0  0  0  0  0  0  0  0  0  0  0  0
   12.4078    0.1035   24.4351 C   0  0  0  0  0  0  0  0  0  0  0  0
    4.3472   -5.9685   27.1528 C   0  0  0  0  0  0  0  0  0  0  0  0
    5.2406   -7.0164   27.1171 C   0  0  0  0  0  0  0  0  0  0  0  0
    6.0849   -4.4840   27.0754 C   0  0  0  0  0  0  0  0  0  0  0  0
   10.9227   -1.5684   23.5205 C   0  0  0  0  0  0  0  0  0  0  0  0
   11.1179   -0.3917   24.2437 C   0  0  0  0  0  0  0  0  0  0  0  0
    6.9785   -5.5318   27.0404 C   0  0  0  0  0  0  0  0  0  0  0  0
    8.8241    2.3367   24.7643 C   0  0  0  0  0  0  0  0  0  0  0  0
    8.9511   -3.5132   25.2773 C   0  0  0  0  0  0  0  0  0  0  0  0
    7.9548    5.8794   25.2284 C   0  0  0  0  0  0  0  0  0  0  0  0
    9.4206    5.9914   24.8285 C   0  0  0  0  0  0  0  0  0  0  0  0
    7.5779    4.4878   24.7442 C   0  0  0  0  0  0  0  0  0  0  0  0
    9.9536    4.5896   25.0890 C   0  0  0  0  0  0  0  0  0  0  0  0
    9.1825   -0.8650   21.0954 C   0  0  0  0  0  0  0  0  0  0  0  0
    8.4558   -5.2714   26.9774 C   0  0  0  0  0  0  0  0  0  0  0  0
   10.1804    1.6927   24.9013 C   0  0  0  0  0  0  0  0  0  0  0  0
    9.1810   -2.2124   21.8072 C   0  0  0  0  0  0  0  0  0  0  0  0
    9.5494   -2.1133   23.3061 C   0  0  1  0  0  0  0  0  0  0  0  0
    4.7533   -4.6835   27.1326 N   0  0  0  0  0  0  0  0  0  0  0  0
    6.5724   -6.8168   27.0603 N   0  0  0  0  0  0  0  0  0  0  0  0
    8.8066    3.7162   24.8613 N   0  0  0  0  0  0  0  0  0  0  0  0
    8.8747   -4.8495   25.6607 N   0  0  0  0  0  0  0  0  0  0  0  0
    9.3807   -3.3991   23.9632 N   0  0  0  0  0  0  0  0  0  0  0  0
    7.8218    1.6463   24.5735 O   0  0  0  0  0  0  0  0  0  0  0  0
    8.6748   -2.5625   26.0077 O   0  0  0  0  0  0  0  0  0  0  0  0
   10.0502    0.2916   24.7751 O   0  0  0  0  0  0  0  0  0  0  0  0
   14.1596   -2.2860   22.7662 H   0  0  0  0  0  0  0  0  0  0  0  0
   14.5070   -0.1933   24.0528 H   0  0  0  0  0  0  0  0  0  0  0  0
   11.8761   -3.1683   22.4250 H   0  0  0  0  0  0  0  0  0  0  0  0
   12.5661    1.0196   24.9976 H   0  0  0  0  0  0  0  0  0  0  0  0
    3.2772   -6.1297   27.1987 H   0  0  0  0  0  0  0  0  0  0  0  0
    4.9136   -8.0486   27.1332 H   0  0  0  0  0  0  0  0  0  0  0  0
    6.4041   -3.4486   27.0594 H   0  0  0  0  0  0  0  0  0  0  0  0
    7.8542    5.9429   26.3183 H   0  0  0  0  0  0  0  0  0  0  0  0
    7.3389    6.6615   24.7759 H   0  0  0  0  0  0  0  0  0  0  0  0
    9.5037    6.2371   23.7632 H   0  0  0  0  0  0  0  0  0  0  0  0
    9.9519    6.7546   25.4039 H   0  0  0  0  0  0  0  0  0  0  0  0
    6.7730    4.0318   25.3282 H   0  0  0  0  0  0  0  0  0  0  0  0
    7.2883    4.4936   23.6875 H   0  0  0  0  0  0  0  0  0  0  0  0
   10.7870    4.3269   24.4319 H   0  0  0  0  0  0  0  0  0  0  0  0
   10.2658    4.4675   26.1318 H   0  0  0  0  0  0  0  0  0  0  0  0
   10.1546   -0.3712   21.1929 H   0  0  0  0  0  0  0  0  0  0  0  0
    8.9787   -1.0030   20.0288 H   0  0  0  0  0  0  0  0  0  0  0  0
    8.4146   -0.1986   21.5001 H   0  0  0  0  0  0  0  0  0  0  0  0
    8.7406   -4.4887   27.6889 H   0  0  0  0  0  0  0  0  0  0  0  0
    9.0247   -6.1702   27.2377 H   0  0  0  0  0  0  0  0  0  0  0  0
   10.6038    1.9342   25.8720 H   0  0  0  0  0  0  0  0  0  0  0  0
   10.8302    2.0642   24.1143 H   0  0  0  0  0  0  0  0  0  0  0  0
    8.1920   -2.6716   21.6852 H   0  0  0  0  0  0  0  0  0  0  0  0
    9.9003   -2.8698   21.3021 H   0  0  0  0  0  0  0  0  0  0  0  0
    8.8017   -1.4587   23.7884 H   0  0  0  0  0  0  0  0  0  0  0  0
    9.1255   -5.5619   24.9822 H   0  0  0  0  0  0  0  0  0  0  0  0
    9.6319   -4.2300   23.4458 H   0  0  0  0  0  0  0  0  0  0  0  0
  1  2  1  0  0  0  0
  1  3  2  0  0  0  0
  2  4  2  0  0  0  0
  3  8  1  0  0  0  0
  4  9  1  0  0  0  0
  5  6  2  0  0  0  0
  5 22  1  0  0  0  0
  6 23  1  0  0  0  0
  7 10  1  0  0  0  0
  7 22  2  0  0  0  0
  8  9  2  0  0  0  0
  8 21  1  0  0  0  0
  9 29  1  0  0  0  0
 10 18  1  0  0  0  0
 10 23  2  0  0  0  0
 11 19  1  0  0  0  0
 11 24  1  0  0  0  0
 11 27  2  0  0  0  0
 12 25  1  0  0  0  0
 12 26  1  0  0  0  0
 12 28  2  0  0  0  0
 13 14  1  0  0  0  0
 13 15  1  0  0  0  0
 14 16  1  0  0  0  0
 15 24  1  0  0  0  0
 16 24  1  0  0  0  0
 17 20  1  0  0  0  0
 18 25  1  0  0  0  0
 19 29  1  0  0  0  0
 20 21  1  0  0  0  0
 21 26  1  0  0  0  0
  1 30  1  0  0  0  0
  2 31  1  0  0  0  0
  3 32  1  0  0  0  0
  4 33  1  0  0  0  0
  5 34  1  0  0  0  0
  6 35  1  0  0  0  0
  7 36  1  0  0  0  0
 13 37  1  0  0  0  0
 13 38  1  0  0  0  0
 14 39  1  0  0  0  0
 14 40  1  0  0  0  0
 15 41  1  0  0  0  0
 15 42  1  0  0  0  0
 16 43  1  0  0  0  0
 16 44  1  0  0  0  0
 17 45  1  0  0  0  0
 17 46  1  0  0  0  0
 17 47  1  0  0  0  0
 18 48  1  0  0  0  0
 18 49  1  0  0  0  0
 19 50  1  0  0  0  0
 19 51  1  0  0  0  0
 20 52  1  0  0  0  0
 20 53  1  0  0  0  0
 21 54  1  0  0  0  0
 25 55  1  0  0  0  0
 26 56  1  0  0  0  0
M  END
> <Hybrid2>
-9.135799

> <fragments>
x0072

> <Mpro-x0072_dock>
-9.135799

> <Mpro-x0874_dock>
-8.072543

> <Mpro-x0678_dock>
-7.990472

> <Mpro-x0107_dock>
-6.313113

> <Mpro-x0397_dock>
-5.475599

> <Mpro-x0434_dock>
-5.196978

> <Mpro-x1077_dock>
-4.930813

> <Mpro-x0195_dock>
-4.916097

> <Mpro-x0946_dock>
-4.848625

> <Mpro-x0831_dock>
-4.790906

> <Mpro-x0104_dock>
-4.74353

> <Mpro-x0161_dock>
-4.411787

> <Mpro-x0395_dock>
-4.347416

> <Mpro-x0749_dock>
-4.014887

> <Mpro-x0354_dock>
-3.723218

> <Mpro-x0387_dock>
-3.381621

> <Mpro-x0830_dock>
-3.194175

> <Mpro-x0692_dock>
-2.607239

> <Mpro-x1093_dock>
-2.489649

> <Mpro-x1249_dock>
-2.221187

> <Mpro-x0967_dock>
-2.158878

> <Mpro-x0305_dock>
-2.036662

> <Mpro-x1348_dock>
-2.026407

> <Mpro-x1187_dock>
-2.014209

> <Mpro-x0981_dock>
-1.928881

> <Mpro-x0820_dock>
-1.591107

> <Mpro-x0708_dock>
-0.774871

> <Mpro-x0426_dock>
-0.77235

> <Mpro-x0771_dock>
-0.767547

> <Mpro-x1392_dock>
-0.560322

> <Mpro-x0759_dock>
-0.546646

> <Mpro-x1308_dock>
-0.398073

> <Mpro-x1334_dock>
-0.342889

> <Mpro-x0752_dock>
-0.291583

> <Mpro-x1358_dock>
-0.040419

> <Mpro-x0770_dock>
0.065931

> <Mpro-x1425_dock>
0.208811

> <Mpro-x0734_dock>
0.217089

> <Mpro-x0731_dock>
0.280736

> <Mpro-x1384_dock>
0.346995

> <Mpro-x1380_dock>
0.432109

> <Mpro-x1386_dock>
0.497182

> <Mpro-x0755_dock>
0.52667

> <Mpro-x0769_dock>
0.691808

> <Mpro-x1351_dock>
0.706009

> <Mpro-x0691_dock>
0.764908

> <Mpro-x1418_dock>
0.957718

> <Mpro-x0540_dock>
1.162339

> <Mpro-x1402_dock>
1.254792

> <Mpro-x1375_dock>
1.457622

> <Mpro-x1385_dock>
1.69841

> <Mpro-x1478_dock>
1.817626

> <Mpro-x0689_dock>
1.894429

> <Mpro-x1458_dock>
1.926952

> <Mpro-x0887_dock>
2.037851

> <Mpro-x1493_dock>
2.090588

> <Mpro-x0774_dock>
2.188398

> <Mpro-x0705_dock>
2.328089

> <Mpro-x1382_dock>
2.487327

> <Mpro-x1374_dock>
2.810882

> <Mpro-x1412_dock>
2.939791

> <Mpro-x0786_dock>
3.304046

> <Mpro-x1311_dock>
3.409376

> <Mpro-x0978_dock>
3.681427

> <Mpro-x0736_dock>
4.382787

> <site>
active-noncovalent

$$$$
WAR-XCH-b72-14
  -OEChem-04022003013D

 36 37  0     0  0  0  0  0  0999 V2000
    9.4549   -4.6308   23.4009 C   0  0  0  0  0  0  0  0  0  0  0  0
    8.7233   -2.3998   22.8314 C   0  0  0  0  0  0  0  0  0  0  0  0
    8.2964   -5.1567   22.8293 C   0  0  0  0  0  0  0  0  0  0  0  0
    7.5648   -2.9257   22.2597 C   0  0  0  0  0  0  0  0  0  0  0  0
    9.6684   -3.2523   23.4021 C   0  0  0  0  0  0  0  0  0  0  0  0
    7.3513   -4.3042   22.2586 C   0  0  0  0  0  0  0  0  0  0  0  0
   12.5525   -2.8963   25.7327 C   0  0  0  0  0  0  0  0  0  0  0  0
   12.8895   -1.3854   23.7669 C   0  0  0  0  0  0  0  0  0  0  0  0
   11.0631   -2.9897   25.4022 C   0  0  0  0  0  0  0  0  0  0  0  0
   11.3995   -1.4834   23.4378 C   0  0  0  0  0  0  0  0  0  0  0  0
   13.1898   -1.5860   25.2561 C   0  0  0  0  0  0  0  0  0  0  0  0
   12.7420   -0.3892   26.0977 C   0  0  0  0  0  0  0  0  0  0  0  0
   10.8314   -2.7238   23.9760 N   0  0  0  0  0  0  0  0  0  0  0  0
    4.8465   -4.9632   22.8881 N   0  0  0  0  0  0  0  0  0  0  0  0
    5.4033   -4.0118   20.5578 O   0  0  0  0  0  0  0  0  0  0  0  0
    6.1612   -6.3398   21.1523 O   0  0  0  0  0  0  0  0  0  0  0  0
   11.3362   -0.2644   25.9894 O   0  0  0  0  0  0  0  0  0  0  0  0
    5.9006   -4.9614   21.5434 S   0  0  0  0  0  0  0  0  0  0  0  0
   10.1846   -5.3043   23.8432 H   0  0  0  0  0  0  0  0  0  0  0  0
    8.8802   -1.3241   22.8260 H   0  0  0  0  0  0  0  0  0  0  0  0
    8.1405   -6.2321   22.8342 H   0  0  0  0  0  0  0  0  0  0  0  0
    6.8352   -2.2520   21.8181 H   0  0  0  0  0  0  0  0  0  0  0  0
   12.6885   -3.0064   26.8224 H   0  0  0  0  0  0  0  0  0  0  0  0
   13.0754   -3.7520   25.2751 H   0  0  0  0  0  0  0  0  0  0  0  0
   13.4373   -2.1361   23.1718 H   0  0  0  0  0  0  0  0  0  0  0  0
   13.2694   -0.4029   23.4337 H   0  0  0  0  0  0  0  0  0  0  0  0
   10.6860   -3.9880   25.6600 H   0  0  0  0  0  0  0  0  0  0  0  0
   10.5197   -2.2615   26.0174 H   0  0  0  0  0  0  0  0  0  0  0  0
   10.8880   -0.6121   23.8671 H   0  0  0  0  0  0  0  0  0  0  0  0
   11.2556   -1.4478   22.3496 H   0  0  0  0  0  0  0  0  0  0  0  0
   14.2927   -1.6813   25.3720 H   0  0  0  0  0  0  0  0  0  0  0  0
   13.2148    0.5208   25.7295 H   0  0  0  0  0  0  0  0  0  0  0  0
   13.0111   -0.5482   27.1416 H   0  0  0  0  0  0  0  0  0  0  0  0
    4.0808   -4.2784   22.9011 H   0  0  0  0  0  0  0  0  0  0  0  0
    4.6010   -5.8684   23.3070 H   0  0  0  0  0  0  0  0  0  0  0  0
   11.0745    0.5001   26.5306 H   0  0  0  0  0  0  0  0  0  0  0  0
  1  3  2  0  0  0  0
  1  5  1  0  0  0  0
  2  4  1  0  0  0  0
  2  5  2  0  0  0  0
  3  6  1  0  0  0  0
  4  6  2  0  0  0  0
  5 13  1  0  0  0  0
  6 18  1  0  0  0  0
  7  9  1  0  0  0  0
  7 11  1  0  0  0  0
  8 10  1  0  0  0  0
  8 11  1  0  0  0  0
  9 13  1  0  0  0  0
 10 13  1  0  0  0  0
 11 12  1  0  0  0  0
 12 17  1  0  0  0  0
 14 18  1  0  0  0  0
 15 18  2  0  0  0  0
 16 18  2  0  0  0  0
  1 19  1  0  0  0  0
  2 20  1  0  0  0  0
  3 21  1  0  0  0  0
  4 22  1  0  0  0  0
  7 23  1  0  0  0  0
  7 24  1  0  0  0  0
  8 25  1  0  0  0  0
  8 26  1  0  0  0  0
  9 27  1  0  0  0  0
  9 28  1  0  0  0  0
 10 29  1  0  0  0  0
 10 30  1  0  0  0  0
 11 31  1  0  0  0  0
 12 32  1  0  0  0  0
 12 33  1  0  0  0  0
 14 34  1  0  0  0  0
 14 35  1  0  0  0  0
 17 36  1  0  0  0  0
M  END
> <Hybrid2>
-9.132140

> <fragments>
x0749

> <Mpro-x0749_dock>
-9.13214

> <Mpro-x0678_dock>
-7.967846

> <Mpro-x1077_dock>
-7.679803

> <Mpro-x0161_dock>
-7.63432

> <Mpro-x0692_dock>
-7.456674

> <Mpro-x1093_dock>
-7.448847

> <Mpro-x0072_dock>
-7.39349

> <Mpro-x0830_dock>
-7.086146

> <Mpro-x1385_dock>
-6.774494

> <Mpro-x0195_dock>
-6.742491

> <Mpro-x0874_dock>
-6.647877

> <Mpro-x0831_dock>
-6.614974

> <Mpro-x0708_dock>
-6.447144

> <Mpro-x0395_dock>
-6.315402

> <Mpro-x0946_dock>
-6.312073

> <Mpro-x1392_dock>
-6.11509

> <Mpro-x0104_dock>
-6.094195

> <Mpro-x1334_dock>
-5.746501

> <Mpro-x0967_dock>
-5.595239

> <Mpro-x1311_dock>
-5.540774

> <Mpro-x1418_dock>
-5.519098

> <Mpro-x0434_dock>
-5.439436

> <Mpro-x1386_dock>
-5.394385

> <Mpro-x0397_dock>
-5.221101

> <Mpro-x1187_dock>
-5.002151

> <Mpro-x1412_dock>
-4.854271

> <Mpro-x0770_dock>
-4.853244

> <Mpro-x0759_dock>
-4.749919

> <Mpro-x0305_dock>
-4.561764

> <Mpro-x0387_dock>
-4.33457

> <Mpro-x1375_dock>
-4.160363

> <Mpro-x1380_dock>
-4.115144

> <Mpro-x1249_dock>
-4.063263

> <Mpro-x0736_dock>
-3.941921

> <Mpro-x1348_dock>
-3.709864

> <Mpro-x0107_dock>
-3.594579

> <Mpro-x0774_dock>
-3.48561

> <Mpro-x0820_dock>
-3.381137

> <Mpro-x1382_dock>
-3.35706

> <Mpro-x1374_dock>
-3.216224

> <Mpro-x1358_dock>
-3.17869

> <Mpro-x1493_dock>
-3.063745

> <Mpro-x0734_dock>
-2.96573

> <Mpro-x0354_dock>
-2.871682

> <Mpro-x1384_dock>
-2.652343

> <Mpro-x1478_dock>
-2.429627

> <Mpro-x1351_dock>
-2.414307

> <Mpro-x1458_dock>
-2.342416

> <Mpro-x1308_dock>
-2.317424

> <Mpro-x0426_dock>
-2.127108

> <Mpro-x0771_dock>
-2.091745

> <Mpro-x1425_dock>
-1.925335

> <Mpro-x0540_dock>
-1.805212

> <Mpro-x0752_dock>
-1.595164

> <Mpro-x1402_dock>
-1.594918

> <Mpro-x0705_dock>
-1.502949

> <Mpro-x0769_dock>
-1.457887

> <Mpro-x0691_dock>
-1.273518

> <Mpro-x0786_dock>
-1.268402

> <Mpro-x0755_dock>
-1.089633

> <Mpro-x0887_dock>
-0.855729

> <Mpro-x0731_dock>
-0.661083

> <Mpro-x0689_dock>
-0.65082

> <Mpro-x0981_dock>
-0.346811

> <Mpro-x0978_dock>
0.321987

> <site>
active-covalent

$$$$
VIR-GIT-7b3-2
  -OEChem-04022003013D

 39 40  0     0  0  0  0  0  0999 V2000
   10.2570   -1.9161   24.3876 C   0  0  0  0  0  0  0  0  0  0  0  0
    6.2954   -4.9484   22.1297 C   0  0  0  0  0  0  0  0  0  0  0  0
   14.1312   -1.4147   25.9560 C   0  0  0  0  0  0  0  0  0  0  0  0
   13.1394   -0.2723   25.7423 C   0  0  0  0  0  0  0  0  0  0  0  0
   13.7386   -2.6402   25.1320 C   0  0  0  0  0  0  0  0  0  0  0  0
    9.1613   -4.1248   24.4650 C   0  0  0  0  0  0  0  0  0  0  0  0
    9.3247   -2.8252   22.2701 C   0  0  0  0  0  0  0  0  0  0  0  0
   11.7067   -0.7289   26.0036 C   0  0  0  0  0  0  0  0  0  0  0  0
   12.2934   -3.0523   25.4038 C   0  0  0  0  0  0  0  0  0  0  0  0
    8.3369   -5.0844   23.6139 C   0  0  0  0  0  0  0  0  0  0  0  0
    7.8109   -3.0083   22.3247 C   0  0  0  0  0  0  0  0  0  0  0  0
    9.9954   -3.1689   23.6059 C   0  0  0  0  0  0  0  0  0  0  0  0
    5.9868   -6.3673   22.5406 C   0  0  0  0  0  0  0  0  0  0  0  0
   11.3829   -1.9167   25.2104 N   0  0  0  0  0  0  0  0  0  0  0  0
    7.4443   -4.3806   22.6841 N   0  0  0  0  0  0  0  0  0  0  0  0
    9.4852   -0.9607   24.2709 O   0  0  0  0  0  0  0  0  0  0  0  0
    5.5417   -4.3631   21.3485 O   0  0  0  0  0  0  0  0  0  0  0  0
    5.0035   -6.2674   23.9969 Cl  0  0  0  0  0  0  0  0  0  0  0  0
   15.1402   -1.0882   25.6809 H   0  0  0  0  0  0  0  0  0  0  0  0
   14.1578   -1.6820   27.0195 H   0  0  0  0  0  0  0  0  0  0  0  0
   13.3891    0.5606   26.4090 H   0  0  0  0  0  0  0  0  0  0  0  0
   13.2236    0.1016   24.7145 H   0  0  0  0  0  0  0  0  0  0  0  0
   13.8623   -2.4217   24.0639 H   0  0  0  0  0  0  0  0  0  0  0  0
   14.4106   -3.4723   25.3696 H   0  0  0  0  0  0  0  0  0  0  0  0
    8.4943   -3.5621   25.1252 H   0  0  0  0  0  0  0  0  0  0  0  0
    9.8338   -4.7064   25.1047 H   0  0  0  0  0  0  0  0  0  0  0  0
    9.7306   -3.4797   21.4935 H   0  0  0  0  0  0  0  0  0  0  0  0
    9.5550   -1.7965   21.9834 H   0  0  0  0  0  0  0  0  0  0  0  0
   11.5759   -0.9955   27.0591 H   0  0  0  0  0  0  0  0  0  0  0  0
   11.0127    0.0886   25.7845 H   0  0  0  0  0  0  0  0  0  0  0  0
   12.0334   -3.8995   24.7669 H   0  0  0  0  0  0  0  0  0  0  0  0
   12.1803   -3.3824   26.4433 H   0  0  0  0  0  0  0  0  0  0  0  0
    9.0100   -5.7608   23.0642 H   0  0  0  0  0  0  0  0  0  0  0  0
    7.7039   -5.7269   24.2482 H   0  0  0  0  0  0  0  0  0  0  0  0
    7.3652   -2.3466   23.0821 H   0  0  0  0  0  0  0  0  0  0  0  0
    7.3777   -2.7084   21.3637 H   0  0  0  0  0  0  0  0  0  0  0  0
   10.9697   -3.6136   23.4183 H   0  0  0  0  0  0  0  0  0  0  0  0
    6.9169   -6.8815   22.7541 H   0  0  0  0  0  0  0  0  0  0  0  0
    5.4284   -6.8495   21.7465 H   0  0  0  0  0  0  0  0  0  0  0  0
  1 12  1  0  0  0  0
  1 14  1  0  0  0  0
  1 16  2  0  0  0  0
  2 13  1  0  0  0  0
  2 15  1  0  0  0  0
  2 17  2  0  0  0  0
  3  4  1  0  0  0  0
  3  5  1  0  0  0  0
  4  8  1  0  0  0  0
  5  9  1  0  0  0  0
  6 10  1  0  0  0  0
  6 12  1  0  0  0  0
  7 11  1  0  0  0  0
  7 12  1  0  0  0  0
  8 14  1  0  0  0  0
  9 14  1  0  0  0  0
 10 15  1  0  0  0  0
 11 15  1  0  0  0  0
 13 18  1  0  0  0  0
  3 19  1  0  0  0  0
  3 20  1  0  0  0  0
  4 21  1  0  0  0  0
  4 22  1  0  0  0  0
  5 23  1  0  0  0  0
  5 24  1  0  0  0  0
  6 25  1  0  0  0  0
  6 26  1  0  0  0  0
  7 27  1  0  0  0  0
  7 28  1  0  0  0  0
  8 29  1  0  0  0  0
  8 30  1  0  0  0  0
  9 31  1  0  0  0  0
  9 32  1  0  0  0  0
 10 33  1  0  0  0  0
 10 34  1  0  0  0  0
 11 35  1  0  0  0  0
 11 36  1  0  0  0  0
 12 37  1  0  0  0  0
 13 38  1  0  0  0  0
 13 39  1  0  0  0  0
M  END
> <Hybrid2>
-9.127145

> <fragments>
x0749

> <Mpro-x0749_dock>
-9.127145

> <Mpro-x0072_dock>
-7.68223

> <Mpro-x0831_dock>
-7.676725

> <Mpro-x0161_dock>
-7.452348

> <Mpro-x0830_dock>
-7.442573

> <Mpro-x0708_dock>
-7.23118

> <Mpro-x1077_dock>
-7.206821

> <Mpro-x0678_dock>
-7.14449

> <Mpro-x1386_dock>
-6.825107

> <Mpro-x1093_dock>
-6.671215

> <Mpro-x0736_dock>
-6.557007

> <Mpro-x0104_dock>
-6.492336

> <Mpro-x1385_dock>
-6.461628

> <Mpro-x0195_dock>
-6.370719

> <Mpro-x0946_dock>
-6.3524

> <Mpro-x0874_dock>
-6.29974

> <Mpro-x0395_dock>
-6.229679

> <Mpro-x1418_dock>
-6.045255

> <Mpro-x0397_dock>
-5.693965

> <Mpro-x0692_dock>
-5.667534

> <Mpro-x1334_dock>
-5.627429

> <Mpro-x1392_dock>
-5.555192

> <Mpro-x1412_dock>
-5.520541

> <Mpro-x1348_dock>
-5.291796

> <Mpro-x0759_dock>
-5.193413

> <Mpro-x0434_dock>
-5.177263

> <Mpro-x0387_dock>
-4.986085

> <Mpro-x1311_dock>
-4.925441

> <Mpro-x1382_dock>
-4.787098

> <Mpro-x0770_dock>
-4.741254

> <Mpro-x0967_dock>
-4.324552

> <Mpro-x0774_dock>
-4.255305

> <Mpro-x1375_dock>
-4.105798

> <Mpro-x0734_dock>
-4.009404

> <Mpro-x1249_dock>
-3.998571

> <Mpro-x1187_dock>
-3.880179

> <Mpro-x0107_dock>
-3.871589

> <Mpro-x1458_dock>
-3.838183

> <Mpro-x0354_dock>
-3.713176

> <Mpro-x1380_dock>
-3.634439

> <Mpro-x0305_dock>
-3.611002

> <Mpro-x1374_dock>
-3.466928

> <Mpro-x1493_dock>
-2.880613

> <Mpro-x1478_dock>
-2.872802

> <Mpro-x0820_dock>
-2.821944

> <Mpro-x0771_dock>
-2.531547

> <Mpro-x0786_dock>
-2.331578

> <Mpro-x1358_dock>
-2.281095

> <Mpro-x1384_dock>
-2.112217

> <Mpro-x0752_dock>
-2.094604

> <Mpro-x1351_dock>
-1.926218

> <Mpro-x1425_dock>
-1.856595

> <Mpro-x0978_dock>
-1.815733

> <Mpro-x1308_dock>
-1.601854

> <Mpro-x0769_dock>
-1.509864

> <Mpro-x0755_dock>
-1.396085

> <Mpro-x1402_dock>
-1.174409

> <Mpro-x0705_dock>
-1.171777

> <Mpro-x0691_dock>
-1.125

> <Mpro-x0426_dock>
-1.096302

> <Mpro-x0689_dock>
-1.090636

> <Mpro-x0981_dock>
-0.690597

> <Mpro-x0540_dock>
-0.641167

> <Mpro-x0731_dock>
-0.467686

> <Mpro-x0887_dock>
-0.094879

> <site>
active-covalent

$$$$
TRY-UNI-1fd-11
  -OEChem-04022003013D

 34 36  0     0  0  0  0  0  0999 V2000
    7.2749   -2.2930   21.1604 C   0  0  0  0  0  0  0  0  0  0  0  0
    8.0278   -3.2233   21.8745 C   0  0  0  0  0  0  0  0  0  0  0  0
   12.0892   -0.7609   25.2344 C   0  0  0  0  0  0  0  0  0  0  0  0
   11.3959   -1.8570   25.7358 C   0  0  0  0  0  0  0  0  0  0  0  0
    5.9934   -2.6409   20.7549 C   0  0  0  0  0  0  0  0  0  0  0  0
   13.8681   -2.2236   24.6406 C   0  0  0  0  0  0  0  0  0  0  0  0
    6.7948   -6.5507   22.7397 C   0  0  0  0  0  0  0  0  0  0  0  0
    7.4428   -4.4707   22.1460 C   0  0  0  0  0  0  0  0  0  0  0  0
    7.8418   -5.6577   22.8155 C   0  0  0  0  0  0  0  0  0  0  0  0
   13.3494   -0.9393   24.6748 C   0  0  0  0  0  0  0  0  0  0  0  0
   12.0019   -3.1003   25.6540 C   0  0  0  0  0  0  0  0  0  0  0  0
    6.1492   -4.6864   21.6798 C   0  0  0  0  0  0  0  0  0  0  0  0
    9.4790   -4.9079   24.5861 C   0  0  0  0  0  0  0  0  0  0  0  0
    9.1400   -5.9018   23.4755 C   0  0  0  0  0  0  0  0  0  0  0  0
   11.2820   -4.3060   26.1851 C   0  0  0  0  0  0  0  0  0  0  0  0
   13.2245   -3.3126   25.1175 N   0  0  0  0  0  0  0  0  0  0  0  0
    5.3803   -3.8248   20.9875 N   0  0  0  0  0  0  0  0  0  0  0  0
    5.7738   -5.9514   22.0486 N   0  0  0  0  0  0  0  0  0  0  0  0
   10.7398   -5.1225   25.1245 N   0  0  0  0  0  0  0  0  0  0  0  0
    8.7029   -4.0242   24.9404 O   0  0  0  0  0  0  0  0  0  0  0  0
   14.2333    0.3887   24.0455 Cl  0  0  0  0  0  0  0  0  0  0  0  0
    7.6837   -1.3159   20.9262 H   0  0  0  0  0  0  0  0  0  0  0  0
    9.0325   -2.9829   22.2067 H   0  0  0  0  0  0  0  0  0  0  0  0
   11.6362    0.2255   25.2859 H   0  0  0  0  0  0  0  0  0  0  0  0
   10.4120   -1.7315   26.1749 H   0  0  0  0  0  0  0  0  0  0  0  0
    5.3915   -1.9277   20.1979 H   0  0  0  0  0  0  0  0  0  0  0  0
   14.8466   -2.4287   24.2168 H   0  0  0  0  0  0  0  0  0  0  0  0
    6.6832   -7.5585   23.1153 H   0  0  0  0  0  0  0  0  0  0  0  0
    9.1762   -6.9171   23.9164 H   0  0  0  0  0  0  0  0  0  0  0  0
    9.9716   -5.8740   22.7446 H   0  0  0  0  0  0  0  0  0  0  0  0
   11.9594   -4.9299   26.7783 H   0  0  0  0  0  0  0  0  0  0  0  0
   10.4537   -4.0129   26.8387 H   0  0  0  0  0  0  0  0  0  0  0  0
    4.8812   -6.3773   21.8411 H   0  0  0  0  0  0  0  0  0  0  0  0
   11.3036   -5.8839   24.7581 H   0  0  0  0  0  0  0  0  0  0  0  0
  1  2  2  0  0  0  0
  1  5  1  0  0  0  0
  2  8  1  0  0  0  0
  3  4  2  0  0  0  0
  3 10  1  0  0  0  0
  4 11  1  0  0  0  0
  5 17  2  0  0  0  0
  6 10  2  0  0  0  0
  6 16  1  0  0  0  0
  7  9  2  0  0  0  0
  7 18  1  0  0  0  0
  8  9  1  0  0  0  0
  8 12  2  0  0  0  0
  9 14  1  0  0  0  0
 10 21  1  0  0  0  0
 11 15  1  0  0  0  0
 11 16  2  0  0  0  0
 12 17  1  0  0  0  0
 12 18  1  0  0  0  0
 13 14  1  0  0  0  0
 13 19  1  0  0  0  0
 13 20  2  0  0  0  0
 15 19  1  0  0  0  0
  1 22  1  0  0  0  0
  2 23  1  0  0  0  0
  3 24  1  0  0  0  0
  4 25  1  0  0  0  0
  5 26  1  0  0  0  0
  6 27  1  0  0  0  0
  7 28  1  0  0  0  0
 14 29  1  0  0  0  0
 14 30  1  0  0  0  0
 15 31  1  0  0  0  0
 15 32  1  0  0  0  0
 18 33  1  0  0  0  0
 19 34  1  0  0  0  0
M  END
> <Hybrid2>
-9.105130

> <fragments>
x0749

> <Mpro-x0749_dock>
-9.10513

> <Mpro-x0678_dock>
-8.163313

> <Mpro-x0107_dock>
-7.60706

> <Mpro-x0104_dock>
-7.33187

> <Mpro-x0072_dock>
-7.227924

> <Mpro-x0161_dock>
-7.189248

> <Mpro-x1077_dock>
-7.163204

> <Mpro-x0195_dock>
-7.081538

> <Mpro-x0397_dock>
-6.929468

> <Mpro-x0967_dock>
-6.673181

> <Mpro-x1093_dock>
-6.612026

> <Mpro-x0831_dock>
-6.542491

> <Mpro-x0946_dock>
-6.327825

> <Mpro-x0434_dock>
-6.281904

> <Mpro-x0830_dock>
-6.247828

> <Mpro-x1392_dock>
-6.131659

> <Mpro-x0874_dock>
-6.101688

> <Mpro-x1311_dock>
-5.708795

> <Mpro-x1385_dock>
-5.575078

> <Mpro-x0736_dock>
-5.499816

> <Mpro-x1374_dock>
-5.280553

> <Mpro-x0395_dock>
-5.261534

> <Mpro-x1478_dock>
-5.190176

> <Mpro-x1249_dock>
-5.118666

> <Mpro-x1334_dock>
-5.099493

> <Mpro-x0770_dock>
-4.996676

> <Mpro-x1418_dock>
-4.986178

> <Mpro-x1375_dock>
-4.958699

> <Mpro-x0692_dock>
-4.728087

> <Mpro-x0774_dock>
-4.715933

> <Mpro-x1386_dock>
-4.55363

> <Mpro-x1458_dock>
-4.483187

> <Mpro-x0387_dock>
-4.368039

> <Mpro-x1348_dock>
-4.342612

> <Mpro-x1493_dock>
-4.226236

> <Mpro-x1412_dock>
-4.203201

> <Mpro-x0354_dock>
-4.150809

> <Mpro-x0305_dock>
-3.891508

> <Mpro-x0540_dock>
-3.889954

> <Mpro-x0820_dock>
-3.845431

> <Mpro-x0734_dock>
-3.701956

> <Mpro-x0426_dock>
-3.612397

> <Mpro-x1384_dock>
-2.849777

> <Mpro-x0708_dock>
-2.801316

> <Mpro-x0759_dock>
-2.743114

> <Mpro-x0731_dock>
-2.619382

> <Mpro-x1187_dock>
-2.317912

> <Mpro-x1380_dock>
-2.153197

> <Mpro-x1358_dock>
-1.854889

> <Mpro-x1382_dock>
-1.852805

> <Mpro-x0981_dock>
-1.770137

> <Mpro-x0771_dock>
-1.719953

> <Mpro-x0691_dock>
-1.527469

> <Mpro-x1308_dock>
-1.474615

> <Mpro-x0769_dock>
-1.355619

> <Mpro-x0752_dock>
-1.127983

> <Mpro-x0755_dock>
-1.12624

> <Mpro-x0786_dock>
-1.038439

> <Mpro-x0689_dock>
-0.999879

> <Mpro-x1351_dock>
-0.765836

> <Mpro-x1402_dock>
-0.701135

> <Mpro-x1425_dock>
-0.365878

> <Mpro-x0887_dock>
-0.33469

> <Mpro-x0978_dock>
-0.072368

> <Mpro-x0705_dock>
-0.033133

> <site>
active-covalent

$$$$
BAR-COM-4e0-57
  -OEChem-04022003013D

 44 46  0     1  0  0  0  0  0999 V2000
   13.6483   -0.9911   21.9617 C   0  0  0  0  0  0  0  0  0  0  0  0
   14.0076   -1.1364   23.3016 C   0  0  0  0  0  0  0  0  0  0  0  0
    5.5609    1.2325   19.0705 C   0  0  0  0  0  0  0  0  0  0  0  0
    6.1676    0.5520   20.1202 C   0  0  0  0  0  0  0  0  0  0  0  0
   12.3074   -1.0740   21.5863 C   0  0  0  0  0  0  0  0  0  0  0  0
   13.0262   -1.3646   24.2661 C   0  0  0  0  0  0  0  0  0  0  0  0
    8.5858    2.3892   23.8712 C   0  0  0  0  0  0  0  0  0  0  0  0
   10.9460    2.9046   23.9021 C   0  0  0  0  0  0  0  0  0  0  0  0
    8.8208    1.2653   24.6632 C   0  0  0  0  0  0  0  0  0  0  0  0
   11.1810    1.7807   24.6941 C   0  0  0  0  0  0  0  0  0  0  0  0
    6.0248    0.9918   17.7873 C   0  0  0  0  0  0  0  0  0  0  0  0
    7.5953   -0.5067   18.5399 C   0  0  0  0  0  0  0  0  0  0  0  0
    7.2051   -0.3360   19.8584 C   0  0  0  0  0  0  0  0  0  0  0  0
   11.3260   -1.3023   22.5508 C   0  0  0  0  0  0  0  0  0  0  0  0
   11.6853   -1.4475   23.8907 C   0  0  0  0  0  0  0  0  0  0  0  0
    9.6484    3.2088   23.4906 C   0  0  0  0  0  0  0  0  0  0  0  0
   10.1184    0.9611   25.0747 C   0  0  0  0  0  0  0  0  0  0  0  0
    9.3677   -0.7411   21.0709 C   0  0  0  0  0  0  0  0  0  0  0  0
    7.8844   -1.0912   20.9772 C   0  0  1  0  0  0  0  0  0  0  0  0
    7.0300    0.1367   17.4939 N   0  0  0  0  0  0  0  0  0  0  0  0
    9.9884   -1.3815   22.1529 N   0  0  0  0  0  0  0  0  0  0  0  0
   10.6972   -1.6823   24.8987 N   0  0  0  0  0  0  0  0  0  0  0  0
    9.8931    0.0286   20.2717 O   0  0  0  0  0  0  0  0  0  0  0  0
    9.1755   -0.7568   26.7735 O   0  0  0  0  0  0  0  0  0  0  0  0
   11.6267   -0.2217   26.8437 O   0  0  0  0  0  0  0  0  0  0  0  0
    7.2417   -0.7692   22.2019 O   0  0  0  0  0  0  0  0  0  0  0  0
    9.4228    4.2876   22.7293 F   0  0  0  0  0  0  0  0  0  0  0  0
   10.4168   -0.4637   26.0815 S   0  0  0  0  0  0  0  0  0  0  0  0
   14.4121   -0.8139   21.2104 H   0  0  0  0  0  0  0  0  0  0  0  0
   15.0518   -1.0726   23.5939 H   0  0  0  0  0  0  0  0  0  0  0  0
    4.7503    1.9292   19.2509 H   0  0  0  0  0  0  0  0  0  0  0  0
    5.8258    0.7195   21.1380 H   0  0  0  0  0  0  0  0  0  0  0  0
   12.0402   -0.9600   20.5388 H   0  0  0  0  0  0  0  0  0  0  0  0
   13.3174   -1.4768   25.3075 H   0  0  0  0  0  0  0  0  0  0  0  0
    7.5757    2.6263   23.5504 H   0  0  0  0  0  0  0  0  0  0  0  0
   11.7729    3.5432   23.6054 H   0  0  0  0  0  0  0  0  0  0  0  0
    7.9857    0.6335   24.9538 H   0  0  0  0  0  0  0  0  0  0  0  0
   12.1961    1.5531   25.0085 H   0  0  0  0  0  0  0  0  0  0  0  0
    5.5849    1.4980   16.9343 H   0  0  0  0  0  0  0  0  0  0  0  0
    8.3991   -1.1864   18.2745 H   0  0  0  0  0  0  0  0  0  0  0  0
    7.7779   -2.1732   20.8326 H   0  0  0  0  0  0  0  0  0  0  0  0
    9.3844   -1.9852   22.7200 H   0  0  0  0  0  0  0  0  0  0  0  0
    9.8611   -2.1963   24.5810 H   0  0  0  0  0  0  0  0  0  0  0  0
    7.3314    0.1903   22.3229 H   0  0  0  0  0  0  0  0  0  0  0  0
  1  2  1  0  0  0  0
  1  5  2  0  0  0  0
  2  6  2  0  0  0  0
  3  4  2  0  0  0  0
  3 11  1  0  0  0  0
  4 13  1  0  0  0  0
  5 14  1  0  0  0  0
  6 15  1  0  0  0  0
  7  9  2  0  0  0  0
  7 16  1  0  0  0  0
  8 10  1  0  0  0  0
  8 16  2  0  0  0  0
  9 17  1  0  0  0  0
 10 17  2  0  0  0  0
 11 20  2  0  0  0  0
 12 13  2  0  0  0  0
 12 20  1  0  0  0  0
 13 19  1  0  0  0  0
 14 15  2  0  0  0  0
 14 21  1  0  0  0  0
 15 22  1  0  0  0  0
 16 27  1  0  0  0  0
 17 28  1  0  0  0  0
 18 19  1  0  0  0  0
 18 21  1  0  0  0  0
 18 23  2  0  0  0  0
 19 26  1  0  0  0  0
 22 28  1  0  0  0  0
 24 28  2  0  0  0  0
 25 28  2  0  0  0  0
  1 29  1  0  0  0  0
  2 30  1  0  0  0  0
  3 31  1  0  0  0  0
  4 32  1  0  0  0  0
  5 33  1  0  0  0  0
  6 34  1  0  0  0  0
  7 35  1  0  0  0  0
  8 36  1  0  0  0  0
  9 37  1  0  0  0  0
 10 38  1  0  0  0  0
 11 39  1  0  0  0  0
 12 40  1  0  0  0  0
 19 41  1  0  0  0  0
 21 42  1  0  0  0  0
 22 43  1  0  0  0  0
 26 44  1  0  0  0  0
M  END
> <Hybrid2>
-9.098339

> <fragments>
x0678

> <Mpro-x0678_dock>
-9.098339

> <Mpro-x0749_dock>
-8.143341

> <Mpro-x0195_dock>
-7.860054

> <Mpro-x0107_dock>
-7.522429

> <Mpro-x0161_dock>
-7.291757

> <Mpro-x0946_dock>
-6.731774

> <Mpro-x0397_dock>
-6.59331

> <Mpro-x0874_dock>
-6.58638

> <Mpro-x1077_dock>
-6.564925

> <Mpro-x0434_dock>
-6.446322

> <Mpro-x1093_dock>
-6.357602

> <Mpro-x0967_dock>
-5.992009

> <Mpro-x0831_dock>
-5.813266

> <Mpro-x1412_dock>
-5.769124

> <Mpro-x1392_dock>
-5.406658

> <Mpro-x0387_dock>
-5.13304

> <Mpro-x0830_dock>
-5.064615

> <Mpro-x0104_dock>
-5.005186

> <Mpro-x0759_dock>
-4.902848

> <Mpro-x0708_dock>
-4.708734

> <Mpro-x1418_dock>
-4.505307

> <Mpro-x1311_dock>
-4.489746

> <Mpro-x0770_dock>
-4.3757

> <Mpro-x0305_dock>
-4.014433

> <Mpro-x1386_dock>
-3.918956

> <Mpro-x0692_dock>
-3.792075

> <Mpro-x1348_dock>
-3.698205

> <Mpro-x0774_dock>
-3.643482

> <Mpro-x1458_dock>
-3.604733

> <Mpro-x0736_dock>
-3.506729

> <Mpro-x1385_dock>
-3.269923

> <Mpro-x0072_dock>
-3.148267

> <Mpro-x1334_dock>
-2.997809

> <Mpro-x1249_dock>
-2.648845

> <Mpro-x1478_dock>
-2.581635

> <Mpro-x1374_dock>
-2.465346

> <Mpro-x0426_dock>
-2.385237

> <Mpro-x1358_dock>
-2.369216

> <Mpro-x0734_dock>
-2.237071

> <Mpro-x1308_dock>
-2.224063

> <Mpro-x0354_dock>
-2.126927

> <Mpro-x1493_dock>
-2.115199

> <Mpro-x1351_dock>
-2.002973

> <Mpro-x0395_dock>
-1.954905

> <Mpro-x1384_dock>
-1.826793

> <Mpro-x0820_dock>
-1.762197

> <Mpro-x1375_dock>
-1.754718

> <Mpro-x0769_dock>
-1.52871

> <Mpro-x1187_dock>
-1.497851

> <Mpro-x0691_dock>
-1.356734

> <Mpro-x0755_dock>
-1.276033

> <Mpro-x1402_dock>
-0.940331

> <Mpro-x1380_dock>
-0.878831

> <Mpro-x0771_dock>
-0.786136

> <Mpro-x0705_dock>
-0.708525

> <Mpro-x1425_dock>
-0.708026

> <Mpro-x1382_dock>
-0.65915

> <Mpro-x0689_dock>
-0.449054

> <Mpro-x0731_dock>
-0.135702

> <Mpro-x0540_dock>
-0.022896

> <Mpro-x0887_dock>
0.458

> <Mpro-x0786_dock>
0.822198

> <Mpro-x0752_dock>
0.90457

> <Mpro-x0978_dock>
3.004468

> <Mpro-x0981_dock>
3.284255

> <site>
active-noncovalent

$$$$
WAR-XCH-b72-19
  -OEChem-04022003013D

 51 53  0     0  0  0  0  0  0999 V2000
   10.1391   -2.5925   23.9551 C   0  0  0  0  0  0  0  0  0  0  0  0
    8.1932   -1.3966   23.1675 C   0  0  0  0  0  0  0  0  0  0  0  0
    9.4042   -3.7779   23.9709 C   0  0  0  0  0  0  0  0  0  0  0  0
    7.4583   -2.5820   23.1832 C   0  0  0  0  0  0  0  0  0  0  0  0
    9.5336   -1.4018   23.5535 C   0  0  0  0  0  0  0  0  0  0  0  0
    8.0638   -3.7727   23.5849 C   0  0  0  0  0  0  0  0  0  0  0  0
   11.2598    6.9487   25.2942 C   0  0  0  0  0  0  0  0  0  0  0  0
    9.9143    6.2781   25.0385 C   0  0  0  0  0  0  0  0  0  0  0  0
   12.4182    5.9804   25.0797 C   0  0  0  0  0  0  0  0  0  0  0  0
   12.0523    1.1507   24.5620 C   0  0  0  0  0  0  0  0  0  0  0  0
   11.1443    1.7353   22.3049 C   0  0  0  0  0  0  0  0  0  0  0  0
   10.8460    0.2454   24.8100 C   0  0  0  0  0  0  0  0  0  0  0  0
    9.9402    0.8266   22.5555 C   0  0  0  0  0  0  0  0  0  0  0  0
    9.8640    5.6186   23.6676 C   0  0  0  0  0  0  0  0  0  0  0  0
   12.3569    5.3220   23.7087 C   0  0  0  0  0  0  0  0  0  0  0  0
   11.7484    2.3006   23.5948 C   0  0  0  0  0  0  0  0  0  0  0  0
   10.8510    3.3645   24.2302 C   0  0  0  0  0  0  0  0  0  0  0  0
   10.2710   -0.2113   23.5375 N   0  0  0  0  0  0  0  0  0  0  0  0
    5.6209   -4.7016   23.0614 N   0  0  0  0  0  0  0  0  0  0  0  0
   11.0176    4.6620   23.4863 N   0  3  0  0  0  0  0  0  0  0  0  0
    7.6997   -6.1560   22.6046 O   0  0  0  0  0  0  0  0  0  0  0  0
    7.0125   -5.7008   24.9854 O   0  0  0  0  0  0  0  0  0  0  0  0
    7.1430   -5.2559   23.6049 S   0  0  0  0  0  0  0  0  0  0  0  0
   11.1829   -2.6080   24.2582 H   0  0  0  0  0  0  0  0  0  0  0  0
    7.7118   -0.4744   22.8518 H   0  0  0  0  0  0  0  0  0  0  0  0
    9.8862   -4.6996   24.2857 H   0  0  0  0  0  0  0  0  0  0  0  0
    6.4146   -2.5662   22.8806 H   0  0  0  0  0  0  0  0  0  0  0  0
   11.3739    7.8162   24.6323 H   0  0  0  0  0  0  0  0  0  0  0  0
   11.2881    7.3290   26.3243 H   0  0  0  0  0  0  0  0  0  0  0  0
    9.7273    5.5258   25.8133 H   0  0  0  0  0  0  0  0  0  0  0  0
    9.1112    7.0214   25.1191 H   0  0  0  0  0  0  0  0  0  0  0  0
   13.3700    6.5152   25.1888 H   0  0  0  0  0  0  0  0  0  0  0  0
   12.3986    5.2084   25.8573 H   0  0  0  0  0  0  0  0  0  0  0  0
   12.4061    1.5538   25.5266 H   0  0  0  0  0  0  0  0  0  0  0  0
   12.8820    0.5419   24.1668 H   0  0  0  0  0  0  0  0  0  0  0  0
   11.9118    1.1675   21.7515 H   0  0  0  0  0  0  0  0  0  0  0  0
   10.8412    2.5608   21.6361 H   0  0  0  0  0  0  0  0  0  0  0  0
   11.1478   -0.6206   25.4133 H   0  0  0  0  0  0  0  0  0  0  0  0
   10.0982    0.8054   25.3854 H   0  0  0  0  0  0  0  0  0  0  0  0
    9.1064    1.4421   22.9174 H   0  0  0  0  0  0  0  0  0  0  0  0
    9.6226    0.3614   21.6127 H   0  0  0  0  0  0  0  0  0  0  0  0
    8.9323    5.0470   23.5242 H   0  0  0  0  0  0  0  0  0  0  0  0
    9.9370    6.3768   22.8723 H   0  0  0  0  0  0  0  0  0  0  0  0
   12.4897    6.0731   22.9142 H   0  0  0  0  0  0  0  0  0  0  0  0
   13.1326    4.5473   23.5937 H   0  0  0  0  0  0  0  0  0  0  0  0
   12.7104    2.7947   23.3358 H   0  0  0  0  0  0  0  0  0  0  0  0
   11.1237    3.5542   25.2720 H   0  0  0  0  0  0  0  0  0  0  0  0
    9.7939    3.0918   24.1675 H   0  0  0  0  0  0  0  0  0  0  0  0
    5.3208   -4.9673   22.1155 H   0  0  0  0  0  0  0  0  0  0  0  0
    4.8534   -4.6552   23.7427 H   0  0  0  0  0  0  0  0  0  0  0  0
   11.0026    4.3934   22.4590 H   0  0  0  0  0  0  0  0  0  0  0  0
  1  3  2  0  0  0  0
  1  5  1  0  0  0  0
  2  4  1  0  0  0  0
  2  5  2  0  0  0  0
  3  6  1  0  0  0  0
  4  6  2  0  0  0  0
  5 18  1  0  0  0  0
  6 23  1  0  0  0  0
  7  8  1  0  0  0  0
  7  9  1  0  0  0  0
  8 14  1  0  0  0  0
  9 15  1  0  0  0  0
 10 12  1  0  0  0  0
 10 16  1  0  0  0  0
 11 13  1  0  0  0  0
 11 16  1  0  0  0  0
 12 18  1  0  0  0  0
 13 18  1  0  0  0  0
 14 20  1  0  0  0  0
 15 20  1  0  0  0  0
 16 17  1  0  0  0  0
 17 20  1  0  0  0  0
 19 23  1  0  0  0  0
 21 23  2  0  0  0  0
 22 23  2  0  0  0  0
  1 24  1  0  0  0  0
  2 25  1  0  0  0  0
  3 26  1  0  0  0  0
  4 27  1  0  0  0  0
  7 28  1  0  0  0  0
  7 29  1  0  0  0  0
  8 30  1  0  0  0  0
  8 31  1  0  0  0  0
  9 32  1  0  0  0  0
  9 33  1  0  0  0  0
 10 34  1  0  0  0  0
 10 35  1  0  0  0  0
 11 36  1  0  0  0  0
 11 37  1  0  0  0  0
 12 38  1  0  0  0  0
 12 39  1  0  0  0  0
 13 40  1  0  0  0  0
 13 41  1  0  0  0  0
 14 42  1  0  0  0  0
 14 43  1  0  0  0  0
 15 44  1  0  0  0  0
 15 45  1  0  0  0  0
 16 46  1  0  0  0  0
 17 47  1  0  0  0  0
 17 48  1  0  0  0  0
 19 49  1  0  0  0  0
 19 50  1  0  0  0  0
 20 51  1  0  0  0  0
M  CHG  1  20   1
M  END
> <Hybrid2>
-9.090502

> <fragments>
x0104

> <Mpro-x0104_dock>
-9.090502

> <Mpro-x0195_dock>
-7.631604

> <Mpro-x1077_dock>
-7.080038

> <Mpro-x0161_dock>
-6.912072

> <Mpro-x0874_dock>
-6.720101

> <Mpro-x1334_dock>
-6.636935

> <Mpro-x0395_dock>
-6.604588

> <Mpro-x0072_dock>
-6.245072

> <Mpro-x0946_dock>
-5.925511

> <Mpro-x1093_dock>
-5.688352

> <Mpro-x0387_dock>
-5.607645

> <Mpro-x0107_dock>
-5.219473

> <Mpro-x0830_dock>
-4.757981

> <Mpro-x1392_dock>
-4.698735

> <Mpro-x0434_dock>
-4.541239

> <Mpro-x0397_dock>
-4.358367

> <Mpro-x0305_dock>
-4.036057

> <Mpro-x1311_dock>
-3.725522

> <Mpro-x1385_dock>
-3.693496

> <Mpro-x0678_dock>
-3.3872

> <Mpro-x1375_dock>
-3.326392

> <Mpro-x0831_dock>
-3.194282

> <Mpro-x1187_dock>
-2.925342

> <Mpro-x0967_dock>
-2.80438

> <Mpro-x0749_dock>
-2.703833

> <Mpro-x1374_dock>
-2.211985

> <Mpro-x0692_dock>
-2.129002

> <Mpro-x1249_dock>
-1.923375

> <Mpro-x0354_dock>
-1.355695

> <Mpro-x1358_dock>
-0.670019

> <Mpro-x1351_dock>
-0.609326

> <Mpro-x0736_dock>
-0.559056

> <Mpro-x1348_dock>
-0.544449

> <Mpro-x0540_dock>
-0.452604

> <Mpro-x0978_dock>
-0.418925

> <Mpro-x1412_dock>
-0.399858

> <Mpro-x1384_dock>
-0.252709

> <Mpro-x1380_dock>
-0.102261

> <Mpro-x0426_dock>
0.146605

> <Mpro-x0774_dock>
0.149632

> <Mpro-x1493_dock>
0.175441

> <Mpro-x0887_dock>
0.308973

> <Mpro-x1418_dock>
0.362793

> <Mpro-x0691_dock>
0.467753

> <Mpro-x0708_dock>
0.489662

> <Mpro-x0771_dock>
0.690008

> <Mpro-x0734_dock>
0.720684

> <Mpro-x1478_dock>
0.747914

> <Mpro-x0759_dock>
0.818602

> <Mpro-x0689_dock>
0.826469

> <Mpro-x1308_dock>
0.859423

> <Mpro-x0769_dock>
0.89709

> <Mpro-x1425_dock>
1.06236

> <Mpro-x0770_dock>
1.207798

> <Mpro-x1458_dock>
1.36488

> <Mpro-x0755_dock>
1.410361

> <Mpro-x1386_dock>
1.501286

> <Mpro-x0820_dock>
1.612656

> <Mpro-x0705_dock>
1.682243

> <Mpro-x0752_dock>
2.551751

> <Mpro-x0981_dock>
2.68376

> <Mpro-x1402_dock>
2.895879

> <Mpro-x0786_dock>
2.913198

> <Mpro-x1382_dock>
3.167272

> <Mpro-x0731_dock>
3.369339

> <site>
active-noncovalent

$$$$
BAR-COM-4e0-36
  -OEChem-04022003013D

 47 48  0     1  0  0  0  0  0999 V2000
   14.5080   -2.1321   22.7939 C   0  0  0  0  0  0  0  0  0  0  0  0
   14.5568   -1.6475   24.1009 C   0  0  0  0  0  0  0  0  0  0  0  0
   13.4048   -1.8528   21.9872 C   0  0  0  0  0  0  0  0  0  0  0  0
   13.5025   -0.8836   24.6013 C   0  0  0  0  0  0  0  0  0  0  0  0
   12.3505   -1.0889   22.4876 C   0  0  0  0  0  0  0  0  0  0  0  0
    6.2833   -0.3717   17.8662 C   0  0  0  0  0  0  0  0  0  0  0  0
    6.0729   -0.3020   19.2231 C   0  0  0  0  0  0  0  0  0  0  0  0
    8.0629    0.4703   18.6753 C   0  0  0  0  0  0  0  0  0  0  0  0
   12.3993   -0.6043   23.7947 C   0  0  0  0  0  0  0  0  0  0  0  0
    8.2251   -0.6468   21.8113 C   0  0  0  0  0  0  0  0  0  0  0  0
    9.3640    0.2214   25.9876 C   0  0  0  0  0  0  0  0  0  0  0  0
    6.2289    0.9144   21.8940 C   0  0  0  0  0  0  0  0  0  0  0  0
    8.2412   -2.2671   24.6367 C   0  0  0  0  0  0  0  0  0  0  0  0
    7.9351    2.1019   26.1073 C   0  0  0  0  0  0  0  0  0  0  0  0
   11.2566    0.2230   24.3363 C   0  0  0  0  0  0  0  0  0  0  0  0
    7.5024    0.5218   21.1445 C   0  0  2  0  0  0  0  0  0  0  0  0
   10.1670   -0.6341   25.0132 C   0  0  2  0  0  0  0  0  0  0  0  0
    9.2466   -1.3229   23.9794 C   0  0  2  0  0  0  0  0  0  0  0  0
    7.5241    0.1103   17.5316 N   0  0  0  0  0  0  0  0  0  0  0  0
    7.2217    0.2390   19.7280 N   0  0  0  0  0  0  0  0  0  0  0  0
    8.5593   -0.3770   23.1311 N   0  0  0  0  0  0  0  0  0  0  0  0
    8.4694   -1.6984   21.2237 O   0  0  0  0  0  0  0  0  0  0  0  0
    9.3052    0.0272   27.1951 O   0  0  0  0  0  0  0  0  0  0  0  0
    8.7302    1.2211   25.3076 O   0  0  0  0  0  0  0  0  0  0  0  0
   15.3297   -2.7258   22.4039 H   0  0  0  0  0  0  0  0  0  0  0  0
   15.4162   -1.8640   24.7288 H   0  0  0  0  0  0  0  0  0  0  0  0
   13.3670   -2.2290   20.9692 H   0  0  0  0  0  0  0  0  0  0  0  0
   13.5491   -0.5104   25.6210 H   0  0  0  0  0  0  0  0  0  0  0  0
   11.4950   -0.8764   21.8519 H   0  0  0  0  0  0  0  0  0  0  0  0
    5.6045   -0.7445   17.1131 H   0  0  0  0  0  0  0  0  0  0  0  0
    5.2365   -0.5803   19.8490 H   0  0  0  0  0  0  0  0  0  0  0  0
    9.0476    0.8990   18.8023 H   0  0  0  0  0  0  0  0  0  0  0  0
    5.4943    0.1018   21.9078 H   0  0  0  0  0  0  0  0  0  0  0  0
    6.4573    1.1667   22.9353 H   0  0  0  0  0  0  0  0  0  0  0  0
    5.7539    1.7854   21.4292 H   0  0  0  0  0  0  0  0  0  0  0  0
    7.5846   -1.7239   25.3240 H   0  0  0  0  0  0  0  0  0  0  0  0
    7.6179   -2.7776   23.8947 H   0  0  0  0  0  0  0  0  0  0  0  0
    8.7613   -3.0429   25.2098 H   0  0  0  0  0  0  0  0  0  0  0  0
    7.4753    2.8600   25.4686 H   0  0  0  0  0  0  0  0  0  0  0  0
    8.5655    2.5793   26.8617 H   0  0  0  0  0  0  0  0  0  0  0  0
    7.1524    1.5228   26.6029 H   0  0  0  0  0  0  0  0  0  0  0  0
   11.6518    0.9730   25.0335 H   0  0  0  0  0  0  0  0  0  0  0  0
   10.8227    0.7900   23.5022 H   0  0  0  0  0  0  0  0  0  0  0  0
    8.1831    1.3833   21.1754 H   0  0  0  0  0  0  0  0  0  0  0  0
   10.6634   -1.4291   25.5875 H   0  0  0  0  0  0  0  0  0  0  0  0
    9.8721   -1.9224   23.3065 H   0  0  0  0  0  0  0  0  0  0  0  0
    8.3089    0.5280   23.5186 H   0  0  0  0  0  0  0  0  0  0  0  0
  1  2  1  0  0  0  0
  1  3  2  0  0  0  0
  2  4  2  0  0  0  0
  3  5  1  0  0  0  0
  4  9  1  0  0  0  0
  5  9  2  0  0  0  0
  6  7  2  0  0  0  0
  6 19  1  0  0  0  0
  7 20  1  0  0  0  0
  8 19  2  0  0  0  0
  8 20  1  0  0  0  0
  9 15  1  0  0  0  0
 10 16  1  0  0  0  0
 10 21  1  0  0  0  0
 10 22  2  0  0  0  0
 11 17  1  0  0  0  0
 11 23  2  0  0  0  0
 11 24  1  0  0  0  0
 12 16  1  0  0  0  0
 13 18  1  0  0  0  0
 14 24  1  0  0  0  0
 15 17  1  0  0  0  0
 16 20  1  0  0  0  0
 17 18  1  0  0  0  0
 18 21  1  0  0  0  0
  1 25  1  0  0  0  0
  2 26  1  0  0  0  0
  3 27  1  0  0  0  0
  4 28  1  0  0  0  0
  5 29  1  0  0  0  0
  6 30  1  0  0  0  0
  7 31  1  0  0  0  0
  8 32  1  0  0  0  0
 12 33  1  0  0  0  0
 12 34  1  0  0  0  0
 12 35  1  0  0  0  0
 13 36  1  0  0  0  0
 13 37  1  0  0  0  0
 13 38  1  0  0  0  0
 14 39  1  0  0  0  0
 14 40  1  0  0  0  0
 14 41  1  0  0  0  0
 15 42  1  0  0  0  0
 15 43  1  0  0  0  0
 16 44  1  0  0  0  0
 17 45  1  0  0  0  0
 18 46  1  0  0  0  0
 21 47  1  0  0  0  0
M  END
> <Hybrid2>
-9.083750

> <fragments>
x0678

> <Mpro-x0678_dock>
-9.08375

> <Mpro-x0107_dock>
-9.063945

> <Mpro-x0104_dock>
-7.33274

> <Mpro-x0195_dock>
-6.965953

> <Mpro-x0161_dock>
-6.823096

> <Mpro-x0874_dock>
-6.774184

> <Mpro-x0072_dock>
-6.632154

> <Mpro-x0749_dock>
-6.411178

> <Mpro-x1093_dock>
-5.824316

> <Mpro-x0434_dock>
-5.764657

> <Mpro-x1077_dock>
-5.660774

> <Mpro-x0946_dock>
-5.643587

> <Mpro-x0967_dock>
-5.553743

> <Mpro-x1311_dock>
-5.068729

> <Mpro-x1385_dock>
-5.06484

> <Mpro-x0831_dock>
-5.027082

> <Mpro-x1392_dock>
-4.28679

> <Mpro-x0395_dock>
-4.26573

> <Mpro-x0830_dock>
-4.136475

> <Mpro-x0387_dock>
-4.123499

> <Mpro-x1375_dock>
-4.085581

> <Mpro-x0397_dock>
-3.985648

> <Mpro-x1374_dock>
-3.964435

> <Mpro-x0820_dock>
-3.804526

> <Mpro-x1418_dock>
-3.75893

> <Mpro-x0759_dock>
-3.69998

> <Mpro-x1386_dock>
-3.424808

> <Mpro-x1334_dock>
-3.422955

> <Mpro-x0692_dock>
-3.271925

> <Mpro-x0769_dock>
-3.22952

> <Mpro-x0736_dock>
-3.226613

> <Mpro-x1308_dock>
-3.183582

> <Mpro-x0771_dock>
-3.120531

> <Mpro-x1187_dock>
-3.109099

> <Mpro-x0755_dock>
-3.090725

> <Mpro-x1493_dock>
-3.071673

> <Mpro-x1382_dock>
-3.026311

> <Mpro-x1402_dock>
-3.015908

> <Mpro-x0691_dock>
-2.976748

> <Mpro-x1249_dock>
-2.775477

> <Mpro-x1348_dock>
-2.62434

> <Mpro-x1380_dock>
-2.527559

> <Mpro-x0774_dock>
-2.453007

> <Mpro-x0731_dock>
-2.404546

> <Mpro-x0770_dock>
-2.373446

> <Mpro-x0689_dock>
-2.372092

> <Mpro-x1458_dock>
-2.32645

> <Mpro-x0354_dock>
-2.297798

> <Mpro-x0708_dock>
-2.291423

> <Mpro-x1478_dock>
-2.195221

> <Mpro-x1358_dock>
-1.972321

> <Mpro-x0305_dock>
-1.643523

> <Mpro-x1425_dock>
-1.5992

> <Mpro-x1412_dock>
-1.555903

> <Mpro-x1384_dock>
-1.393563

> <Mpro-x0734_dock>
-1.249802

> <Mpro-x0705_dock>
-0.982632

> <Mpro-x0786_dock>
-0.668365

> <Mpro-x0752_dock>
-0.353128

> <Mpro-x0887_dock>
-0.259414

> <Mpro-x1351_dock>
-0.252641

> <Mpro-x0540_dock>
-0.247357

> <Mpro-x0978_dock>
0.322557

> <Mpro-x0981_dock>
0.481001

> <Mpro-x0426_dock>
0.680563

> <site>
active-noncovalent

$$$$
ALE-UNK-fca-3
  -OEChem-04022003013D

 42 43  0     0  0  0  0  0  0999 V2000
    6.8653    4.8093   21.8201 C   0  0  0  0  0  0  0  0  0  0  0  0
    7.2059    6.1611   21.7727 C   0  0  0  0  0  0  0  0  0  0  0  0
    7.6531    3.9166   22.5468 C   0  0  0  0  0  0  0  0  0  0  0  0
   10.1772   -1.4544   23.4014 C   0  0  0  0  0  0  0  0  0  0  0  0
    8.3344    6.6201   22.4520 C   0  0  0  0  0  0  0  0  0  0  0  0
    8.7816    4.3756   23.2260 C   0  0  0  0  0  0  0  0  0  0  0  0
   11.3158   -1.5450   22.6007 C   0  0  0  0  0  0  0  0  0  0  0  0
    9.9924   -0.3463   24.2282 C   0  0  0  0  0  0  0  0  0  0  0  0
    9.1223    5.7274   23.1786 C   0  0  0  0  0  0  0  0  0  0  0  0
   12.2696   -0.5276   22.6270 C   0  0  0  0  0  0  0  0  0  0  0  0
   10.9462    0.6712   24.2544 C   0  0  0  0  0  0  0  0  0  0  0  0
   12.0848    0.5805   23.4538 C   0  0  0  0  0  0  0  0  0  0  0  0
   12.7121    3.9621   23.2948 C   0  0  0  0  0  0  0  0  0  0  0  0
   13.4816   -0.6430   21.7623 C   0  0  0  0  0  0  0  0  0  0  0  0
   10.7302    1.8492   25.1464 C   0  0  0  0  0  0  0  0  0  0  0  0
   10.3434    6.2233   23.9135 C   0  0  0  0  0  0  0  0  0  0  0  0
   12.8625    2.6446   22.5646 C   0  0  0  0  0  0  0  0  0  0  0  0
   11.6093    6.1814   23.0611 C   0  0  0  0  0  0  0  0  0  0  0  0
   11.9160    4.8507   22.5890 N   0  0  0  0  0  0  0  0  0  0  0  0
   13.2431    4.1846   24.3794 O   0  0  0  0  0  0  0  0  0  0  0  0
   13.0257    1.5827   23.4805 O   0  0  0  0  0  0  0  0  0  0  0  0
    5.9858    4.4522   21.2922 H   0  0  0  0  0  0  0  0  0  0  0  0
    6.5920    6.8565   21.2079 H   0  0  0  0  0  0  0  0  0  0  0  0
    7.3876    2.8642   22.5848 H   0  0  0  0  0  0  0  0  0  0  0  0
    9.4344   -2.2465   23.3808 H   0  0  0  0  0  0  0  0  0  0  0  0
    8.5923    7.6751   22.4093 H   0  0  0  0  0  0  0  0  0  0  0  0
    9.3896    3.6728   23.7895 H   0  0  0  0  0  0  0  0  0  0  0  0
   11.4508   -2.4122   21.9600 H   0  0  0  0  0  0  0  0  0  0  0  0
    9.1022   -0.2848   24.8484 H   0  0  0  0  0  0  0  0  0  0  0  0
   13.2943   -0.1880   20.7827 H   0  0  0  0  0  0  0  0  0  0  0  0
   14.3445   -0.1437   22.2202 H   0  0  0  0  0  0  0  0  0  0  0  0
   13.7630   -1.6927   21.6121 H   0  0  0  0  0  0  0  0  0  0  0  0
   11.1709    1.6647   26.1330 H   0  0  0  0  0  0  0  0  0  0  0  0
   11.1841    2.7545   24.7246 H   0  0  0  0  0  0  0  0  0  0  0  0
    9.6608    2.0585   25.2747 H   0  0  0  0  0  0  0  0  0  0  0  0
   10.4874    5.6031   24.8073 H   0  0  0  0  0  0  0  0  0  0  0  0
   10.1678    7.2432   24.2790 H   0  0  0  0  0  0  0  0  0  0  0  0
   11.9627    2.4560   21.9713 H   0  0  0  0  0  0  0  0  0  0  0  0
   13.7295    2.6816   21.8977 H   0  0  0  0  0  0  0  0  0  0  0  0
   11.4824    6.8097   22.1738 H   0  0  0  0  0  0  0  0  0  0  0  0
   12.4813    6.5447   23.6147 H   0  0  0  0  0  0  0  0  0  0  0  0
   11.5302    4.5523   21.6979 H   0  0  0  0  0  0  0  0  0  0  0  0
  1  2  1  0  0  0  0
  1  3  2  0  0  0  0
  2  5  2  0  0  0  0
  3  6  1  0  0  0  0
  4  7  2  0  0  0  0
  4  8  1  0  0  0  0
  5  9  1  0  0  0  0
  6  9  2  0  0  0  0
  7 10  1  0  0  0  0
  8 11  2  0  0  0  0
  9 16  1  0  0  0  0
 10 12  2  0  0  0  0
 10 14  1  0  0  0  0
 11 12  1  0  0  0  0
 11 15  1  0  0  0  0
 12 21  1  0  0  0  0
 13 17  1  0  0  0  0
 13 19  1  0  0  0  0
 13 20  2  0  0  0  0
 16 18  1  0  0  0  0
 17 21  1  0  0  0  0
 18 19  1  0  0  0  0
  1 22  1  0  0  0  0
  2 23  1  0  0  0  0
  3 24  1  0  0  0  0
  4 25  1  0  0  0  0
  5 26  1  0  0  0  0
  6 27  1  0  0  0  0
  7 28  1  0  0  0  0
  8 29  1  0  0  0  0
 14 30  1  0  0  0  0
 14 31  1  0  0  0  0
 14 32  1  0  0  0  0
 15 33  1  0  0  0  0
 15 34  1  0  0  0  0
 15 35  1  0  0  0  0
 16 36  1  0  0  0  0
 16 37  1  0  0  0  0
 17 38  1  0  0  0  0
 17 39  1  0  0  0  0
 18 40  1  0  0  0  0
 18 41  1  0  0  0  0
 19 42  1  0  0  0  0
M  END
> <Hybrid2>
-9.082601

> <fragments>
x0104

> <Mpro-x0104_dock>
-9.082601

> <Mpro-x1093_dock>
-8.468757

> <Mpro-x1392_dock>
-7.931996

> <Mpro-x0434_dock>
-7.495593

> <Mpro-x0678_dock>
-7.287699

> <Mpro-x0946_dock>
-7.261436

> <Mpro-x0072_dock>
-7.114024

> <Mpro-x0195_dock>
-7.097856

> <Mpro-x0397_dock>
-7.056285

> <Mpro-x0874_dock>
-6.975792

> <Mpro-x0831_dock>
-6.965656

> <Mpro-x0161_dock>
-6.532759

> <Mpro-x0967_dock>
-6.448476

> <Mpro-x0107_dock>
-6.389337

> <Mpro-x0830_dock>
-6.324049

> <Mpro-x1077_dock>
-6.22603

> <Mpro-x0395_dock>
-6.115709

> <Mpro-x0749_dock>
-6.027819

> <Mpro-x1311_dock>
-5.548819

> <Mpro-x0708_dock>
-5.276321

> <Mpro-x0759_dock>
-4.636883

> <Mpro-x1249_dock>
-4.510015

> <Mpro-x1385_dock>
-4.424508

> <Mpro-x1334_dock>
-4.415807

> <Mpro-x1375_dock>
-4.181499

> <Mpro-x0387_dock>
-4.077925

> <Mpro-x0692_dock>
-3.991502

> <Mpro-x1418_dock>
-3.977279

> <Mpro-x1374_dock>
-3.923067

> <Mpro-x1187_dock>
-3.912303

> <Mpro-x1386_dock>
-3.870214

> <Mpro-x0305_dock>
-3.822138

> <Mpro-x1493_dock>
-3.818247

> <Mpro-x0354_dock>
-3.418519

> <Mpro-x0770_dock>
-3.406657

> <Mpro-x1348_dock>
-3.317004

> <Mpro-x1478_dock>
-2.811704

> <Mpro-x1380_dock>
-2.742003

> <Mpro-x0736_dock>
-2.540484

> <Mpro-x1425_dock>
-2.515513

> <Mpro-x0769_dock>
-2.442839

> <Mpro-x0786_dock>
-2.428521

> <Mpro-x0755_dock>
-2.425176

> <Mpro-x1382_dock>
-2.3343

> <Mpro-x0691_dock>
-2.322385

> <Mpro-x0774_dock>
-2.298121

> <Mpro-x0771_dock>
-2.219073

> <Mpro-x1384_dock>
-1.906404

> <Mpro-x1358_dock>
-1.805202

> <Mpro-x0705_dock>
-1.643447

> <Mpro-x1308_dock>
-1.468218

> <Mpro-x1412_dock>
-1.447652

> <Mpro-x1351_dock>
-1.430268

> <Mpro-x0734_dock>
-1.418316

> <Mpro-x0752_dock>
-1.404683

> <Mpro-x0731_dock>
-1.395139

> <Mpro-x1458_dock>
-1.167424

> <Mpro-x0540_dock>
-1.080708

> <Mpro-x0820_dock>
-0.987553

> <Mpro-x0978_dock>
-0.665906

> <Mpro-x0689_dock>
-0.651881

> <Mpro-x0426_dock>
-0.477034

> <Mpro-x1402_dock>
-0.469882

> <Mpro-x0981_dock>
0.440014

> <Mpro-x0887_dock>
1.012458

> <site>
active-noncovalent

$$$$
MAK-UNK-643-1
  -OEChem-04022003013D

 31 32  0     0  0  0  0  0  0999 V2000
   13.4156   -1.3751   23.2558 C   0  0  0  0  0  0  0  0  0  0  0  0
   12.2403   -1.9525   22.6941 C   0  0  0  0  0  0  0  0  0  0  0  0
   13.1207   -0.4140   24.1975 C   0  0  0  0  0  0  0  0  0  0  0  0
   11.0917   -1.4107   23.2282 C   0  0  0  0  0  0  0  0  0  0  0  0
    7.0155   -5.4426   26.7278 C   0  0  0  0  0  0  0  0  0  0  0  0
    8.7525   -3.6042   26.4549 C   0  0  0  0  0  0  0  0  0  0  0  0
    8.3213   -5.2120   24.6381 C   0  0  0  0  0  0  0  0  0  0  0  0
    8.6703   -2.4521   25.4580 C   0  0  0  0  0  0  0  0  0  0  0  0
    8.2345   -4.0661   23.6363 C   0  0  0  0  0  0  0  0  0  0  0  0
    5.8865   -6.0751   25.9540 C   0  0  0  0  0  0  0  0  0  0  0  0
    7.9729   -4.7549   25.9841 N   0  0  0  0  0  0  0  0  0  0  0  0
    9.0869   -2.9323   24.1057 N   0  0  0  0  0  0  0  0  0  0  0  0
    7.0455   -5.5596   27.9555 O   0  0  0  0  0  0  0  0  0  0  0  0
    8.6524   -0.5102   23.3376 O   0  0  0  0  0  0  0  0  0  0  0  0
    9.2270   -2.2634   21.6218 O   0  0  0  0  0  0  0  0  0  0  0  0
   11.4326   -0.2109   24.4015 S   0  0  0  0  0  0  0  0  0  0  0  0
    9.3736   -1.7025   22.9476 S   0  0  0  0  0  0  0  0  0  0  0  0
   14.4260   -1.6512   22.9836 H   0  0  0  0  0  0  0  0  0  0  0  0
   12.2398   -2.7258   21.9368 H   0  0  0  0  0  0  0  0  0  0  0  0
   13.8156    0.1782   24.7760 H   0  0  0  0  0  0  0  0  0  0  0  0
    9.7896   -3.9456   26.5592 H   0  0  0  0  0  0  0  0  0  0  0  0
    8.4231   -3.2592   27.4365 H   0  0  0  0  0  0  0  0  0  0  0  0
    7.6695   -6.0325   24.3223 H   0  0  0  0  0  0  0  0  0  0  0  0
    9.3449   -5.6028   24.6866 H   0  0  0  0  0  0  0  0  0  0  0  0
    7.6516   -2.0500   25.4123 H   0  0  0  0  0  0  0  0  0  0  0  0
    9.3456   -1.6525   25.7813 H   0  0  0  0  0  0  0  0  0  0  0  0
    8.5987   -4.4145   22.6637 H   0  0  0  0  0  0  0  0  0  0  0  0
    7.1982   -3.7286   23.5194 H   0  0  0  0  0  0  0  0  0  0  0  0
    6.1677   -7.0862   25.6785 H   0  0  0  0  0  0  0  0  0  0  0  0
    5.6941   -5.4877   25.0618 H   0  0  0  0  0  0  0  0  0  0  0  0
    4.9968   -6.0937   26.5751 H   0  0  0  0  0  0  0  0  0  0  0  0
  1  2  1  0  0  0  0
  1  3  2  0  0  0  0
  2  4  2  0  0  0  0
  3 16  1  0  0  0  0
  4 16  1  0  0  0  0
  4 17  1  0  0  0  0
  5 10  1  0  0  0  0
  5 11  1  0  0  0  0
  5 13  2  0  0  0  0
  6  8  1  0  0  0  0
  6 11  1  0  0  0  0
  7  9  1  0  0  0  0
  7 11  1  0  0  0  0
  8 12  1  0  0  0  0
  9 12  1  0  0  0  0
 12 17  1  0  0  0  0
 14 17  2  0  0  0  0
 15 17  2  0  0  0  0
  1 18  1  0  0  0  0
  2 19  1  0  0  0  0
  3 20  1  0  0  0  0
  6 21  1  0  0  0  0
  6 22  1  0  0  0  0
  7 23  1  0  0  0  0
  7 24  1  0  0  0  0
  8 25  1  0  0  0  0
  8 26  1  0  0  0  0
  9 27  1  0  0  0  0
  9 28  1  0  0  0  0
 10 29  1  0  0  0  0
 10 30  1  0  0  0  0
 10 31  1  0  0  0  0
M  END
> <Hybrid2>
-9.079074

> <fragments>
x0072

> <Mpro-x0072_dock>
-9.079074

> <Mpro-x0678_dock>
-8.405409

> <Mpro-x1093_dock>
-8.259086

> <Mpro-x0749_dock>
-7.868236

> <Mpro-x0195_dock>
-6.770909

> <Mpro-x1077_dock>
-6.659809

> <Mpro-x0831_dock>
-6.629778

> <Mpro-x0161_dock>
-6.586473

> <Mpro-x0830_dock>
-6.414808

> <Mpro-x0434_dock>
-6.397192

> <Mpro-x0104_dock>
-6.324827

> <Mpro-x0967_dock>
-6.159598

> <Mpro-x1385_dock>
-6.142862

> <Mpro-x0708_dock>
-6.038777

> <Mpro-x1392_dock>
-6.012248

> <Mpro-x1386_dock>
-5.831583

> <Mpro-x0395_dock>
-5.823426

> <Mpro-x0874_dock>
-5.817964

> <Mpro-x1311_dock>
-5.679595

> <Mpro-x0736_dock>
-5.662277

> <Mpro-x0770_dock>
-5.628829

> <Mpro-x1334_dock>
-5.611911

> <Mpro-x0397_dock>
-5.592872

> <Mpro-x1412_dock>
-5.525587

> <Mpro-x0759_dock>
-5.525053

> <Mpro-x0692_dock>
-5.47426

> <Mpro-x0387_dock>
-5.345423

> <Mpro-x0774_dock>
-5.316298

> <Mpro-x0946_dock>
-5.227457

> <Mpro-x1418_dock>
-5.171069

> <Mpro-x0354_dock>
-4.916173

> <Mpro-x1458_dock>
-4.655341

> <Mpro-x0107_dock>
-4.603009

> <Mpro-x1382_dock>
-4.517561

> <Mpro-x1374_dock>
-4.51063

> <Mpro-x0305_dock>
-4.124944

> <Mpro-x1249_dock>
-4.095852

> <Mpro-x0734_dock>
-3.881265

> <Mpro-x1493_dock>
-3.865178

> <Mpro-x0771_dock>
-3.813785

> <Mpro-x1348_dock>
-3.804977

> <Mpro-x1478_dock>
-3.773605

> <Mpro-x1375_dock>
-3.45113

> <Mpro-x1384_dock>
-3.341307

> <Mpro-x1380_dock>
-3.289729

> <Mpro-x1358_dock>
-3.12444

> <Mpro-x1425_dock>
-3.039302

> <Mpro-x1308_dock>
-3.031362

> <Mpro-x0731_dock>
-2.980992

> <Mpro-x1187_dock>
-2.9313

> <Mpro-x1351_dock>
-2.912556

> <Mpro-x0769_dock>
-2.841198

> <Mpro-x0691_dock>
-2.832613

> <Mpro-x0820_dock>
-2.820162

> <Mpro-x1402_dock>
-2.764986

> <Mpro-x0755_dock>
-2.622385

> <Mpro-x0689_dock>
-2.341794

> <Mpro-x0540_dock>
-2.002742

> <Mpro-x0426_dock>
-1.86164

> <Mpro-x0752_dock>
-1.778301

> <Mpro-x0786_dock>
-1.539288

> <Mpro-x0705_dock>
-1.503579

> <Mpro-x0887_dock>
-0.829505

> <Mpro-x0978_dock>
-0.387116

> <Mpro-x0981_dock>
-0.360562

> <site>
active-noncovalent

$$$$
GIA-UNK-d2d-1
  -OEChem-04022003013D

 51 53  0     1  0  0  0  0  0999 V2000
    6.2157    0.0395   19.8559 C   0  0  0  0  0  0  0  0  0  0  0  0
    8.5993   -0.1081   20.1413 C   0  0  0  0  0  0  0  0  0  0  0  0
    6.4373    0.0997   18.4895 C   0  0  0  0  0  0  0  0  0  0  0  0
    8.7141   -0.0415   18.7621 C   0  0  0  0  0  0  0  0  0  0  0  0
    7.3226   -0.0663   20.6906 C   0  0  0  0  0  0  0  0  0  0  0  0
    7.1419   -0.1348   22.1637 C   0  0  0  0  0  0  0  0  0  0  0  0
   11.2532   -1.1179   23.3392 C   0  0  0  0  0  0  0  0  0  0  0  0
   14.9169   -1.8969   22.9029 C   0  0  0  0  0  0  0  0  0  0  0  0
   14.2234   -1.8200   24.2580 C   0  0  0  0  0  0  0  0  0  0  0  0
   13.9260   -1.7185   21.7585 C   0  0  0  0  0  0  0  0  0  0  0  0
    6.7376   -1.9602   26.1935 C   0  0  0  0  0  0  0  0  0  0  0  0
    7.9651   -2.7226   26.6786 C   0  0  0  0  0  0  0  0  0  0  0  0
   13.4279   -0.5248   24.4182 C   0  0  0  0  0  0  0  0  0  0  0  0
   13.1436   -0.4127   21.8884 C   0  0  0  0  0  0  0  0  0  0  0  0
    6.8039   -1.6943   24.6934 C   0  0  0  0  0  0  0  0  0  0  0  0
    9.2535   -1.9971   26.3062 C   0  0  0  0  0  0  0  0  0  0  0  0
   12.4740   -0.2483   23.2543 C   0  0  0  0  0  0  0  0  0  0  0  0
    8.0930   -0.9667   24.2957 C   0  0  1  0  0  0  0  0  0  0  0  0
    9.3386   -1.7153   24.8030 C   0  0  1  0  0  0  0  0  0  0  0  0
    7.6623    0.0618   17.9190 N   0  0  0  0  0  0  0  0  0  0  0  0
    8.1383   -0.7951   22.8596 N   0  0  0  0  0  0  0  0  0  0  0  0
   10.5468   -0.9742   24.5150 N   0  0  0  0  0  0  0  0  0  0  0  0
    6.1396    0.3638   22.6690 O   0  0  0  0  0  0  0  0  0  0  0  0
   10.9748   -1.8614   22.4057 O   0  0  0  0  0  0  0  0  0  0  0  0
    5.2060    0.0733   20.2512 H   0  0  0  0  0  0  0  0  0  0  0  0
    9.4836   -0.1909   20.7641 H   0  0  0  0  0  0  0  0  0  0  0  0
    5.6076    0.1816   17.7955 H   0  0  0  0  0  0  0  0  0  0  0  0
    9.6876   -0.0699   18.2841 H   0  0  0  0  0  0  0  0  0  0  0  0
   15.6903   -1.1213   22.8426 H   0  0  0  0  0  0  0  0  0  0  0  0
   15.4249   -2.8628   22.8034 H   0  0  0  0  0  0  0  0  0  0  0  0
   13.5522   -2.6798   24.3731 H   0  0  0  0  0  0  0  0  0  0  0  0
   14.9690   -1.8931   25.0580 H   0  0  0  0  0  0  0  0  0  0  0  0
   14.4649   -1.7260   20.8040 H   0  0  0  0  0  0  0  0  0  0  0  0
   13.2345   -2.5689   21.7347 H   0  0  0  0  0  0  0  0  0  0  0  0
    5.8336   -2.5329   26.4300 H   0  0  0  0  0  0  0  0  0  0  0  0
    6.6607   -1.0095   26.7318 H   0  0  0  0  0  0  0  0  0  0  0  0
    7.9110   -2.8506   27.7657 H   0  0  0  0  0  0  0  0  0  0  0  0
    7.9692   -3.7263   26.2406 H   0  0  0  0  0  0  0  0  0  0  0  0
   12.8739   -0.5595   25.3650 H   0  0  0  0  0  0  0  0  0  0  0  0
   14.1379    0.3090   24.5015 H   0  0  0  0  0  0  0  0  0  0  0  0
   13.8339    0.4257   21.7247 H   0  0  0  0  0  0  0  0  0  0  0  0
   12.3931   -0.3629   21.0892 H   0  0  0  0  0  0  0  0  0  0  0  0
    6.7107   -2.6367   24.1441 H   0  0  0  0  0  0  0  0  0  0  0  0
    5.9436   -1.0817   24.4024 H   0  0  0  0  0  0  0  0  0  0  0  0
    9.3342   -1.0664   26.8760 H   0  0  0  0  0  0  0  0  0  0  0  0
   10.1076   -2.6153   26.6022 H   0  0  0  0  0  0  0  0  0  0  0  0
   12.1102    0.7844   23.3365 H   0  0  0  0  0  0  0  0  0  0  0  0
    8.0716    0.0493   24.7071 H   0  0  0  0  0  0  0  0  0  0  0  0
    9.4500   -2.6664   24.2675 H   0  0  0  0  0  0  0  0  0  0  0  0
    8.9067   -1.2378   22.3708 H   0  0  0  0  0  0  0  0  0  0  0  0
   10.8898   -0.3198   25.2085 H   0  0  0  0  0  0  0  0  0  0  0  0
  1  3  2  0  0  0  0
  1  5  1  0  0  0  0
  2  4  1  0  0  0  0
  2  5  2  0  0  0  0
  3 20  1  0  0  0  0
  4 20  2  0  0  0  0
  5  6  1  0  0  0  0
  6 21  1  0  0  0  0
  6 23  2  0  0  0  0
  7 17  1  0  0  0  0
  7 22  1  0  0  0  0
  7 24  2  0  0  0  0
  8  9  1  0  0  0  0
  8 10  1  0  0  0  0
  9 13  1  0  0  0  0
 10 14  1  0  0  0  0
 11 12  1  0  0  0  0
 11 15  1  0  0  0  0
 12 16  1  0  0  0  0
 13 17  1  0  0  0  0
 14 17  1  0  0  0  0
 15 18  1  0  0  0  0
 16 19  1  0  0  0  0
 18 19  1  0  0  0  0
 18 21  1  0  0  0  0
 19 22  1  0  0  0  0
  1 25  1  0  0  0  0
  2 26  1  0  0  0  0
  3 27  1  0  0  0  0
  4 28  1  0  0  0  0
  8 29  1  0  0  0  0
  8 30  1  0  0  0  0
  9 31  1  0  0  0  0
  9 32  1  0  0  0  0
 10 33  1  0  0  0  0
 10 34  1  0  0  0  0
 11 35  1  0  0  0  0
 11 36  1  0  0  0  0
 12 37  1  0  0  0  0
 12 38  1  0  0  0  0
 13 39  1  0  0  0  0
 13 40  1  0  0  0  0
 14 41  1  0  0  0  0
 14 42  1  0  0  0  0
 15 43  1  0  0  0  0
 15 44  1  0  0  0  0
 16 45  1  0  0  0  0
 16 46  1  0  0  0  0
 17 47  1  0  0  0  0
 18 48  1  0  0  0  0
 19 49  1  0  0  0  0
 21 50  1  0  0  0  0
 22 51  1  0  0  0  0
M  END
> <Hybrid2>
-9.073647

> <fragments>
x0678

> <Mpro-x0678_dock>
-9.073647

> <Mpro-x0967_dock>
-7.249237

> <Mpro-x0830_dock>
-6.756358

> <Mpro-x0195_dock>
-6.640053

> <Mpro-x0107_dock>
-6.627612

> <Mpro-x1392_dock>
-6.49684

> <Mpro-x0831_dock>
-6.069549

> <Mpro-x0708_dock>
-6.037399

> <Mpro-x1418_dock>
-5.95531

> <Mpro-x0072_dock>
-5.821264

> <Mpro-x0387_dock>
-5.212147

> <Mpro-x0749_dock>
-5.170843

> <Mpro-x1077_dock>
-5.035717

> <Mpro-x0759_dock>
-4.885158

> <Mpro-x1386_dock>
-4.84475

> <Mpro-x0770_dock>
-4.798938

> <Mpro-x0161_dock>
-4.67328

> <Mpro-x0540_dock>
-4.523577

> <Mpro-x0874_dock>
-4.515486

> <Mpro-x1093_dock>
-4.259627

> <Mpro-x0946_dock>
-4.188304

> <Mpro-x1382_dock>
-4.133253

> <Mpro-x0305_dock>
-4.110492

> <Mpro-x0426_dock>
-3.880992

> <Mpro-x0736_dock>
-3.819071

> <Mpro-x0434_dock>
-3.774808

> <Mpro-x0104_dock>
-3.735641

> <Mpro-x0692_dock>
-3.33222

> <Mpro-x0395_dock>
-3.227991

> <Mpro-x1458_dock>
-3.076412

> <Mpro-x0397_dock>
-2.532055

> <Mpro-x1187_dock>
-2.5041

> <Mpro-x1380_dock>
-2.447112

> <Mpro-x1358_dock>
-2.41416

> <Mpro-x0354_dock>
-2.265339

> <Mpro-x1478_dock>
-2.153395

> <Mpro-x1334_dock>
-1.983682

> <Mpro-x1385_dock>
-1.97261

> <Mpro-x1375_dock>
-1.887395

> <Mpro-x1374_dock>
-1.783042

> <Mpro-x0981_dock>
-1.655769

> <Mpro-x1249_dock>
-1.535105

> <Mpro-x1311_dock>
-1.412857

> <Mpro-x0734_dock>
-1.388188

> <Mpro-x1348_dock>
-1.263449

> <Mpro-x0820_dock>
-1.171827

> <Mpro-x1384_dock>
-1.155627

> <Mpro-x1425_dock>
-0.988075

> <Mpro-x0731_dock>
-0.882176

> <Mpro-x1351_dock>
-0.809709

> <Mpro-x1412_dock>
-0.735767

> <Mpro-x0786_dock>
-0.699032

> <Mpro-x0689_dock>
-0.479807

> <Mpro-x0769_dock>
-0.426725

> <Mpro-x1402_dock>
-0.038262

> <Mpro-x0774_dock>
0.002244

> <Mpro-x0691_dock>
0.239237

> <Mpro-x0755_dock>
0.320256

> <Mpro-x0978_dock>
0.445867

> <Mpro-x0752_dock>
0.526194

> <Mpro-x1308_dock>
0.547178

> <Mpro-x0771_dock>
0.612029

> <Mpro-x0887_dock>
0.691441

> <Mpro-x1493_dock>
0.734392

> <Mpro-x0705_dock>
1.397351

> <site>
active-noncovalent

$$$$
MAK-UNK-643-5
  -OEChem-04022003013D

 34 35  0     0  0  0  0  0  0999 V2000
   12.6078    0.3412   24.6613 C   0  0  0  0  0  0  0  0  0  0  0  0
   13.6861   -0.4354   24.2377 C   0  0  0  0  0  0  0  0  0  0  0  0
   11.3113    0.0075   24.2695 C   0  0  0  0  0  0  0  0  0  0  0  0
   12.1717   -1.8797   23.0303 C   0  0  0  0  0  0  0  0  0  0  0  0
   13.4681   -1.5459   23.4222 C   0  0  0  0  0  0  0  0  0  0  0  0
   11.0933   -1.1030   23.4540 C   0  0  0  0  0  0  0  0  0  0  0  0
    6.6508   -5.2887   26.4188 C   0  0  0  0  0  0  0  0  0  0  0  0
    8.0069   -3.1904   26.0193 C   0  0  0  0  0  0  0  0  0  0  0  0
    7.9792   -5.0371   24.3526 C   0  0  0  0  0  0  0  0  0  0  0  0
    9.3308   -2.8539   25.3457 C   0  0  0  0  0  0  0  0  0  0  0  0
    8.2042   -3.9090   23.3555 C   0  0  0  0  0  0  0  0  0  0  0  0
    5.6855   -4.5258   27.2922 C   0  0  0  0  0  0  0  0  0  0  0  0
    7.5189   -4.5213   25.6419 N   0  0  0  0  0  0  0  0  0  0  0  0
    9.2311   -2.9573   23.8623 N   0  0  0  0  0  0  0  0  0  0  0  0
    6.6387   -6.5218   26.4291 O   0  0  0  0  0  0  0  0  0  0  0  0
    8.5599   -0.5069   23.4670 O   0  0  0  0  0  0  0  0  0  0  0  0
    9.4823   -1.8602   21.5524 O   0  0  0  0  0  0  0  0  0  0  0  0
   14.5040   -2.2914   23.0153 F   0  0  0  0  0  0  0  0  0  0  0  0
    9.4524   -1.5269   22.9602 S   0  0  0  0  0  0  0  0  0  0  0  0
   12.7781    1.2059   25.2960 H   0  0  0  0  0  0  0  0  0  0  0  0
   14.6956   -0.1756   24.5426 H   0  0  0  0  0  0  0  0  0  0  0  0
   10.4783    0.6191   24.6060 H   0  0  0  0  0  0  0  0  0  0  0  0
   12.0141   -2.7468   22.3945 H   0  0  0  0  0  0  0  0  0  0  0  0
    8.1261   -3.1975   27.1155 H   0  0  0  0  0  0  0  0  0  0  0  0
    7.2735   -2.4061   25.7908 H   0  0  0  0  0  0  0  0  0  0  0  0
    7.2636   -5.7597   23.9426 H   0  0  0  0  0  0  0  0  0  0  0  0
    8.9172   -5.5776   24.5401 H   0  0  0  0  0  0  0  0  0  0  0  0
    9.6604   -1.8363   25.6257 H   0  0  0  0  0  0  0  0  0  0  0  0
   10.1022   -3.5573   25.7061 H   0  0  0  0  0  0  0  0  0  0  0  0
    8.5475   -4.3401   22.4018 H   0  0  0  0  0  0  0  0  0  0  0  0
    7.2622   -3.3708   23.1585 H   0  0  0  0  0  0  0  0  0  0  0  0
    4.7725   -4.3418   26.7357 H   0  0  0  0  0  0  0  0  0  0  0  0
    6.1383   -3.5834   27.5837 H   0  0  0  0  0  0  0  0  0  0  0  0
    5.4678   -5.1133   28.1784 H   0  0  0  0  0  0  0  0  0  0  0  0
  1  2  1  0  0  0  0
  1  3  2  0  0  0  0
  2  5  2  0  0  0  0
  3  6  1  0  0  0  0
  4  5  1  0  0  0  0
  4  6  2  0  0  0  0
  5 18  1  0  0  0  0
  6 19  1  0  0  0  0
  7 12  1  0  0  0  0
  7 13  1  0  0  0  0
  7 15  2  0  0  0  0
  8 10  1  0  0  0  0
  8 13  1  0  0  0  0
  9 11  1  0  0  0  0
  9 13  1  0  0  0  0
 10 14  1  0  0  0  0
 11 14  1  0  0  0  0
 14 19  1  0  0  0  0
 16 19  2  0  0  0  0
 17 19  2  0  0  0  0
  1 20  1  0  0  0  0
  2 21  1  0  0  0  0
  3 22  1  0  0  0  0
  4 23  1  0  0  0  0
  8 24  1  0  0  0  0
  8 25  1  0  0  0  0
  9 26  1  0  0  0  0
  9 27  1  0  0  0  0
 10 28  1  0  0  0  0
 10 29  1  0  0  0  0
 11 30  1  0  0  0  0
 11 31  1  0  0  0  0
 12 32  1  0  0  0  0
 12 33  1  0  0  0  0
 12 34  1  0  0  0  0
M  END
> <Hybrid2>
-9.055698

> <fragments>
x0072

> <Mpro-x0072_dock>
-9.055698

> <Mpro-x1093_dock>
-8.688711

> <Mpro-x0749_dock>
-8.580193

> <Mpro-x0678_dock>
-8.32275

> <Mpro-x0830_dock>
-7.676716

> <Mpro-x0195_dock>
-7.44414

> <Mpro-x1386_dock>
-7.400545

> <Mpro-x0831_dock>
-7.226332

> <Mpro-x0874_dock>
-7.048021

> <Mpro-x0161_dock>
-6.996161

> <Mpro-x1418_dock>
-6.916591

> <Mpro-x1077_dock>
-6.682959

> <Mpro-x0395_dock>
-6.581267

> <Mpro-x1385_dock>
-6.446723

> <Mpro-x0104_dock>
-6.339549

> <Mpro-x1392_dock>
-6.033343

> <Mpro-x0708_dock>
-6.006477

> <Mpro-x1311_dock>
-5.988737

> <Mpro-x0434_dock>
-5.874743

> <Mpro-x0387_dock>
-5.768838

> <Mpro-x0692_dock>
-5.741244

> <Mpro-x0736_dock>
-5.642231

> <Mpro-x1334_dock>
-5.613148

> <Mpro-x0770_dock>
-5.511048

> <Mpro-x1412_dock>
-5.410353

> <Mpro-x1382_dock>
-5.33595

> <Mpro-x0354_dock>
-5.334589

> <Mpro-x0774_dock>
-5.294772

> <Mpro-x0759_dock>
-5.129453

> <Mpro-x0107_dock>
-4.901608

> <Mpro-x0397_dock>
-4.72348

> <Mpro-x0967_dock>
-4.667983

> <Mpro-x1249_dock>
-4.56109

> <Mpro-x0946_dock>
-4.41575

> <Mpro-x1348_dock>
-4.123178

> <Mpro-x1458_dock>
-4.012406

> <Mpro-x0305_dock>
-3.828501

> <Mpro-x1478_dock>
-3.805703

> <Mpro-x1380_dock>
-3.771574

> <Mpro-x1358_dock>
-3.378781

> <Mpro-x0820_dock>
-3.318043

> <Mpro-x1374_dock>
-3.308952

> <Mpro-x1375_dock>
-3.264309

> <Mpro-x0734_dock>
-3.260999

> <Mpro-x1493_dock>
-3.255153

> <Mpro-x1384_dock>
-3.152976

> <Mpro-x0771_dock>
-3.125711

> <Mpro-x1187_dock>
-3.078564

> <Mpro-x1351_dock>
-2.890212

> <Mpro-x0769_dock>
-2.719109

> <Mpro-x0752_dock>
-2.604636

> <Mpro-x0755_dock>
-2.517415

> <Mpro-x1308_dock>
-2.438527

> <Mpro-x1402_dock>
-2.356742

> <Mpro-x0691_dock>
-2.240856

> <Mpro-x0731_dock>
-2.204577

> <Mpro-x1425_dock>
-2.146475

> <Mpro-x0689_dock>
-1.865195

> <Mpro-x0705_dock>
-1.58855

> <Mpro-x0981_dock>
-1.587237

> <Mpro-x0786_dock>
-1.529034

> <Mpro-x0540_dock>
-1.31544

> <Mpro-x0426_dock>
-1.259481

> <Mpro-x0887_dock>
-1.073097

> <Mpro-x0978_dock>
-0.272488

> <site>
active-noncovalent

$$$$
NIR-THE-0d6-1
  -OEChem-04022003013D

 37 38  0     0  0  0  0  0  0999 V2000
   12.1406   -0.2952   24.4741 C   0  0  0  0  0  0  0  0  0  0  0  0
   13.2995   -0.7394   25.1106 C   0  0  0  0  0  0  0  0  0  0  0  0
   11.0361   -1.1404   24.3665 C   0  0  0  0  0  0  0  0  0  0  0  0
   12.2496   -2.8742   25.5319 C   0  0  0  0  0  0  0  0  0  0  0  0
   13.3540   -2.0290   25.6395 C   0  0  0  0  0  0  0  0  0  0  0  0
   11.0907   -2.4299   24.8954 C   0  0  0  0  0  0  0  0  0  0  0  0
    5.8374   -4.4971   22.2185 C   0  0  0  0  0  0  0  0  0  0  0  0
    8.8484   -5.3146   24.0680 C   0  0  0  0  0  0  0  0  0  0  0  0
    9.2444   -3.4131   22.4505 C   0  0  0  0  0  0  0  0  0  0  0  0
    7.3929   -4.8632   24.1970 C   0  0  0  0  0  0  0  0  0  0  0  0
    7.7775   -3.0127   22.6088 C   0  0  0  0  0  0  0  0  0  0  0  0
    9.7813   -4.1631   23.6759 C   0  0  0  0  0  0  0  0  0  0  0  0
   14.5935   -2.5038   26.3193 C   0  0  0  0  0  0  0  0  0  0  0  0
    5.0206   -5.6732   22.6916 C   0  0  0  0  0  0  0  0  0  0  0  0
    6.9563   -4.1654   22.9820 N   0  0  0  0  0  0  0  0  0  0  0  0
    9.9958   -3.2676   24.7892 N   0  0  0  0  0  0  0  0  0  0  0  0
    5.4908   -3.8941   21.1995 O   0  0  0  0  0  0  0  0  0  0  0  0
    3.8246   -5.0365   23.8149 Cl  0  0  0  0  0  0  0  0  0  0  0  0
   12.0981    0.7091   24.0623 H   0  0  0  0  0  0  0  0  0  0  0  0
   14.1553   -0.0739   25.1898 H   0  0  0  0  0  0  0  0  0  0  0  0
   10.1380   -0.7839   23.8688 H   0  0  0  0  0  0  0  0  0  0  0  0
   12.2938   -3.8794   25.9452 H   0  0  0  0  0  0  0  0  0  0  0  0
    9.1813   -5.7713   25.0080 H   0  0  0  0  0  0  0  0  0  0  0  0
    8.9096   -6.0999   23.3032 H   0  0  0  0  0  0  0  0  0  0  0  0
    9.3402   -4.0605   21.5690 H   0  0  0  0  0  0  0  0  0  0  0  0
    9.8539   -2.5241   22.2486 H   0  0  0  0  0  0  0  0  0  0  0  0
    6.7691   -5.7324   24.4133 H   0  0  0  0  0  0  0  0  0  0  0  0
    7.2679   -4.1680   25.0347 H   0  0  0  0  0  0  0  0  0  0  0  0
    7.6620   -2.2589   23.3960 H   0  0  0  0  0  0  0  0  0  0  0  0
    7.4185   -2.5633   21.6775 H   0  0  0  0  0  0  0  0  0  0  0  0
   10.7670   -4.5986   23.4119 H   0  0  0  0  0  0  0  0  0  0  0  0
   14.5541   -2.2725   27.3909 H   0  0  0  0  0  0  0  0  0  0  0  0
   14.7222   -3.5877   26.2020 H   0  0  0  0  0  0  0  0  0  0  0  0
   15.4878   -2.0301   25.8938 H   0  0  0  0  0  0  0  0  0  0  0  0
    5.6739   -6.3727   23.2005 H   0  0  0  0  0  0  0  0  0  0  0  0
    4.5272   -6.1242   21.8384 H   0  0  0  0  0  0  0  0  0  0  0  0
    9.3035   -3.2569   25.5263 H   0  0  0  0  0  0  0  0  0  0  0  0
  1  2  2  0  0  0  0
  1  3  1  0  0  0  0
  2  5  1  0  0  0  0
  3  6  2  0  0  0  0
  4  5  2  0  0  0  0
  4  6  1  0  0  0  0
  5 13  1  0  0  0  0
  6 16  1  0  0  0  0
  7 14  1  0  0  0  0
  7 15  1  0  0  0  0
  7 17  2  0  0  0  0
  8 10  1  0  0  0  0
  8 12  1  0  0  0  0
  9 11  1  0  0  0  0
  9 12  1  0  0  0  0
 10 15  1  0  0  0  0
 11 15  1  0  0  0  0
 12 16  1  0  0  0  0
 14 18  1  0  0  0  0
  1 19  1  0  0  0  0
  2 20  1  0  0  0  0
  3 21  1  0  0  0  0
  4 22  1  0  0  0  0
  8 23  1  0  0  0  0
  8 24  1  0  0  0  0
  9 25  1  0  0  0  0
  9 26  1  0  0  0  0
 10 27  1  0  0  0  0
 10 28  1  0  0  0  0
 11 29  1  0  0  0  0
 11 30  1  0  0  0  0
 12 31  1  0  0  0  0
 13 32  1  0  0  0  0
 13 33  1  0  0  0  0
 13 34  1  0  0  0  0
 14 35  1  0  0  0  0
 14 36  1  0  0  0  0
 16 37  1  0  0  0  0
M  END
> <Hybrid2>
-9.036253

> <fragments>
x0749

> <Mpro-x0749_dock>
-9.036253

> <Mpro-x0104_dock>
-8.591687

> <Mpro-x1093_dock>
-7.994719

> <Mpro-x0678_dock>
-7.913719

> <Mpro-x0072_dock>
-7.886873

> <Mpro-x0946_dock>
-7.736431

> <Mpro-x0161_dock>
-7.723912

> <Mpro-x0434_dock>
-7.588339

> <Mpro-x0830_dock>
-7.084709

> <Mpro-x0708_dock>
-7.02486

> <Mpro-x0195_dock>
-6.917241

> <Mpro-x0831_dock>
-6.772682

> <Mpro-x1385_dock>
-6.714097

> <Mpro-x1311_dock>
-6.622603

> <Mpro-x1386_dock>
-6.503514

> <Mpro-x0397_dock>
-6.386785

> <Mpro-x1334_dock>
-6.307178

> <Mpro-x0874_dock>
-6.297286

> <Mpro-x1077_dock>
-5.940541

> <Mpro-x1392_dock>
-5.925466

> <Mpro-x0395_dock>
-5.688468

> <Mpro-x0387_dock>
-5.434735

> <Mpro-x1418_dock>
-5.34438

> <Mpro-x0759_dock>
-5.310276

> <Mpro-x0967_dock>
-5.275077

> <Mpro-x0692_dock>
-5.139591

> <Mpro-x1412_dock>
-5.090723

> <Mpro-x0770_dock>
-5.046651

> <Mpro-x0107_dock>
-4.929811

> <Mpro-x0734_dock>
-4.814472

> <Mpro-x1382_dock>
-4.702171

> <Mpro-x1348_dock>
-4.636585

> <Mpro-x0736_dock>
-4.574186

> <Mpro-x1249_dock>
-4.558125

> <Mpro-x1187_dock>
-4.46312

> <Mpro-x0774_dock>
-4.325322

> <Mpro-x0354_dock>
-4.123003

> <Mpro-x1374_dock>
-3.924323

> <Mpro-x1375_dock>
-3.610728

> <Mpro-x0305_dock>
-3.427034

> <Mpro-x1380_dock>
-3.309205

> <Mpro-x1358_dock>
-3.167678

> <Mpro-x0820_dock>
-2.753756

> <Mpro-x0426_dock>
-2.186559

> <Mpro-x0752_dock>
-2.157162

> <Mpro-x1478_dock>
-2.105893

> <Mpro-x1458_dock>
-2.079589

> <Mpro-x1351_dock>
-2.061537

> <Mpro-x0771_dock>
-1.9641

> <Mpro-x0978_dock>
-1.961825

> <Mpro-x1384_dock>
-1.827955

> <Mpro-x1493_dock>
-1.600778

> <Mpro-x1308_dock>
-1.558458

> <Mpro-x1425_dock>
-1.555178

> <Mpro-x0540_dock>
-1.515313

> <Mpro-x0705_dock>
-1.480855

> <Mpro-x0731_dock>
-1.340756

> <Mpro-x0769_dock>
-1.299456

> <Mpro-x1402_dock>
-1.272032

> <Mpro-x0691_dock>
-1.242173

> <Mpro-x0786_dock>
-1.141724

> <Mpro-x0887_dock>
-1.076024

> <Mpro-x0981_dock>
-0.973104

> <Mpro-x0755_dock>
-0.87369

> <Mpro-x0689_dock>
-0.7517

> <site>
active-covalent

$$$$
BAR-COM-4e0-15
  -OEChem-04022003013D

 45 47  0     0  0  0  0  0  0999 V2000
    7.0538   -0.0693   20.9896 C   0  0  0  0  0  0  0  0  0  0  0  0
    7.3285    0.1541   22.3388 C   0  0  0  0  0  0  0  0  0  0  0  0
    7.5225   -1.2248   20.3644 C   0  0  0  0  0  0  0  0  0  0  0  0
   14.4186   -0.7376   22.3000 C   0  0  0  0  0  0  0  0  0  0  0  0
   12.5396    7.2923   26.1358 C   0  0  0  0  0  0  0  0  0  0  0  0
    8.0719   -0.7779   23.0628 C   0  0  0  0  0  0  0  0  0  0  0  0
    8.2660   -2.1568   21.0884 C   0  0  0  0  0  0  0  0  0  0  0  0
   13.0467    6.4441   25.1576 C   0  0  0  0  0  0  0  0  0  0  0  0
   14.4330    0.6571   22.3047 C   0  0  0  0  0  0  0  0  0  0  0  0
   13.3064   -1.4253   22.7857 C   0  0  0  0  0  0  0  0  0  0  0  0
   12.2231    0.6766   23.2810 C   0  0  0  0  0  0  0  0  0  0  0  0
   11.2102    7.6708   26.0404 C   0  0  0  0  0  0  0  0  0  0  0  0
    8.5407   -1.9334   22.4376 C   0  0  0  0  0  0  0  0  0  0  0  0
   12.2205    6.0065   24.1285 C   0  0  0  0  0  0  0  0  0  0  0  0
   13.3352    1.3643   22.7952 C   0  0  0  0  0  0  0  0  0  0  0  0
   12.2087   -0.7182   23.2762 C   0  0  0  0  0  0  0  0  0  0  0  0
   10.9052    6.4423   24.1230 C   0  0  0  0  0  0  0  0  0  0  0  0
   12.3494    3.6375   23.2484 C   0  0  0  0  0  0  0  0  0  0  0  0
   12.7743    5.0869   23.0719 C   0  0  0  0  0  0  0  0  0  0  0  0
    9.3360   -2.9303   23.2111 C   0  0  0  0  0  0  0  0  0  0  0  0
   10.8417   -2.6614   23.1710 C   0  0  0  0  0  0  0  0  0  0  0  0
   10.3769    7.2662   25.0557 N   0  0  0  0  0  0  0  0  0  0  0  0
   13.3500    2.7595   22.7995 N   0  0  0  0  0  0  0  0  0  0  0  0
   11.2624    3.3264   23.7244 O   0  0  0  0  0  0  0  0  0  0  0  0
   11.1162   -1.3936   23.7536 O   0  0  0  0  0  0  0  0  0  0  0  0
    9.7873    5.9729   22.9029 Cl  0  0  0  0  0  0  0  0  0  0  0  0
    6.4737    0.6559   20.4264 H   0  0  0  0  0  0  0  0  0  0  0  0
    6.9626    1.0532   22.8260 H   0  0  0  0  0  0  0  0  0  0  0  0
    7.3079   -1.3995   19.3143 H   0  0  0  0  0  0  0  0  0  0  0  0
   15.2731   -1.2878   21.9172 H   0  0  0  0  0  0  0  0  0  0  0  0
   13.1652    7.6456   26.9476 H   0  0  0  0  0  0  0  0  0  0  0  0
    8.2813   -0.5954   24.1135 H   0  0  0  0  0  0  0  0  0  0  0  0
    8.6272   -3.0541   20.5930 H   0  0  0  0  0  0  0  0  0  0  0  0
   14.0858    6.1302   25.2060 H   0  0  0  0  0  0  0  0  0  0  0  0
   15.3053    1.1824   21.9242 H   0  0  0  0  0  0  0  0  0  0  0  0
   13.3014   -2.5117   22.7785 H   0  0  0  0  0  0  0  0  0  0  0  0
   11.3645    1.2236   23.6640 H   0  0  0  0  0  0  0  0  0  0  0  0
   10.7665    8.3313   26.7779 H   0  0  0  0  0  0  0  0  0  0  0  0
   12.4523    5.4293   22.0801 H   0  0  0  0  0  0  0  0  0  0  0  0
   13.8705    5.1368   23.0799 H   0  0  0  0  0  0  0  0  0  0  0  0
    9.0009   -2.9493   24.2599 H   0  0  0  0  0  0  0  0  0  0  0  0
    9.1504   -3.9396   22.8125 H   0  0  0  0  0  0  0  0  0  0  0  0
   11.3754   -3.4200   23.7526 H   0  0  0  0  0  0  0  0  0  0  0  0
   11.2256   -2.6693   22.1456 H   0  0  0  0  0  0  0  0  0  0  0  0
   14.1994    3.2001   22.4276 H   0  0  0  0  0  0  0  0  0  0  0  0
  1  2  1  0  0  0  0
  1  3  2  0  0  0  0
  2  6  2  0  0  0  0
  3  7  1  0  0  0  0
  4  9  2  0  0  0  0
  4 10  1  0  0  0  0
  5  8  2  0  0  0  0
  5 12  1  0  0  0  0
  6 13  1  0  0  0  0
  7 13  2  0  0  0  0
  8 14  1  0  0  0  0
  9 15  1  0  0  0  0
 10 16  2  0  0  0  0
 11 15  2  0  0  0  0
 11 16  1  0  0  0  0
 12 22  2  0  0  0  0
 13 20  1  0  0  0  0
 14 17  2  0  0  0  0
 14 19  1  0  0  0  0
 15 23  1  0  0  0  0
 16 25  1  0  0  0  0
 17 22  1  0  0  0  0
 17 26  1  0  0  0  0
 18 19  1  0  0  0  0
 18 23  1  0  0  0  0
 18 24  2  0  0  0  0
 20 21  1  0  0  0  0
 21 25  1  0  0  0  0
  1 27  1  0  0  0  0
  2 28  1  0  0  0  0
  3 29  1  0  0  0  0
  4 30  1  0  0  0  0
  5 31  1  0  0  0  0
  6 32  1  0  0  0  0
  7 33  1  0  0  0  0
  8 34  1  0  0  0  0
  9 35  1  0  0  0  0
 10 36  1  0  0  0  0
 11 37  1  0  0  0  0
 12 38  1  0  0  0  0
 19 39  1  0  0  0  0
 19 40  1  0  0  0  0
 20 41  1  0  0  0  0
 20 42  1  0  0  0  0
 21 43  1  0  0  0  0
 21 44  1  0  0  0  0
 23 45  1  0  0  0  0
M  END
> <Hybrid2>
-9.012136

> <fragments>
x0195

> <Mpro-x0195_dock>
-9.012136

> <Mpro-x0678_dock>
-8.133649

> <Mpro-x0104_dock>
-7.57375

> <Mpro-x0946_dock>
-7.291017

> <Mpro-x0161_dock>
-7.194602

> <Mpro-x1077_dock>
-6.85456

> <Mpro-x0967_dock>
-6.613767

> <Mpro-x0434_dock>
-6.521761

> <Mpro-x0874_dock>
-6.112495

> <Mpro-x0107_dock>
-5.925211

> <Mpro-x0072_dock>
-5.472971

> <Mpro-x0395_dock>
-5.47221

> <Mpro-x1311_dock>
-4.915936

> <Mpro-x1093_dock>
-4.811865

> <Mpro-x0397_dock>
-4.81095

> <Mpro-x0387_dock>
-4.590674

> <Mpro-x0749_dock>
-4.311852

> <Mpro-x0830_dock>
-3.783237

> <Mpro-x0305_dock>
-3.682492

> <Mpro-x1458_dock>
-3.356172

> <Mpro-x1380_dock>
-2.917682

> <Mpro-x1249_dock>
-2.71841

> <Mpro-x1187_dock>
-2.697145

> <Mpro-x1348_dock>
-2.673361

> <Mpro-x1375_dock>
-2.673003

> <Mpro-x0736_dock>
-2.559687

> <Mpro-x1493_dock>
-2.473563

> <Mpro-x1334_dock>
-1.85773

> <Mpro-x0354_dock>
-1.711228

> <Mpro-x0752_dock>
-1.626319

> <Mpro-x1392_dock>
-1.565718

> <Mpro-x1384_dock>
-1.272346

> <Mpro-x1385_dock>
-1.044847

> <Mpro-x0831_dock>
-0.821459

> <Mpro-x0769_dock>
-0.787396

> <Mpro-x0734_dock>
-0.714219

> <Mpro-x0708_dock>
-0.649754

> <Mpro-x1374_dock>
-0.554196

> <Mpro-x0887_dock>
-0.452808

> <Mpro-x1425_dock>
-0.295605

> <Mpro-x0692_dock>
-0.18795

> <Mpro-x0771_dock>
-0.165092

> <Mpro-x0820_dock>
-0.114066

> <Mpro-x1386_dock>
0.078852

> <Mpro-x1308_dock>
0.083607

> <Mpro-x0540_dock>
0.248523

> <Mpro-x0770_dock>
0.264269

> <Mpro-x0691_dock>
0.425802

> <Mpro-x1412_dock>
0.493847

> <Mpro-x1351_dock>
0.915986

> <Mpro-x0755_dock>
0.947785

> <Mpro-x0786_dock>
1.021439

> <Mpro-x0978_dock>
1.083856

> <Mpro-x0731_dock>
1.088967

> <Mpro-x0689_dock>
1.265066

> <Mpro-x1478_dock>
1.342059

> <Mpro-x0426_dock>
1.348885

> <Mpro-x1358_dock>
1.376171

> <Mpro-x1418_dock>
1.784861

> <Mpro-x1402_dock>
1.82947

> <Mpro-x0759_dock>
1.980331

> <Mpro-x0705_dock>
2.341664

> <Mpro-x0774_dock>
2.571243

> <Mpro-x0981_dock>
3.899848

> <Mpro-x1382_dock>
4.464138

> <site>
active-noncovalent

$$$$
MAK-UNK-643-6
  -OEChem-04022003013D

 34 35  0     0  0  0  0  0  0999 V2000
   12.9961   -0.1516   24.5371 C   0  0  0  0  0  0  0  0  0  0  0  0
   12.9914   -1.1202   23.5334 C   0  0  0  0  0  0  0  0  0  0  0  0
   11.8018    0.2168   25.1565 C   0  0  0  0  0  0  0  0  0  0  0  0
   11.7923   -1.7203   23.1491 C   0  0  0  0  0  0  0  0  0  0  0  0
   10.6028   -0.3834   24.7722 C   0  0  0  0  0  0  0  0  0  0  0  0
   10.5980   -1.3520   23.7684 C   0  0  0  0  0  0  0  0  0  0  0  0
    6.8535   -5.6773   27.3150 C   0  0  0  0  0  0  0  0  0  0  0  0
    8.8366   -4.3712   26.6385 C   0  0  0  0  0  0  0  0  0  0  0  0
    7.0874   -4.8501   24.9358 C   0  0  0  0  0  0  0  0  0  0  0  0
    9.0566   -3.1139   25.8089 C   0  0  0  0  0  0  0  0  0  0  0  0
    8.2369   -4.6195   23.9635 C   0  0  0  0  0  0  0  0  0  0  0  0
    5.5439   -6.3024   26.9021 C   0  0  0  0  0  0  0  0  0  0  0  0
    7.5557   -5.0007   26.3176 N   0  0  0  0  0  0  0  0  0  0  0  0
    9.0549   -3.4370   24.3552 N   0  0  0  0  0  0  0  0  0  0  0  0
    7.2416   -5.7883   28.4803 O   0  0  0  0  0  0  0  0  0  0  0  0
    8.0035   -1.2076   23.6234 O   0  0  0  0  0  0  0  0  0  0  0  0
    9.2415   -2.6048   21.9314 O   0  0  0  0  0  0  0  0  0  0  0  0
   11.8004   -2.6493   22.1829 F   0  0  0  0  0  0  0  0  0  0  0  0
    9.4617   -0.0215   25.3753 F   0  0  0  0  0  0  0  0  0  0  0  0
    9.0806   -2.1115   23.2822 S   0  0  0  0  0  0  0  0  0  0  0  0
   13.9303    0.3150   24.8359 H   0  0  0  0  0  0  0  0  0  0  0  0
   13.9206   -1.4069   23.0502 H   0  0  0  0  0  0  0  0  0  0  0  0
   11.8058    0.9707   25.9381 H   0  0  0  0  0  0  0  0  0  0  0  0
    9.6185   -5.1136   26.4218 H   0  0  0  0  0  0  0  0  0  0  0  0
    8.9184   -4.1237   27.7016 H   0  0  0  0  0  0  0  0  0  0  0  0
    6.3631   -4.0263   24.8586 H   0  0  0  0  0  0  0  0  0  0  0  0
    6.5466   -5.7752   24.6804 H   0  0  0  0  0  0  0  0  0  0  0  0
    8.2773   -2.3651   26.0250 H   0  0  0  0  0  0  0  0  0  0  0  0
   10.0282   -2.6731   26.0810 H   0  0  0  0  0  0  0  0  0  0  0  0
    8.8799   -5.5178   23.9536 H   0  0  0  0  0  0  0  0  0  0  0  0
    7.8536   -4.4818   22.9351 H   0  0  0  0  0  0  0  0  0  0  0  0
    5.7262   -7.3166   26.5620 H   0  0  0  0  0  0  0  0  0  0  0  0
    5.1068   -5.7155   26.1005 H   0  0  0  0  0  0  0  0  0  0  0  0
    4.8708   -6.3120   27.7534 H   0  0  0  0  0  0  0  0  0  0  0  0
  1  2  1  0  0  0  0
  1  3  2  0  0  0  0
  2  4  2  0  0  0  0
  3  5  1  0  0  0  0
  4  6  1  0  0  0  0
  4 18  1  0  0  0  0
  5  6  2  0  0  0  0
  5 19  1  0  0  0  0
  6 20  1  0  0  0  0
  7 12  1  0  0  0  0
  7 13  1  0  0  0  0
  7 15  2  0  0  0  0
  8 10  1  0  0  0  0
  8 13  1  0  0  0  0
  9 11  1  0  0  0  0
  9 13  1  0  0  0  0
 10 14  1  0  0  0  0
 11 14  1  0  0  0  0
 14 20  1  0  0  0  0
 16 20  2  0  0  0  0
 17 20  2  0  0  0  0
  1 21  1  0  0  0  0
  2 22  1  0  0  0  0
  3 23  1  0  0  0  0
  8 24  1  0  0  0  0
  8 25  1  0  0  0  0
  9 26  1  0  0  0  0
  9 27  1  0  0  0  0
 10 28  1  0  0  0  0
 10 29  1  0  0  0  0
 11 30  1  0  0  0  0
 11 31  1  0  0  0  0
 12 32  1  0  0  0  0
 12 33  1  0  0  0  0
 12 34  1  0  0  0  0
M  END
> <Hybrid2>
-9.008776

> <fragments>
x0072

> <Mpro-x0072_dock>
-9.008776

> <Mpro-x1093_dock>
-8.672641

> <Mpro-x0678_dock>
-8.666903

> <Mpro-x0749_dock>
-8.298375

> <Mpro-x0830_dock>
-7.786188

> <Mpro-x0831_dock>
-7.289341

> <Mpro-x1077_dock>
-6.73506

> <Mpro-x1386_dock>
-6.695604

> <Mpro-x1392_dock>
-6.670069

> <Mpro-x1418_dock>
-6.663672

> <Mpro-x1385_dock>
-6.590246

> <Mpro-x0708_dock>
-6.587148

> <Mpro-x0161_dock>
-6.551192

> <Mpro-x0354_dock>
-6.408394

> <Mpro-x0195_dock>
-6.34549

> <Mpro-x0395_dock>
-6.344551

> <Mpro-x0434_dock>
-6.276659

> <Mpro-x0874_dock>
-6.235594

> <Mpro-x0104_dock>
-6.165588

> <Mpro-x0774_dock>
-6.135065

> <Mpro-x0692_dock>
-6.127505

> <Mpro-x1311_dock>
-5.711975

> <Mpro-x0770_dock>
-5.682348

> <Mpro-x0387_dock>
-5.648059

> <Mpro-x1412_dock>
-5.646942

> <Mpro-x1334_dock>
-5.491377

> <Mpro-x0759_dock>
-5.480029

> <Mpro-x0946_dock>
-5.367728

> <Mpro-x0397_dock>
-5.168716

> <Mpro-x0736_dock>
-5.11544

> <Mpro-x1249_dock>
-5.022805

> <Mpro-x1458_dock>
-4.660191

> <Mpro-x1348_dock>
-4.618788

> <Mpro-x0967_dock>
-4.447642

> <Mpro-x1187_dock>
-4.435101

> <Mpro-x0820_dock>
-4.407864

> <Mpro-x1478_dock>
-4.078102

> <Mpro-x1375_dock>
-3.865816

> <Mpro-x1382_dock>
-3.79464

> <Mpro-x1493_dock>
-3.630395

> <Mpro-x0734_dock>
-3.586514

> <Mpro-x1374_dock>
-3.579302

> <Mpro-x0107_dock>
-3.500852

> <Mpro-x0305_dock>
-3.479046

> <Mpro-x0771_dock>
-3.440242

> <Mpro-x1380_dock>
-2.865537

> <Mpro-x1402_dock>
-2.83748

> <Mpro-x1358_dock>
-2.82325

> <Mpro-x1351_dock>
-2.657287

> <Mpro-x1384_dock>
-2.460831

> <Mpro-x1308_dock>
-2.363566

> <Mpro-x0731_dock>
-2.330758

> <Mpro-x0769_dock>
-2.2961

> <Mpro-x0691_dock>
-2.243551

> <Mpro-x0755_dock>
-2.120374

> <Mpro-x0752_dock>
-2.096334

> <Mpro-x1425_dock>
-1.768162

> <Mpro-x0689_dock>
-1.678392

> <Mpro-x0426_dock>
-1.48111

> <Mpro-x0540_dock>
-1.378956

> <Mpro-x0705_dock>
-1.359993

> <Mpro-x0981_dock>
-0.907175

> <Mpro-x0978_dock>
-0.905075

> <Mpro-x0786_dock>
-0.787623

> <Mpro-x0887_dock>
-0.472361

> <site>
active-noncovalent

$$$$
WAR-XCH-b72-3
  -OEChem-04022003013D

 24 25  0     0  0  0  0  0  0999 V2000
    9.7156   -2.3627   23.2184 C   0  0  0  0  0  0  0  0  0  0  0  0
   10.1484   -4.3231   24.5624 C   0  0  0  0  0  0  0  0  0  0  0  0
    8.6115   -2.9968   22.6489 C   0  0  0  0  0  0  0  0  0  0  0  0
    9.0442   -4.9573   23.9929 C   0  0  0  0  0  0  0  0  0  0  0  0
   11.7940   -0.9750   24.9764 C   0  0  0  0  0  0  0  0  0  0  0  0
   13.0073   -0.6878   25.5618 C   0  0  0  0  0  0  0  0  0  0  0  0
   12.7091   -3.1008   25.1906 C   0  0  0  0  0  0  0  0  0  0  0  0
   10.4841   -3.0259   24.1751 C   0  0  0  0  0  0  0  0  0  0  0  0
   11.6210   -2.3729   24.7614 C   0  0  0  0  0  0  0  0  0  0  0  0
    8.2758   -4.2941   23.0361 C   0  0  0  0  0  0  0  0  0  0  0  0
    6.3373   -3.8745   21.2554 N   0  0  0  0  0  0  0  0  0  0  0  0
    7.3689   -6.2199   21.5387 O   0  0  0  0  0  0  0  0  0  0  0  0
    5.8925   -5.2944   23.3584 O   0  0  0  0  0  0  0  0  0  0  0  0
   13.9322   -2.0999   25.8498 S   0  0  0  0  0  0  0  0  0  0  0  0
    6.8943   -5.0876   22.3219 S   0  0  0  0  0  0  0  0  0  0  0  0
    9.9636   -1.3509   22.9060 H   0  0  0  0  0  0  0  0  0  0  0  0
   10.7378   -4.8539   25.3066 H   0  0  0  0  0  0  0  0  0  0  0  0
    8.0200   -2.4718   21.9034 H   0  0  0  0  0  0  0  0  0  0  0  0
    8.7921   -5.9687   24.3006 H   0  0  0  0  0  0  0  0  0  0  0  0
   11.0691   -0.2134   24.7169 H   0  0  0  0  0  0  0  0  0  0  0  0
   13.3952    0.2838   25.8338 H   0  0  0  0  0  0  0  0  0  0  0  0
   12.8555   -4.1721   25.1529 H   0  0  0  0  0  0  0  0  0  0  0  0
    6.4709   -4.0206   20.2473 H   0  0  0  0  0  0  0  0  0  0  0  0
    5.4639   -3.3884   21.4922 H   0  0  0  0  0  0  0  0  0  0  0  0
  1  3  2  0  0  0  0
  1  8  1  0  0  0  0
  2  4  1  0  0  0  0
  2  8  2  0  0  0  0
  3 10  1  0  0  0  0
  4 10  2  0  0  0  0
  5  6  2  0  0  0  0
  5  9  1  0  0  0  0
  6 14  1  0  0  0  0
  7  9  2  0  0  0  0
  7 14  1  0  0  0  0
  8  9  1  0  0  0  0
 10 15  1  0  0  0  0
 11 15  1  0  0  0  0
 12 15  2  0  0  0  0
 13 15  2  0  0  0  0
  1 16  1  0  0  0  0
  2 17  1  0  0  0  0
  3 18  1  0  0  0  0
  4 19  1  0  0  0  0
  5 20  1  0  0  0  0
  6 21  1  0  0  0  0
  7 22  1  0  0  0  0
 11 23  1  0  0  0  0
 11 24  1  0  0  0  0
M  END
> <Hybrid2>
-9.004981

> <fragments>
x0749

> <Mpro-x0749_dock>
-9.004981

> <Mpro-x0195_dock>
-7.328629

> <Mpro-x0161_dock>
-7.318345

> <Mpro-x0678_dock>
-6.738851

> <Mpro-x0104_dock>
-6.532508

> <Mpro-x1077_dock>
-6.255762

> <Mpro-x1093_dock>
-6.21732

> <Mpro-x0946_dock>
-6.160905

> <Mpro-x1311_dock>
-6.081185

> <Mpro-x0708_dock>
-5.960897

> <Mpro-x1418_dock>
-5.911117

> <Mpro-x1334_dock>
-5.908537

> <Mpro-x0395_dock>
-5.901704

> <Mpro-x1385_dock>
-5.895287

> <Mpro-x0072_dock>
-5.893764

> <Mpro-x0830_dock>
-5.853127

> <Mpro-x0831_dock>
-5.758632

> <Mpro-x0874_dock>
-5.732514

> <Mpro-x0387_dock>
-5.568362

> <Mpro-x0692_dock>
-5.545361

> <Mpro-x0759_dock>
-5.483803

> <Mpro-x0434_dock>
-5.180094

> <Mpro-x1412_dock>
-5.173519

> <Mpro-x1392_dock>
-5.15177

> <Mpro-x1386_dock>
-4.989112

> <Mpro-x0770_dock>
-4.93989

> <Mpro-x1375_dock>
-4.939127

> <Mpro-x0967_dock>
-4.917165

> <Mpro-x1382_dock>
-4.905002

> <Mpro-x1374_dock>
-4.7992

> <Mpro-x0107_dock>
-4.72831

> <Mpro-x0305_dock>
-4.601429

> <Mpro-x0397_dock>
-4.082704

> <Mpro-x1187_dock>
-3.703546

> <Mpro-x1348_dock>
-3.531691

> <Mpro-x1380_dock>
-3.506042

> <Mpro-x0774_dock>
-3.407055

> <Mpro-x0736_dock>
-3.360453

> <Mpro-x0354_dock>
-3.311629

> <Mpro-x1358_dock>
-3.241873

> <Mpro-x1249_dock>
-2.627982

> <Mpro-x1493_dock>
-2.612

> <Mpro-x1478_dock>
-2.583144

> <Mpro-x0752_dock>
-2.552141

> <Mpro-x0771_dock>
-2.357097

> <Mpro-x1351_dock>
-2.31957

> <Mpro-x1458_dock>
-2.302995

> <Mpro-x1384_dock>
-2.256114

> <Mpro-x0426_dock>
-2.250486

> <Mpro-x0786_dock>
-2.211171

> <Mpro-x0705_dock>
-2.088416

> <Mpro-x1308_dock>
-2.072683

> <Mpro-x0734_dock>
-2.026704

> <Mpro-x0691_dock>
-1.730803

> <Mpro-x1425_dock>
-1.6446

> <Mpro-x0887_dock>
-1.554671

> <Mpro-x0769_dock>
-1.480816

> <Mpro-x0689_dock>
-1.452592

> <Mpro-x0820_dock>
-1.328373

> <Mpro-x0755_dock>
-1.282284

> <Mpro-x1402_dock>
-1.166363

> <Mpro-x0978_dock>
-0.84038

> <Mpro-x0540_dock>
-0.281207

> <Mpro-x0731_dock>
-0.157268

> <Mpro-x0981_dock>
0.444715

> <site>
active-covalent

$$$$
WAR-XCH-eb7-1
  -OEChem-04022003013D

 28 29  0     0  0  0  0  0  0999 V2000
    7.4448   -5.0983   26.7494 C   0  0  0  0  0  0  0  0  0  0  0  0
   10.0127   -3.2611   24.7781 C   0  0  0  0  0  0  0  0  0  0  0  0
    5.1886    1.9731   18.9143 C   0  0  0  0  0  0  0  0  0  0  0  0
    9.4299   -4.1322   25.6984 C   0  0  0  0  0  0  0  0  0  0  0  0
    9.2069   -2.4628   23.9662 C   0  0  0  0  0  0  0  0  0  0  0  0
    5.3068    1.3460   20.1496 C   0  0  0  0  0  0  0  0  0  0  0  0
    7.2352   -3.4070   24.9949 C   0  0  0  0  0  0  0  0  0  0  0  0
    5.8324    1.3977   17.8306 C   0  0  0  0  0  0  0  0  0  0  0  0
    6.6595   -0.3160   19.1180 C   0  0  0  0  0  0  0  0  0  0  0  0
    8.0411   -4.2052   25.8067 C   0  0  0  0  0  0  0  0  0  0  0  0
    7.8182   -2.5358   24.0746 C   0  0  0  0  0  0  0  0  0  0  0  0
    6.0546    0.1791   20.2620 C   0  0  0  0  0  0  0  0  0  0  0  0
    7.2753   -1.2534   21.9581 C   0  0  0  0  0  0  0  0  0  0  0  0
    6.9604   -5.8236   27.5150 N   0  0  0  0  0  0  0  0  0  0  0  0
    6.5675    0.2653   17.9009 N   0  0  0  0  0  0  0  0  0  0  0  0
    7.0125   -1.7363   23.2634 N   0  0  0  0  0  0  0  0  0  0  0  0
    6.1933   -0.4814   21.5055 N   0  0  0  0  0  0  0  0  0  0  0  0
    8.2999   -1.4805   21.3225 O   0  0  0  0  0  0  0  0  0  0  0  0
   11.0942   -3.2036   24.6943 H   0  0  0  0  0  0  0  0  0  0  0  0
    4.6107    2.8835   18.8033 H   0  0  0  0  0  0  0  0  0  0  0  0
   10.0715   -4.7484   26.3235 H   0  0  0  0  0  0  0  0  0  0  0  0
    9.6722   -1.7874   23.2526 H   0  0  0  0  0  0  0  0  0  0  0  0
    4.8125    1.7746   21.0174 H   0  0  0  0  0  0  0  0  0  0  0  0
    6.1514   -3.4618   25.0764 H   0  0  0  0  0  0  0  0  0  0  0  0
    5.7718    1.8487   16.8457 H   0  0  0  0  0  0  0  0  0  0  0  0
    7.2559   -1.2232   19.1423 H   0  0  0  0  0  0  0  0  0  0  0  0
    6.1100   -1.4617   23.6657 H   0  0  0  0  0  0  0  0  0  0  0  0
    5.4099   -0.3800   22.1458 H   0  0  0  0  0  0  0  0  0  0  0  0
  1 10  1  0  0  0  0
  1 14  3  0  0  0  0
  2  4  2  0  0  0  0
  2  5  1  0  0  0  0
  3  6  2  0  0  0  0
  3  8  1  0  0  0  0
  4 10  1  0  0  0  0
  5 11  2  0  0  0  0
  6 12  1  0  0  0  0
  7 10  2  0  0  0  0
  7 11  1  0  0  0  0
  8 15  2  0  0  0  0
  9 12  2  0  0  0  0
  9 15  1  0  0  0  0
 11 16  1  0  0  0  0
 12 17  1  0  0  0  0
 13 16  1  0  0  0  0
 13 17  1  0  0  0  0
 13 18  2  0  0  0  0
  2 19  1  0  0  0  0
  3 20  1  0  0  0  0
  4 21  1  0  0  0  0
  5 22  1  0  0  0  0
  6 23  1  0  0  0  0
  7 24  1  0  0  0  0
  8 25  1  0  0  0  0
  9 26  1  0  0  0  0
 16 27  1  0  0  0  0
 17 28  1  0  0  0  0
M  END
> <Hybrid2>
-8.990379

> <fragments>
x0107

> <Mpro-x0107_dock>
-8.990379

> <Mpro-x0195_dock>
-8.429909

> <Mpro-x0678_dock>
-8.328056

> <Mpro-x0104_dock>
-8.099263

> <Mpro-x0749_dock>
-7.976133

> <Mpro-x1093_dock>
-7.832295

> <Mpro-x0946_dock>
-7.715186

> <Mpro-x1385_dock>
-6.825193

> <Mpro-x0830_dock>
-6.801344

> <Mpro-x0397_dock>
-6.750576

> <Mpro-x0161_dock>
-6.523411

> <Mpro-x0708_dock>
-6.367

> <Mpro-x0967_dock>
-6.309205

> <Mpro-x1077_dock>
-6.28758

> <Mpro-x0072_dock>
-6.034556

> <Mpro-x1348_dock>
-5.429832

> <Mpro-x0434_dock>
-5.183513

> <Mpro-x1311_dock>
-5.069468

> <Mpro-x1375_dock>
-5.06025

> <Mpro-x0305_dock>
-4.836562

> <Mpro-x0874_dock>
-4.754859

> <Mpro-x0540_dock>
-4.659269

> <Mpro-x0387_dock>
-4.614863

> <Mpro-x1187_dock>
-4.53163

> <Mpro-x1392_dock>
-4.414834

> <Mpro-x0395_dock>
-4.413354

> <Mpro-x0759_dock>
-4.333262

> <Mpro-x1418_dock>
-4.231618

> <Mpro-x1412_dock>
-4.112972

> <Mpro-x1334_dock>
-4.060402

> <Mpro-x1249_dock>
-4.033428

> <Mpro-x0354_dock>
-3.922762

> <Mpro-x0831_dock>
-3.907281

> <Mpro-x0734_dock>
-3.904344

> <Mpro-x0692_dock>
-3.891835

> <Mpro-x1374_dock>
-3.74124

> <Mpro-x0981_dock>
-3.587067

> <Mpro-x0426_dock>
-3.537184

> <Mpro-x0774_dock>
-3.324405

> <Mpro-x1380_dock>
-2.472075

> <Mpro-x0820_dock>
-2.372219

> <Mpro-x1351_dock>
-2.31479

> <Mpro-x1358_dock>
-2.250359

> <Mpro-x1478_dock>
-2.045224

> <Mpro-x0978_dock>
-1.950694

> <Mpro-x0887_dock>
-1.882999

> <Mpro-x0770_dock>
-1.804319

> <Mpro-x1386_dock>
-1.767005

> <Mpro-x1458_dock>
-1.71345

> <Mpro-x1384_dock>
-1.36308

> <Mpro-x1493_dock>
-1.143467

> <Mpro-x0786_dock>
-1.051456

> <Mpro-x0736_dock>
-0.973868

> <Mpro-x0691_dock>
-0.893671

> <Mpro-x1425_dock>
-0.740352

> <Mpro-x0705_dock>
-0.709607

> <Mpro-x0769_dock>
-0.68233

> <Mpro-x0771_dock>
-0.645769

> <Mpro-x0689_dock>
-0.407304

> <Mpro-x1308_dock>
-0.247907

> <Mpro-x1402_dock>
-0.205056

> <Mpro-x0755_dock>
-0.149358

> <Mpro-x0752_dock>
-0.042789

> <Mpro-x0731_dock>
0.340214

> <Mpro-x1382_dock>
1.248145

> <site>
active-noncovalent

$$$$
BAR-COM-4e0-4
  -OEChem-04022003013D

 50 52  0     1  0  0  0  0  0999 V2000
   14.0814   -1.3361   23.1914 C   0  0  0  0  0  0  0  0  0  0  0  0
   13.2404   -2.0931   22.3757 C   0  0  0  0  0  0  0  0  0  0  0  0
   13.5973   -0.1870   23.8167 C   0  0  0  0  0  0  0  0  0  0  0  0
   11.9154   -1.7010   22.1853 C   0  0  0  0  0  0  0  0  0  0  0  0
    7.6170   -0.1371   18.7749 C   0  0  0  0  0  0  0  0  0  0  0  0
    5.6222    0.8508   19.3407 C   0  0  0  0  0  0  0  0  0  0  0  0
   12.2724    0.2051   23.6262 C   0  0  0  0  0  0  0  0  0  0  0  0
    6.6440    0.0475   19.7984 C   0  0  0  0  0  0  0  0  0  0  0  0
   11.4314   -0.5518   22.8105 C   0  0  0  0  0  0  0  0  0  0  0  0
    9.1207   -0.8153   21.8246 C   0  0  0  0  0  0  0  0  0  0  0  0
   12.9595    3.2524   23.0511 C   0  0  0  0  0  0  0  0  0  0  0  0
   10.6585    3.6422   23.9078 C   0  0  0  0  0  0  0  0  0  0  0  0
   12.7158    4.3798   22.0529 C   0  0  2  0  0  0  0  0  0  0  0  0
   10.5227    4.7511   22.8690 C   0  0  1  0  0  0  0  0  0  0  0  0
   14.0136    5.1099   21.7366 C   0  0  0  0  0  0  0  0  0  0  0  0
    9.6066    5.8562   23.3762 C   0  0  0  0  0  0  0  0  0  0  0  0
    6.7218   -0.5468   21.1749 C   0  0  0  0  0  0  0  0  0  0  0  0
   11.7792    1.4455   24.3113 C   0  0  0  0  0  0  0  0  0  0  0  0
    7.3942    0.4618   17.6074 N   0  0  0  0  0  0  0  0  0  0  0  0
   10.1013   -0.1755   22.6072 N   0  0  0  0  0  0  0  0  0  0  0  0
    7.9079   -0.1210   21.8814 N   0  0  0  0  0  0  0  0  0  0  0  0
   11.6300    2.6132   23.3785 N   0  3  0  0  0  0  0  0  0  0  0  0
    9.2757   -1.8434   21.1699 O   0  0  0  0  0  0  0  0  0  0  0  0
   11.8034    5.3351   22.6056 O   0  0  0  0  0  0  0  0  0  0  0  0
    5.9580    1.2904   17.7197 S   0  0  0  0  0  0  0  0  0  0  0  0
   15.1131   -1.6408   23.3394 H   0  0  0  0  0  0  0  0  0  0  0  0
   13.6176   -2.9875   21.8882 H   0  0  0  0  0  0  0  0  0  0  0  0
   14.2608    0.3960   24.4499 H   0  0  0  0  0  0  0  0  0  0  0  0
   11.2700   -2.2996   21.5476 H   0  0  0  0  0  0  0  0  0  0  0  0
    8.5229   -0.7222   18.8616 H   0  0  0  0  0  0  0  0  0  0  0  0
    4.7331    1.1868   19.8558 H   0  0  0  0  0  0  0  0  0  0  0  0
   13.6059    2.4751   22.6309 H   0  0  0  0  0  0  0  0  0  0  0  0
   13.3772    3.6213   23.9948 H   0  0  0  0  0  0  0  0  0  0  0  0
   11.0701    4.0129   24.8536 H   0  0  0  0  0  0  0  0  0  0  0  0
    9.7038    3.1363   24.0846 H   0  0  0  0  0  0  0  0  0  0  0  0
   12.2997    3.9869   21.1164 H   0  0  0  0  0  0  0  0  0  0  0  0
   10.1084    4.3576   21.9319 H   0  0  0  0  0  0  0  0  0  0  0  0
   14.4496    5.5115   22.6519 H   0  0  0  0  0  0  0  0  0  0  0  0
   13.8216    5.9325   21.0470 H   0  0  0  0  0  0  0  0  0  0  0  0
   14.7264    4.4239   21.2778 H   0  0  0  0  0  0  0  0  0  0  0  0
    9.9956    6.2660   24.3088 H   0  0  0  0  0  0  0  0  0  0  0  0
    8.6064    5.4602   23.5551 H   0  0  0  0  0  0  0  0  0  0  0  0
    9.5424    6.6568   22.6386 H   0  0  0  0  0  0  0  0  0  0  0  0
    5.8507   -0.2545   21.7715 H   0  0  0  0  0  0  0  0  0  0  0  0
    6.7332   -1.6409   21.1305 H   0  0  0  0  0  0  0  0  0  0  0  0
   10.7978    1.2813   24.7691 H   0  0  0  0  0  0  0  0  0  0  0  0
   12.4680    1.7608   25.1024 H   0  0  0  0  0  0  0  0  0  0  0  0
    9.7869    0.6746   23.0849 H   0  0  0  0  0  0  0  0  0  0  0  0
    7.8588    0.7216   22.4454 H   0  0  0  0  0  0  0  0  0  0  0  0
   11.2403    2.2412   22.5013 H   0  0  0  0  0  0  0  0  0  0  0  0
  1  2  1  0  0  0  0
  1  3  2  0  0  0  0
  2  4  2  0  0  0  0
  3  7  1  0  0  0  0
  4  9  1  0  0  0  0
  5  8  1  0  0  0  0
  5 19  2  0  0  0  0
  6  8  2  0  0  0  0
  6 25  1  0  0  0  0
  7  9  2  0  0  0  0
  7 18  1  0  0  0  0
  8 17  1  0  0  0  0
  9 20  1  0  0  0  0
 10 20  1  0  0  0  0
 10 21  1  0  0  0  0
 10 23  2  0  0  0  0
 11 13  1  0  0  0  0
 11 22  1  0  0  0  0
 12 14  1  0  0  0  0
 12 22  1  0  0  0  0
 13 15  1  0  0  0  0
 13 24  1  0  0  0  0
 14 16  1  0  0  0  0
 14 24  1  0  0  0  0
 17 21  1  0  0  0  0
 18 22  1  0  0  0  0
 19 25  1  0  0  0  0
  1 26  1  0  0  0  0
  2 27  1  0  0  0  0
  3 28  1  0  0  0  0
  4 29  1  0  0  0  0
  5 30  1  0  0  0  0
  6 31  1  0  0  0  0
 11 32  1  0  0  0  0
 11 33  1  0  0  0  0
 12 34  1  0  0  0  0
 12 35  1  0  0  0  0
 13 36  1  0  0  0  0
 14 37  1  0  0  0  0
 15 38  1  0  0  0  0
 15 39  1  0  0  0  0
 15 40  1  0  0  0  0
 16 41  1  0  0  0  0
 16 42  1  0  0  0  0
 16 43  1  0  0  0  0
 17 44  1  0  0  0  0
 17 45  1  0  0  0  0
 18 46  1  0  0  0  0
 18 47  1  0  0  0  0
 20 48  1  0  0  0  0
 21 49  1  0  0  0  0
 22 50  1  0  0  0  0
M  CHG  1  22   1
M  END
> <Hybrid2>
-8.961716

> <fragments>
x0678

> <Mpro-x0678_dock>
-8.961716

> <Mpro-x0195_dock>
-6.975572

> <Mpro-x0434_dock>
-6.695243

> <Mpro-x0946_dock>
-6.418192

> <Mpro-x1093_dock>
-6.200518

> <Mpro-x0749_dock>
-5.881045

> <Mpro-x0967_dock>
-5.854358

> <Mpro-x0830_dock>
-5.659734

> <Mpro-x0107_dock>
-5.469659

> <Mpro-x0708_dock>
-5.332563

> <Mpro-x0831_dock>
-5.260375

> <Mpro-x0072_dock>
-5.181045

> <Mpro-x0397_dock>
-4.920565

> <Mpro-x0161_dock>
-4.845238

> <Mpro-x0104_dock>
-4.785617

> <Mpro-x0874_dock>
-4.625272

> <Mpro-x1385_dock>
-4.050561

> <Mpro-x1392_dock>
-3.908942

> <Mpro-x0692_dock>
-3.32112

> <Mpro-x1334_dock>
-3.272192

> <Mpro-x0387_dock>
-3.178877

> <Mpro-x1077_dock>
-2.941821

> <Mpro-x0774_dock>
-2.930697

> <Mpro-x1249_dock>
-2.852879

> <Mpro-x1187_dock>
-2.761489

> <Mpro-x0305_dock>
-2.640304

> <Mpro-x1418_dock>
-2.637847

> <Mpro-x0395_dock>
-2.530069

> <Mpro-x1386_dock>
-2.466888

> <Mpro-x1348_dock>
-2.450802

> <Mpro-x0734_dock>
-2.359327

> <Mpro-x1458_dock>
-2.313769

> <Mpro-x1478_dock>
-2.302679

> <Mpro-x1412_dock>
-2.139767

> <Mpro-x0354_dock>
-1.873846

> <Mpro-x0770_dock>
-1.719728

> <Mpro-x0820_dock>
-1.56574

> <Mpro-x0759_dock>
-1.52655

> <Mpro-x0540_dock>
-1.390346

> <Mpro-x0769_dock>
-1.305668

> <Mpro-x0426_dock>
-1.050473

> <Mpro-x0731_dock>
-1.011826

> <Mpro-x1384_dock>
-0.991044

> <Mpro-x1358_dock>
-0.986312

> <Mpro-x1425_dock>
-0.904716

> <Mpro-x1402_dock>
-0.798321

> <Mpro-x0755_dock>
-0.743928

> <Mpro-x1351_dock>
-0.688608

> <Mpro-x1380_dock>
-0.674462

> <Mpro-x0736_dock>
-0.613046

> <Mpro-x1493_dock>
-0.414189

> <Mpro-x0978_dock>
0.089238

> <Mpro-x0705_dock>
0.173436

> <Mpro-x0887_dock>
0.259927

> <Mpro-x1374_dock>
0.316785

> <Mpro-x1308_dock>
0.338869

> <Mpro-x1382_dock>
0.418085

> <Mpro-x0752_dock>
0.421756

> <Mpro-x1311_dock>
0.606738

> <Mpro-x0689_dock>
0.618365

> <Mpro-x1375_dock>
1.063072

> <Mpro-x0981_dock>
1.07275

> <Mpro-x0771_dock>
1.618985

> <Mpro-x0691_dock>
1.747784

> <Mpro-x0786_dock>
1.979393

> <site>
active-noncovalent

$$$$
ANN-UNI-263-3
  -OEChem-04022003013D

 28 29  0     0  0  0  0  0  0999 V2000
   15.1216   -1.5963   24.6315 C   0  0  0  0  0  0  0  0  0  0  0  0
    5.4497    1.1303   18.9926 C   0  0  0  0  0  0  0  0  0  0  0  0
   12.8556   -0.7430   24.9765 C   0  0  0  0  0  0  0  0  0  0  0  0
   13.5945   -1.2996   22.7446 C   0  0  0  0  0  0  0  0  0  0  0  0
    6.2275    1.0011   20.1378 C   0  0  0  0  0  0  0  0  0  0  0  0
   11.6124   -0.3638   24.4704 C   0  0  0  0  0  0  0  0  0  0  0  0
   12.3513   -0.9204   22.2385 C   0  0  0  0  0  0  0  0  0  0  0  0
    6.0150    0.7682   17.7805 C   0  0  0  0  0  0  0  0  0  0  0  0
    8.0005    0.1855   18.7787 C   0  0  0  0  0  0  0  0  0  0  0  0
   13.8467   -1.2109   24.1136 C   0  0  0  0  0  0  0  0  0  0  0  0
   11.3602   -0.4525   23.1014 C   0  0  0  0  0  0  0  0  0  0  0  0
    7.5284    0.5205   20.0375 C   0  0  0  0  0  0  0  0  0  0  0  0
    9.6669   -0.0873   21.2525 C   0  0  0  0  0  0  0  0  0  0  0  0
   16.1569   -1.9093   25.0521 N   0  0  0  0  0  0  0  0  0  0  0  0
    7.2749    0.2975   17.6435 N   0  0  0  0  0  0  0  0  0  0  0  0
   10.1167   -0.0728   22.5954 N   0  0  0  0  0  0  0  0  0  0  0  0
    8.3440    0.3782   21.1849 N   0  0  0  0  0  0  0  0  0  0  0  0
   10.3399   -0.4540   20.2945 O   0  0  0  0  0  0  0  0  0  0  0  0
    4.4332    1.5027   19.0471 H   0  0  0  0  0  0  0  0  0  0  0  0
   13.0374   -0.6669   26.0460 H   0  0  0  0  0  0  0  0  0  0  0  0
   14.3575   -1.6618   22.0594 H   0  0  0  0  0  0  0  0  0  0  0  0
    5.8104    1.2775   21.1026 H   0  0  0  0  0  0  0  0  0  0  0  0
   10.8470   -0.0012   25.1519 H   0  0  0  0  0  0  0  0  0  0  0  0
   12.1657   -0.9940   21.1699 H   0  0  0  0  0  0  0  0  0  0  0  0
    5.4500    0.8512   16.8579 H   0  0  0  0  0  0  0  0  0  0  0  0
    9.0076   -0.1952   18.6364 H   0  0  0  0  0  0  0  0  0  0  0  0
    9.4381    0.2612   23.2880 H   0  0  0  0  0  0  0  0  0  0  0  0
    7.9132    0.6487   22.0654 H   0  0  0  0  0  0  0  0  0  0  0  0
  1 10  1  0  0  0  0
  1 14  3  0  0  0  0
  2  5  2  0  0  0  0
  2  8  1  0  0  0  0
  3  6  2  0  0  0  0
  3 10  1  0  0  0  0
  4  7  1  0  0  0  0
  4 10  2  0  0  0  0
  5 12  1  0  0  0  0
  6 11  1  0  0  0  0
  7 11  2  0  0  0  0
  8 15  2  0  0  0  0
  9 12  2  0  0  0  0
  9 15  1  0  0  0  0
 11 16  1  0  0  0  0
 12 17  1  0  0  0  0
 13 16  1  0  0  0  0
 13 17  1  0  0  0  0
 13 18  2  0  0  0  0
  2 19  1  0  0  0  0
  3 20  1  0  0  0  0
  4 21  1  0  0  0  0
  5 22  1  0  0  0  0
  6 23  1  0  0  0  0
  7 24  1  0  0  0  0
  8 25  1  0  0  0  0
  9 26  1  0  0  0  0
 16 27  1  0  0  0  0
 17 28  1  0  0  0  0
M  END
> <Hybrid2>
-8.960938

> <fragments>
x0678

> <Mpro-x0678_dock>
-8.960938

> <Mpro-x0749_dock>
-8.828687

> <Mpro-x0107_dock>
-7.86617

> <Mpro-x0967_dock>
-7.337938

> <Mpro-x0161_dock>
-7.073843

> <Mpro-x1093_dock>
-6.992297

> <Mpro-x0397_dock>
-6.087301

> <Mpro-x1077_dock>
-5.382971

> <Mpro-x0946_dock>
-5.192227

> <Mpro-x0395_dock>
-5.165858

> <Mpro-x0195_dock>
-5.040154

> <Mpro-x0104_dock>
-4.963577

> <Mpro-x0434_dock>
-4.956477

> <Mpro-x0387_dock>
-4.86348

> <Mpro-x0305_dock>
-4.744107

> <Mpro-x0540_dock>
-4.514888

> <Mpro-x1311_dock>
-4.409768

> <Mpro-x1334_dock>
-4.24212

> <Mpro-x1348_dock>
-4.207577

> <Mpro-x1385_dock>
-4.192191

> <Mpro-x0874_dock>
-4.157365

> <Mpro-x0774_dock>
-4.145661

> <Mpro-x0072_dock>
-4.083656

> <Mpro-x0708_dock>
-4.04399

> <Mpro-x1187_dock>
-3.833855

> <Mpro-x0426_dock>
-3.556012

> <Mpro-x0354_dock>
-3.46722

> <Mpro-x0981_dock>
-3.424458

> <Mpro-x0830_dock>
-3.363785

> <Mpro-x1412_dock>
-3.239658

> <Mpro-x1351_dock>
-3.197015

> <Mpro-x1358_dock>
-3.036388

> <Mpro-x1375_dock>
-2.93607

> <Mpro-x0759_dock>
-2.867494

> <Mpro-x1249_dock>
-2.72987

> <Mpro-x1392_dock>
-2.720936

> <Mpro-x0734_dock>
-2.472089

> <Mpro-x0692_dock>
-2.435483

> <Mpro-x1380_dock>
-2.109445

> <Mpro-x1386_dock>
-2.093714

> <Mpro-x0770_dock>
-2.082027

> <Mpro-x1418_dock>
-2.026528

> <Mpro-x0887_dock>
-1.944697

> <Mpro-x1374_dock>
-1.924962

> <Mpro-x0831_dock>
-1.846886

> <Mpro-x1458_dock>
-1.823236

> <Mpro-x0786_dock>
-1.42301

> <Mpro-x0769_dock>
-1.330397

> <Mpro-x0755_dock>
-1.300763

> <Mpro-x1402_dock>
-1.085411

> <Mpro-x1478_dock>
-1.059963

> <Mpro-x0820_dock>
-0.672674

> <Mpro-x1425_dock>
-0.468566

> <Mpro-x1382_dock>
-0.2955

> <Mpro-x0705_dock>
-0.075124

> <Mpro-x0771_dock>
0.128227

> <Mpro-x1493_dock>
0.131469

> <Mpro-x0978_dock>
0.149536

> <Mpro-x1384_dock>
0.3191

> <Mpro-x0736_dock>
0.321323

> <Mpro-x0731_dock>
0.609417

> <Mpro-x0752_dock>
0.908104

> <Mpro-x0691_dock>
0.942605

> <Mpro-x1308_dock>
0.969779

> <Mpro-x0689_dock>
1.186192

> <site>
active-noncovalent

$$$$
ALE-UNK-fca-4
  -OEChem-04022003013D

 36 37  0     0  0  0  0  0  0999 V2000
   14.5657   -2.6221   23.4139 C   0  0  0  0  0  0  0  0  0  0  0  0
    4.8773    1.2580   19.0119 C   0  0  0  0  0  0  0  0  0  0  0  0
   14.3595   -1.8950   24.5863 C   0  0  0  0  0  0  0  0  0  0  0  0
   14.0982   -2.1287   22.1958 C   0  0  0  0  0  0  0  0  0  0  0  0
    5.5895    1.3388   20.2085 C   0  0  0  0  0  0  0  0  0  0  0  0
    5.4970    0.7655   17.8633 C   0  0  0  0  0  0  0  0  0  0  0  0
   13.6858   -0.6745   24.5406 C   0  0  0  0  0  0  0  0  0  0  0  0
   13.4244   -0.9082   22.1502 C   0  0  0  0  0  0  0  0  0  0  0  0
    6.9215    0.9273   20.2565 C   0  0  0  0  0  0  0  0  0  0  0  0
    6.8289    0.3540   17.9114 C   0  0  0  0  0  0  0  0  0  0  0  0
   13.2182   -0.1811   23.3225 C   0  0  0  0  0  0  0  0  0  0  0  0
    7.5412    0.4349   19.1079 C   0  0  0  0  0  0  0  0  0  0  0  0
    9.8980    0.6280   21.2397 C   0  0  0  0  0  0  0  0  0  0  0  0
   12.4890    1.1391   23.2724 C   0  0  0  0  0  0  0  0  0  0  0  0
    9.3283   -0.4815   20.3816 C   0  0  0  0  0  0  0  0  0  0  0  0
   10.9799    0.9930   23.4515 C   0  0  0  0  0  0  0  0  0  0  0  0
   10.3816    0.1454   22.4458 N   0  0  0  0  0  0  0  0  0  0  0  0
    9.9151    1.8024   20.8814 O   0  0  0  0  0  0  0  0  0  0  0  0
    8.8545    0.0307   19.1543 O   0  0  0  0  0  0  0  0  0  0  0  0
   15.0915   -3.5718   23.4495 H   0  0  0  0  0  0  0  0  0  0  0  0
    3.8401    1.5777   18.9743 H   0  0  0  0  0  0  0  0  0  0  0  0
   14.7244   -2.2785   25.5346 H   0  0  0  0  0  0  0  0  0  0  0  0
   14.2595   -2.6940   21.2828 H   0  0  0  0  0  0  0  0  0  0  0  0
    5.1072    1.7224   21.1029 H   0  0  0  0  0  0  0  0  0  0  0  0
    4.9417    0.7027   16.9319 H   0  0  0  0  0  0  0  0  0  0  0  0
   13.5295   -0.1149   25.4591 H   0  0  0  0  0  0  0  0  0  0  0  0
   13.0636   -0.5317   21.1967 H   0  0  0  0  0  0  0  0  0  0  0  0
    7.4712    0.9943   21.1914 H   0  0  0  0  0  0  0  0  0  0  0  0
    7.3070   -0.0271   17.0131 H   0  0  0  0  0  0  0  0  0  0  0  0
   12.6950    1.6139   22.3048 H   0  0  0  0  0  0  0  0  0  0  0  0
   12.8958    1.8168   24.0338 H   0  0  0  0  0  0  0  0  0  0  0  0
   10.1130   -1.2147   20.1720 H   0  0  0  0  0  0  0  0  0  0  0  0
    8.5060   -0.9777   20.9064 H   0  0  0  0  0  0  0  0  0  0  0  0
   10.7621    0.5342   24.4212 H   0  0  0  0  0  0  0  0  0  0  0  0
   10.4725    1.9625   23.4109 H   0  0  0  0  0  0  0  0  0  0  0  0
   10.3121   -0.8509   22.6313 H   0  0  0  0  0  0  0  0  0  0  0  0
  1  3  1  0  0  0  0
  1  4  2  0  0  0  0
  2  5  1  0  0  0  0
  2  6  2  0  0  0  0
  3  7  2  0  0  0  0
  4  8  1  0  0  0  0
  5  9  2  0  0  0  0
  6 10  1  0  0  0  0
  7 11  1  0  0  0  0
  8 11  2  0  0  0  0
  9 12  1  0  0  0  0
 10 12  2  0  0  0  0
 11 14  1  0  0  0  0
 12 19  1  0  0  0  0
 13 15  1  0  0  0  0
 13 17  1  0  0  0  0
 13 18  2  0  0  0  0
 14 16  1  0  0  0  0
 15 19  1  0  0  0  0
 16 17  1  0  0  0  0
  1 20  1  0  0  0  0
  2 21  1  0  0  0  0
  3 22  1  0  0  0  0
  4 23  1  0  0  0  0
  5 24  1  0  0  0  0
  6 25  1  0  0  0  0
  7 26  1  0  0  0  0
  8 27  1  0  0  0  0
  9 28  1  0  0  0  0
 10 29  1  0  0  0  0
 14 30  1  0  0  0  0
 14 31  1  0  0  0  0
 15 32  1  0  0  0  0
 15 33  1  0  0  0  0
 16 34  1  0  0  0  0
 16 35  1  0  0  0  0
 17 36  1  0  0  0  0
M  END
> <Hybrid2>
-8.960869

> <fragments>
x0678

> <Mpro-x0678_dock>
-8.960869

> <Mpro-x1093_dock>
-8.389861

> <Mpro-x0104_dock>
-8.058512

> <Mpro-x0434_dock>
-7.985621

> <Mpro-x1392_dock>
-7.856555

> <Mpro-x0161_dock>
-7.817144

> <Mpro-x0195_dock>
-7.438505

> <Mpro-x0072_dock>
-7.293999

> <Mpro-x0749_dock>
-6.962451

> <Mpro-x1311_dock>
-6.939458

> <Mpro-x0397_dock>
-6.907138

> <Mpro-x0967_dock>
-6.665244

> <Mpro-x0874_dock>
-6.556899

> <Mpro-x0830_dock>
-6.255929

> <Mpro-x0831_dock>
-6.147027

> <Mpro-x1385_dock>
-6.114194

> <Mpro-x1412_dock>
-5.987273

> <Mpro-x1077_dock>
-5.733966

> <Mpro-x0946_dock>
-5.647266

> <Mpro-x1375_dock>
-5.457908

> <Mpro-x0736_dock>
-5.322858

> <Mpro-x0107_dock>
-5.31132

> <Mpro-x0692_dock>
-5.275969

> <Mpro-x1374_dock>
-5.193615

> <Mpro-x1386_dock>
-4.841826

> <Mpro-x0395_dock>
-4.739603

> <Mpro-x0770_dock>
-4.669101

> <Mpro-x1418_dock>
-4.654406

> <Mpro-x0759_dock>
-4.596848

> <Mpro-x1493_dock>
-4.525105

> <Mpro-x0708_dock>
-4.499138

> <Mpro-x0305_dock>
-4.483527

> <Mpro-x1249_dock>
-4.429015

> <Mpro-x1478_dock>
-4.36434

> <Mpro-x1334_dock>
-4.245503

> <Mpro-x0774_dock>
-4.181806

> <Mpro-x0387_dock>
-4.155209

> <Mpro-x0820_dock>
-3.917306

> <Mpro-x1187_dock>
-3.916406

> <Mpro-x0354_dock>
-3.777544

> <Mpro-x0752_dock>
-3.561844

> <Mpro-x1458_dock>
-3.509106

> <Mpro-x1348_dock>
-3.487778

> <Mpro-x0755_dock>
-3.41414

> <Mpro-x0691_dock>
-2.892235

> <Mpro-x0734_dock>
-2.874434

> <Mpro-x1382_dock>
-2.776165

> <Mpro-x1308_dock>
-2.746218

> <Mpro-x1402_dock>
-2.612025

> <Mpro-x0769_dock>
-2.462746

> <Mpro-x0771_dock>
-2.333788

> <Mpro-x0689_dock>
-2.302804

> <Mpro-x1358_dock>
-2.164801

> <Mpro-x1380_dock>
-1.996501

> <Mpro-x1384_dock>
-1.943093

> <Mpro-x1425_dock>
-1.893233

> <Mpro-x0426_dock>
-1.72479

> <Mpro-x1351_dock>
-1.708215

> <Mpro-x0705_dock>
-1.700772

> <Mpro-x0786_dock>
-1.52324

> <Mpro-x0887_dock>
-1.137779

> <Mpro-x0731_dock>
-0.915469

> <Mpro-x0540_dock>
-0.780586

> <Mpro-x0978_dock>
-0.365988

> <Mpro-x0981_dock>
1.511668

> <site>
active-noncovalent

$$$$
WAR-XCH-b72-7
  -OEChem-04022003013D

 39 41  0     0  0  0  0  0  0999 V2000
    6.1942   -3.3382   22.0946 C   0  0  0  0  0  0  0  0  0  0  0  0
   11.5062    1.5840   23.5413 C   0  0  0  0  0  0  0  0  0  0  0  0
   13.6131    0.6233   22.8521 C   0  0  0  0  0  0  0  0  0  0  0  0
   11.9415    2.8406   23.1205 C   0  0  0  0  0  0  0  0  0  0  0  0
   14.0484    1.8799   22.4313 C   0  0  0  0  0  0  0  0  0  0  0  0
    7.3169   -3.7082   22.8729 C   0  0  0  0  0  0  0  0  0  0  0  0
    6.4645   -2.0803   21.6080 C   0  0  0  0  0  0  0  0  0  0  0  0
   12.3420    0.4753   23.4072 C   0  0  0  0  0  0  0  0  0  0  0  0
   13.2125    2.9886   22.5655 C   0  0  0  0  0  0  0  0  0  0  0  0
    8.1934   -2.6502   22.8063 C   0  0  0  0  0  0  0  0  0  0  0  0
    9.5600   -1.1979   24.3739 C   0  0  0  0  0  0  0  0  0  0  0  0
   10.6469   -2.2274   22.3194 C   0  0  0  0  0  0  0  0  0  0  0  0
   10.9619   -0.9461   24.9329 C   0  0  0  0  0  0  0  0  0  0  0  0
   12.0190   -1.9432   22.9416 C   0  0  0  0  0  0  0  0  0  0  0  0
    9.5644   -2.3994   23.4055 C   0  0  0  0  0  0  0  0  0  0  0  0
   11.9083   -0.7783   23.8268 N   0  0  0  0  0  0  0  0  0  0  0  0
   12.3980    5.5223   22.4195 N   0  0  0  0  0  0  0  0  0  0  0  0
   14.8722    4.9677   22.8847 O   0  0  0  0  0  0  0  0  0  0  0  0
   13.9214    4.5339   20.5922 O   0  0  0  0  0  0  0  0  0  0  0  0
    7.6813   -1.6538   22.0372 O   0  0  0  0  0  0  0  0  0  0  0  0
   13.7585    4.5612   22.0391 S   0  0  0  0  0  0  0  0  0  0  0  0
    5.2997   -3.9157   21.9114 H   0  0  0  0  0  0  0  0  0  0  0  0
   10.5139    1.4802   23.9728 H   0  0  0  0  0  0  0  0  0  0  0  0
   14.2721   -0.2342   22.7420 H   0  0  0  0  0  0  0  0  0  0  0  0
   11.2820    3.6973   23.2300 H   0  0  0  0  0  0  0  0  0  0  0  0
   15.0408    1.9835   22.0004 H   0  0  0  0  0  0  0  0  0  0  0  0
    7.4654   -4.6318   23.4141 H   0  0  0  0  0  0  0  0  0  0  0  0
    5.9231   -1.3908   20.9771 H   0  0  0  0  0  0  0  0  0  0  0  0
    8.8682   -1.3863   25.2007 H   0  0  0  0  0  0  0  0  0  0  0  0
    9.2031   -0.2978   23.8612 H   0  0  0  0  0  0  0  0  0  0  0  0
   10.3781   -1.4078   21.6421 H   0  0  0  0  0  0  0  0  0  0  0  0
   10.7090   -3.1330   21.7061 H   0  0  0  0  0  0  0  0  0  0  0  0
   10.9345   -0.0458   25.5529 H   0  0  0  0  0  0  0  0  0  0  0  0
   11.2670   -1.7854   25.5644 H   0  0  0  0  0  0  0  0  0  0  0  0
   12.3573   -2.8124   23.5063 H   0  0  0  0  0  0  0  0  0  0  0  0
   12.7326   -1.7488   22.1409 H   0  0  0  0  0  0  0  0  0  0  0  0
    9.8146   -3.3189   23.9983 H   0  0  0  0  0  0  0  0  0  0  0  0
   12.4745    6.1745   23.2096 H   0  0  0  0  0  0  0  0  0  0  0  0
   11.8253    5.8757   21.6434 H   0  0  0  0  0  0  0  0  0  0  0  0
  1  6  1  0  0  0  0
  1  7  2  0  0  0  0
  2  4  2  0  0  0  0
  2  8  1  0  0  0  0
  3  5  1  0  0  0  0
  3  8  2  0  0  0  0
  4  9  1  0  0  0  0
  5  9  2  0  0  0  0
  6 10  2  0  0  0  0
  7 20  1  0  0  0  0
  8 16  1  0  0  0  0
  9 21  1  0  0  0  0
 10 15  1  0  0  0  0
 10 20  1  0  0  0  0
 11 13  1  0  0  0  0
 11 15  1  0  0  0  0
 12 14  1  0  0  0  0
 12 15  1  0  0  0  0
 13 16  1  0  0  0  0
 14 16  1  0  0  0  0
 17 21  1  0  0  0  0
 18 21  2  0  0  0  0
 19 21  2  0  0  0  0
  1 22  1  0  0  0  0
  2 23  1  0  0  0  0
  3 24  1  0  0  0  0
  4 25  1  0  0  0  0
  5 26  1  0  0  0  0
  6 27  1  0  0  0  0
  7 28  1  0  0  0  0
 11 29  1  0  0  0  0
 11 30  1  0  0  0  0
 12 31  1  0  0  0  0
 12 32  1  0  0  0  0
 13 33  1  0  0  0  0
 13 34  1  0  0  0  0
 14 35  1  0  0  0  0
 14 36  1  0  0  0  0
 15 37  1  0  0  0  0
 17 38  1  0  0  0  0
 17 39  1  0  0  0  0
M  END
> <Hybrid2>
-8.915313

> <fragments>
x0195

> <Mpro-x0195_dock>
-8.915313

> <Mpro-x0072_dock>
-8.560461

> <Mpro-x1093_dock>
-8.141693

> <Mpro-x0161_dock>
-8.099977

> <Mpro-x1077_dock>
-7.880408

> <Mpro-x0946_dock>
-7.336067

> <Mpro-x0830_dock>
-7.147696

> <Mpro-x0749_dock>
-6.566708

> <Mpro-x0107_dock>
-6.40238

> <Mpro-x0874_dock>
-6.203739

> <Mpro-x0395_dock>
-6.18606

> <Mpro-x0397_dock>
-6.092534

> <Mpro-x0967_dock>
-6.072627

> <Mpro-x0678_dock>
-5.910381

> <Mpro-x0692_dock>
-5.323464

> <Mpro-x0104_dock>
-5.251915

> <Mpro-x1392_dock>
-5.143364

> <Mpro-x1348_dock>
-5.017205

> <Mpro-x0708_dock>
-4.633531

> <Mpro-x1311_dock>
-4.497388

> <Mpro-x0387_dock>
-4.386147

> <Mpro-x1187_dock>
-4.306254

> <Mpro-x0831_dock>
-3.952136

> <Mpro-x0759_dock>
-3.863614

> <Mpro-x0434_dock>
-3.594836

> <Mpro-x0354_dock>
-3.513704

> <Mpro-x1249_dock>
-3.486903

> <Mpro-x1334_dock>
-3.248929

> <Mpro-x1385_dock>
-3.121074

> <Mpro-x0305_dock>
-2.912475

> <Mpro-x1374_dock>
-2.747209

> <Mpro-x1358_dock>
-2.737126

> <Mpro-x1493_dock>
-2.682843

> <Mpro-x1412_dock>
-2.66276

> <Mpro-x0770_dock>
-2.396903

> <Mpro-x1375_dock>
-2.300081

> <Mpro-x1386_dock>
-2.206504

> <Mpro-x1418_dock>
-1.998719

> <Mpro-x1384_dock>
-1.670351

> <Mpro-x1478_dock>
-1.65023

> <Mpro-x1351_dock>
-1.62941

> <Mpro-x0540_dock>
-1.45145

> <Mpro-x1458_dock>
-1.433909

> <Mpro-x0771_dock>
-1.325625

> <Mpro-x0734_dock>
-1.179819

> <Mpro-x1380_dock>
-1.057035

> <Mpro-x0736_dock>
-1.051595

> <Mpro-x0426_dock>
-0.698802

> <Mpro-x0774_dock>
-0.410322

> <Mpro-x1425_dock>
-0.399734

> <Mpro-x0691_dock>
-0.352864

> <Mpro-x0820_dock>
-0.339713

> <Mpro-x0887_dock>
-0.314041

> <Mpro-x1308_dock>
-0.232226

> <Mpro-x0705_dock>
-0.131909

> <Mpro-x1382_dock>
-0.028094

> <Mpro-x0755_dock>
0.486661

> <Mpro-x0769_dock>
0.566181

> <Mpro-x0981_dock>
0.753173

> <Mpro-x0978_dock>
0.978682

> <Mpro-x0752_dock>
1.038725

> <Mpro-x0786_dock>
1.069503

> <Mpro-x0689_dock>
1.13363

> <Mpro-x0731_dock>
1.211303

> <Mpro-x1402_dock>
1.821337

> <site>
active-noncovalent

$$$$
JOH-MSK-35a-1
  -OEChem-04022003013D

 33 34  0     0  0  0  0  0  0999 V2000
   10.7268   -0.2504   23.9310 C   0  0  0  0  0  0  0  0  0  0  0  0
   11.7849   -0.8493   23.2412 C   0  0  0  0  0  0  0  0  0  0  0  0
   12.8509    1.3042   22.8900 C   0  0  0  0  0  0  0  0  0  0  0  0
   10.3060    3.2810   24.6152 C   0  0  0  0  0  0  0  0  0  0  0  0
   11.7950    1.9302   23.5818 C   0  0  0  0  0  0  0  0  0  0  0  0
   11.4955    3.2786   23.9239 C   0  0  0  0  0  0  0  0  0  0  0  0
   10.7594    1.1400   24.0853 C   0  0  0  0  0  0  0  0  0  0  0  0
   12.8316   -0.0859   22.7280 C   0  0  0  0  0  0  0  0  0  0  0  0
    9.2671    6.6294   23.3799 C   0  0  0  0  0  0  0  0  0  0  0  0
    8.1507    6.5924   22.3897 C   0  0  0  0  0  0  0  0  0  0  0  0
   13.7766   -2.1162   21.9276 C   0  0  0  0  0  0  0  0  0  0  0  0
   12.3081    4.4688   23.6014 C   0  0  0  0  0  0  0  0  0  0  0  0
   11.5735    5.8057   23.8097 C   0  0  0  0  0  0  0  0  0  0  0  0
    9.8699    1.9865   24.7078 N   0  0  0  0  0  0  0  0  0  0  0  0
   10.3856    5.9028   23.0044 N   0  0  0  0  0  0  0  0  0  0  0  0
    9.1350    7.2708   24.4157 O   0  0  0  0  0  0  0  0  0  0  0  0
   13.8500   -0.6984   22.0606 O   0  0  0  0  0  0  0  0  0  0  0  0
    9.9122   -0.8457   24.3297 H   0  0  0  0  0  0  0  0  0  0  0  0
   11.7837   -1.9284   23.1061 H   0  0  0  0  0  0  0  0  0  0  0  0
   13.6717    1.8911   22.4867 H   0  0  0  0  0  0  0  0  0  0  0  0
    9.7302    4.0863   25.0497 H   0  0  0  0  0  0  0  0  0  0  0  0
    7.4550    5.7574   22.5713 H   0  0  0  0  0  0  0  0  0  0  0  0
    7.5290    7.5016   22.4228 H   0  0  0  0  0  0  0  0  0  0  0  0
    8.4579    6.4898   21.3366 H   0  0  0  0  0  0  0  0  0  0  0  0
   14.6485   -2.4768   21.3765 H   0  0  0  0  0  0  0  0  0  0  0  0
   12.8598   -2.3863   21.3974 H   0  0  0  0  0  0  0  0  0  0  0  0
   13.7657   -2.5665   22.9229 H   0  0  0  0  0  0  0  0  0  0  0  0
   12.6423    4.4265   22.5458 H   0  0  0  0  0  0  0  0  0  0  0  0
   13.2482    4.4866   24.1891 H   0  0  0  0  0  0  0  0  0  0  0  0
   11.2589    5.9226   24.8516 H   0  0  0  0  0  0  0  0  0  0  0  0
   12.2181    6.6521   23.5508 H   0  0  0  0  0  0  0  0  0  0  0  0
    9.0179    1.6937   25.1659 H   0  0  0  0  0  0  0  0  0  0  0  0
   10.3656    5.4119   22.1119 H   0  0  0  0  0  0  0  0  0  0  0  0
  1  2  2  0  0  0  0
  1  7  1  0  0  0  0
  2  8  1  0  0  0  0
  3  5  1  0  0  0  0
  3  8  2  0  0  0  0
  4  6  2  0  0  0  0
  4 14  1  0  0  0  0
  5  6  1  0  0  0  0
  5  7  2  0  0  0  0
  6 12  1  0  0  0  0
  7 14  1  0  0  0  0
  8 17  1  0  0  0  0
  9 10  1  0  0  0  0
  9 15  1  0  0  0  0
  9 16  2  0  0  0  0
 11 17  1  0  0  0  0
 12 13  1  0  0  0  0
 13 15  1  0  0  0  0
  1 18  1  0  0  0  0
  2 19  1  0  0  0  0
  3 20  1  0  0  0  0
  4 21  1  0  0  0  0
 10 22  1  0  0  0  0
 10 23  1  0  0  0  0
 10 24  1  0  0  0  0
 11 25  1  0  0  0  0
 11 26  1  0  0  0  0
 11 27  1  0  0  0  0
 12 28  1  0  0  0  0
 12 29  1  0  0  0  0
 13 30  1  0  0  0  0
 13 31  1  0  0  0  0
 14 32  1  0  0  0  0
 15 33  1  0  0  0  0
M  END
> <Hybrid2>
-8.913157

> <fragments>
x0104

> <Mpro-x0104_dock>
-8.913157

> <Mpro-x0770_dock>
-7.71878

> <Mpro-x0072_dock>
-7.355315

> <Mpro-x0161_dock>
-7.200089

> <Mpro-x1077_dock>
-7.146297

> <Mpro-x0195_dock>
-7.112991

> <Mpro-x0946_dock>
-7.095852

> <Mpro-x0831_dock>
-7.055187

> <Mpro-x0749_dock>
-6.981775

> <Mpro-x0678_dock>
-6.946737

> <Mpro-x0434_dock>
-6.72195

> <Mpro-x0708_dock>
-6.567801

> <Mpro-x0305_dock>
-6.491755

> <Mpro-x1418_dock>
-6.454015

> <Mpro-x0874_dock>
-6.415164

> <Mpro-x1382_dock>
-6.27813

> <Mpro-x0967_dock>
-6.215072

> <Mpro-x0830_dock>
-6.085657

> <Mpro-x1385_dock>
-6.049135

> <Mpro-x0692_dock>
-5.998657

> <Mpro-x0397_dock>
-5.945259

> <Mpro-x0395_dock>
-5.856753

> <Mpro-x1386_dock>
-5.769663

> <Mpro-x0759_dock>
-5.736794

> <Mpro-x1093_dock>
-5.687107

> <Mpro-x1478_dock>
-5.604119

> <Mpro-x1392_dock>
-5.600214

> <Mpro-x0107_dock>
-5.432362

> <Mpro-x1311_dock>
-5.214995

> <Mpro-x1348_dock>
-5.102484

> <Mpro-x1374_dock>
-5.005861

> <Mpro-x1334_dock>
-4.98311

> <Mpro-x1249_dock>
-4.928487

> <Mpro-x1375_dock>
-4.831336

> <Mpro-x0981_dock>
-4.67908

> <Mpro-x1187_dock>
-4.637916

> <Mpro-x0387_dock>
-4.552412

> <Mpro-x1412_dock>
-4.399002

> <Mpro-x0736_dock>
-4.355987

> <Mpro-x0774_dock>
-4.21221

> <Mpro-x0752_dock>
-4.083881

> <Mpro-x1308_dock>
-3.920325

> <Mpro-x0734_dock>
-3.913763

> <Mpro-x0978_dock>
-3.843391

> <Mpro-x0426_dock>
-3.54521

> <Mpro-x1493_dock>
-3.533426

> <Mpro-x1458_dock>
-3.460503

> <Mpro-x0689_dock>
-3.389993

> <Mpro-x0820_dock>
-3.341059

> <Mpro-x1380_dock>
-3.235124

> <Mpro-x1402_dock>
-3.058177

> <Mpro-x0771_dock>
-3.049335

> <Mpro-x0354_dock>
-3.027375

> <Mpro-x1358_dock>
-2.767999

> <Mpro-x0769_dock>
-2.638134

> <Mpro-x0755_dock>
-2.475839

> <Mpro-x0691_dock>
-2.417052

> <Mpro-x1384_dock>
-2.03012

> <Mpro-x1425_dock>
-2.012907

> <Mpro-x1351_dock>
-1.970928

> <Mpro-x0731_dock>
-1.901653

> <Mpro-x0786_dock>
-1.897633

> <Mpro-x0540_dock>
-1.765353

> <Mpro-x0887_dock>
-1.590507

> <Mpro-x0705_dock>
-1.58685

> <site>
active-noncovalent

$$$$
BAR-COM-4e0-43
  -OEChem-04022003013D

 42 45  0     0  0  0  0  0  0999 V2000
   13.8586   -1.6767   21.4183 C   0  0  0  0  0  0  0  0  0  0  0  0
    6.7579    0.3591   18.8665 C   0  0  0  0  0  0  0  0  0  0  0  0
   14.5744   -2.3538   22.4111 C   0  0  0  0  0  0  0  0  0  0  0  0
    6.3590   -0.9164   19.2659 C   0  0  0  0  0  0  0  0  0  0  0  0
   12.8893   -0.7190   21.7489 C   0  0  0  0  0  0  0  0  0  0  0  0
    7.8156    0.9947   19.5168 C   0  0  0  0  0  0  0  0  0  0  0  0
   14.3505   -2.1016   23.7686 C   0  0  0  0  0  0  0  0  0  0  0  0
    7.0177   -1.5563   20.3157 C   0  0  0  0  0  0  0  0  0  0  0  0
   12.6542   -0.4562   23.1064 C   0  0  0  0  0  0  0  0  0  0  0  0
    8.4743    0.3548   20.5667 C   0  0  0  0  0  0  0  0  0  0  0  0
   13.3819   -1.1458   24.0605 C   0  0  0  0  0  0  0  0  0  0  0  0
    8.0754   -0.9207   20.9662 C   0  0  0  0  0  0  0  0  0  0  0  0
   11.8174    0.3806   23.8700 C   0  0  0  0  0  0  0  0  0  0  0  0
    9.5982    1.0499   21.2456 C   0  0  0  0  0  0  0  0  0  0  0  0
    8.1393   -1.4368   25.1531 C   0  0  0  0  0  0  0  0  0  0  0  0
    7.5673   -2.8159   25.3287 C   0  0  0  0  0  0  0  0  0  0  0  0
    8.4794   -2.5225   24.1699 C   0  0  0  0  0  0  0  0  0  0  0  0
   10.8177    1.3475   23.3857 C   0  0  0  0  0  0  0  0  0  0  0  0
    7.9293   -2.4749   22.7604 C   0  0  0  0  0  0  0  0  0  0  0  0
   12.0058    0.2266   25.1841 N   0  0  0  0  0  0  0  0  0  0  0  0
    9.7809    0.7352   22.5811 N   0  0  0  0  0  0  0  0  0  0  0  0
   10.2733    1.8580   20.6134 O   0  0  0  0  0  0  0  0  0  0  0  0
   12.9966   -0.7404   25.3014 O   0  0  0  0  0  0  0  0  0  0  0  0
    8.7079   -1.5631   21.9885 O   0  0  0  0  0  0  0  0  0  0  0  0
   14.0572   -1.8966   20.3722 H   0  0  0  0  0  0  0  0  0  0  0  0
    6.2446    0.8572   18.0488 H   0  0  0  0  0  0  0  0  0  0  0  0
   15.3198   -3.0908   22.1223 H   0  0  0  0  0  0  0  0  0  0  0  0
    5.5351   -1.4105   18.7594 H   0  0  0  0  0  0  0  0  0  0  0  0
   12.3412   -0.2015   20.9681 H   0  0  0  0  0  0  0  0  0  0  0  0
    8.1181    1.9885   19.1967 H   0  0  0  0  0  0  0  0  0  0  0  0
   14.8990   -2.6215   24.5446 H   0  0  0  0  0  0  0  0  0  0  0  0
    6.7021   -2.5500   20.6219 H   0  0  0  0  0  0  0  0  0  0  0  0
    7.4655   -0.6480   24.8424 H   0  0  0  0  0  0  0  0  0  0  0  0
    8.9130   -1.1206   25.8420 H   0  0  0  0  0  0  0  0  0  0  0  0
    7.9575   -3.4246   26.1351 H   0  0  0  0  0  0  0  0  0  0  0  0
    6.5101   -2.9507   25.1358 H   0  0  0  0  0  0  0  0  0  0  0  0
    9.4813   -2.9334   24.2019 H   0  0  0  0  0  0  0  0  0  0  0  0
   10.3065    1.8672   24.2173 H   0  0  0  0  0  0  0  0  0  0  0  0
   11.2675    2.1435   22.7641 H   0  0  0  0  0  0  0  0  0  0  0  0
    6.8897   -2.1341   22.7654 H   0  0  0  0  0  0  0  0  0  0  0  0
    7.9801   -3.4636   22.2947 H   0  0  0  0  0  0  0  0  0  0  0  0
    9.1447    0.1046   23.0552 H   0  0  0  0  0  0  0  0  0  0  0  0
  1  3  1  0  0  0  0
  1  5  2  0  0  0  0
  2  4  1  0  0  0  0
  2  6  2  0  0  0  0
  3  7  2  0  0  0  0
  4  8  2  0  0  0  0
  5  9  1  0  0  0  0
  6 10  1  0  0  0  0
  7 11  1  0  0  0  0
  8 12  1  0  0  0  0
  9 11  2  0  0  0  0
  9 13  1  0  0  0  0
 10 12  2  0  0  0  0
 10 14  1  0  0  0  0
 11 23  1  0  0  0  0
 12 24  1  0  0  0  0
 13 18  1  0  0  0  0
 13 20  2  0  0  0  0
 14 21  1  0  0  0  0
 14 22  2  0  0  0  0
 15 16  1  0  0  0  0
 15 17  1  0  0  0  0
 16 17  1  0  0  0  0
 17 19  1  0  0  0  0
 18 21  1  0  0  0  0
 19 24  1  0  0  0  0
 20 23  1  0  0  0  0
  1 25  1  0  0  0  0
  2 26  1  0  0  0  0
  3 27  1  0  0  0  0
  4 28  1  0  0  0  0
  5 29  1  0  0  0  0
  6 30  1  0  0  0  0
  7 31  1  0  0  0  0
  8 32  1  0  0  0  0
 15 33  1  0  0  0  0
 15 34  1  0  0  0  0
 16 35  1  0  0  0  0
 16 36  1  0  0  0  0
 17 37  1  0  0  0  0
 18 38  1  0  0  0  0
 18 39  1  0  0  0  0
 19 40  1  0  0  0  0
 19 41  1  0  0  0  0
 21 42  1  0  0  0  0
M  END
> <Hybrid2>
-8.908870

> <fragments>
x0678

> <Mpro-x0678_dock>
-8.90887

> <Mpro-x0397_dock>
-8.306007

> <Mpro-x0104_dock>
-8.203565

> <Mpro-x0434_dock>
-7.483777

> <Mpro-x0946_dock>
-7.421143

> <Mpro-x1093_dock>
-7.328883

> <Mpro-x1385_dock>
-7.0905

> <Mpro-x0072_dock>
-6.832548

> <Mpro-x0749_dock>
-6.684611

> <Mpro-x0195_dock>
-6.670947

> <Mpro-x0874_dock>
-6.533236

> <Mpro-x0831_dock>
-6.453627

> <Mpro-x0830_dock>
-6.255392

> <Mpro-x1392_dock>
-6.252004

> <Mpro-x0107_dock>
-6.229347

> <Mpro-x1334_dock>
-6.208814

> <Mpro-x0161_dock>
-5.912202

> <Mpro-x1311_dock>
-5.512741

> <Mpro-x0708_dock>
-5.467895

> <Mpro-x1077_dock>
-5.318717

> <Mpro-x0387_dock>
-5.127423

> <Mpro-x0395_dock>
-5.107535

> <Mpro-x1249_dock>
-5.078658

> <Mpro-x1412_dock>
-4.802976

> <Mpro-x0759_dock>
-4.691804

> <Mpro-x1375_dock>
-4.649238

> <Mpro-x0692_dock>
-4.461002

> <Mpro-x1187_dock>
-4.193868

> <Mpro-x1478_dock>
-3.961526

> <Mpro-x0770_dock>
-3.798158

> <Mpro-x1348_dock>
-3.790487

> <Mpro-x1418_dock>
-3.747811

> <Mpro-x1374_dock>
-3.725487

> <Mpro-x0774_dock>
-3.717401

> <Mpro-x0967_dock>
-3.686726

> <Mpro-x0305_dock>
-3.63601

> <Mpro-x0771_dock>
-3.595905

> <Mpro-x1493_dock>
-3.184474

> <Mpro-x0820_dock>
-3.146714

> <Mpro-x1386_dock>
-3.067602

> <Mpro-x1308_dock>
-3.019784

> <Mpro-x0540_dock>
-2.761112

> <Mpro-x1402_dock>
-2.720872

> <Mpro-x0734_dock>
-2.646704

> <Mpro-x1382_dock>
-2.634203

> <Mpro-x0689_dock>
-2.572846

> <Mpro-x0354_dock>
-2.392163

> <Mpro-x1380_dock>
-2.356458

> <Mpro-x1425_dock>
-1.793486

> <Mpro-x0691_dock>
-1.77627

> <Mpro-x1458_dock>
-1.68961

> <Mpro-x0769_dock>
-1.656421

> <Mpro-x0752_dock>
-1.450661

> <Mpro-x0786_dock>
-1.446145

> <Mpro-x1384_dock>
-1.370927

> <Mpro-x0755_dock>
-1.301944

> <Mpro-x0736_dock>
-1.258906

> <Mpro-x1358_dock>
-1.217485

> <Mpro-x0731_dock>
-0.950419

> <Mpro-x0705_dock>
-0.692179

> <Mpro-x1351_dock>
-0.100543

> <Mpro-x0981_dock>
0.10334

> <Mpro-x0978_dock>
0.475804

> <Mpro-x0426_dock>
0.767785

> <Mpro-x0887_dock>
1.314141

> <site>
active-noncovalent

$$$$
BAR-COM-4e0-66
  -OEChem-04022003013D

 48 50  0     1  0  0  0  0  0999 V2000
   10.2769   -3.0991   23.9721 C   0  0  0  0  0  0  0  0  0  0  0  0
    9.2440   -3.8251   24.5650 C   0  0  0  0  0  0  0  0  0  0  0  0
    9.9882   -1.9516   23.2334 C   0  0  0  0  0  0  0  0  0  0  0  0
    5.2446    0.7088   19.3158 C   0  0  0  0  0  0  0  0  0  0  0  0
    7.6336   -2.2562   23.6805 C   0  0  0  0  0  0  0  0  0  0  0  0
    5.7554    0.2672   18.1059 C   0  0  0  0  0  0  0  0  0  0  0  0
    7.9167    0.6844   18.7641 C   0  0  0  0  0  0  0  0  0  0  0  0
    7.9223   -3.4037   24.4192 C   0  0  0  0  0  0  0  0  0  0  0  0
    7.5071    1.1457   20.0048 C   0  0  0  0  0  0  0  0  0  0  0  0
    8.6666   -1.5302   23.0876 C   0  0  0  0  0  0  0  0  0  0  0  0
    6.1438    1.1548   20.2780 C   0  0  0  0  0  0  0  0  0  0  0  0
    9.2747    0.4722   21.6856 C   0  0  0  0  0  0  0  0  0  0  0  0
    5.0173   -5.8887   24.6492 C   0  0  0  0  0  0  0  0  0  0  0  0
    6.5809   -5.2687   22.8183 C   0  0  0  0  0  0  0  0  0  0  0  0
    4.0636   -6.3897   23.5780 C   0  0  0  0  0  0  0  0  0  0  0  0
    5.5467   -5.8024   21.8416 C   0  0  0  0  0  0  0  0  0  0  0  0
    5.9848   -3.3554   26.0428 C   0  0  0  0  0  0  0  0  0  0  0  0
    8.5379    1.6117   20.9993 C   0  0  0  0  0  0  0  0  0  0  0  0
    6.8035   -4.1907   25.0618 C   0  0  1  0  0  0  0  0  0  0  0  0
    7.0730    0.2434   17.8042 N   0  0  0  0  0  0  0  0  0  0  0  0
    8.3782   -0.3820   22.3493 N   0  0  0  0  0  0  0  0  0  0  0  0
    5.8609   -4.7853   24.0553 N   0  3  0  0  0  0  0  0  0  0  0  0
   10.4953    0.3581   21.6383 O   0  0  0  0  0  0  0  0  0  0  0  0
    4.7894   -6.8557   22.4394 O   0  0  0  0  0  0  0  0  0  0  0  0
    5.5351    1.7128   21.7922 Cl  0  0  0  0  0  0  0  0  0  0  0  0
   11.3061   -3.4269   24.0859 H   0  0  0  0  0  0  0  0  0  0  0  0
    9.4788   -4.7179   25.1379 H   0  0  0  0  0  0  0  0  0  0  0  0
   10.8012   -1.3937   22.7756 H   0  0  0  0  0  0  0  0  0  0  0  0
    4.1741    0.7007   19.4922 H   0  0  0  0  0  0  0  0  0  0  0  0
    6.6020   -1.9300   23.5675 H   0  0  0  0  0  0  0  0  0  0  0  0
    5.0955   -0.0897   17.3221 H   0  0  0  0  0  0  0  0  0  0  0  0
    8.9677    0.6515   18.4943 H   0  0  0  0  0  0  0  0  0  0  0  0
    4.4751   -5.4732   25.5040 H   0  0  0  0  0  0  0  0  0  0  0  0
    5.7030   -6.6764   24.9797 H   0  0  0  0  0  0  0  0  0  0  0  0
    7.2773   -6.0519   23.1373 H   0  0  0  0  0  0  0  0  0  0  0  0
    7.1291   -4.4209   22.3966 H   0  0  0  0  0  0  0  0  0  0  0  0
    3.4829   -7.2324   23.9664 H   0  0  0  0  0  0  0  0  0  0  0  0
    3.3520   -5.6137   23.2715 H   0  0  0  0  0  0  0  0  0  0  0  0
    4.8709   -5.0123   21.4929 H   0  0  0  0  0  0  0  0  0  0  0  0
    6.0498   -6.2163   20.9621 H   0  0  0  0  0  0  0  0  0  0  0  0
    5.5438   -2.4737   25.5646 H   0  0  0  0  0  0  0  0  0  0  0  0
    5.1662   -3.9462   26.4690 H   0  0  0  0  0  0  0  0  0  0  0  0
    6.6100   -3.0055   26.8719 H   0  0  0  0  0  0  0  0  0  0  0  0
    9.2728    2.2523   20.4951 H   0  0  0  0  0  0  0  0  0  0  0  0
    8.0550    2.2318   21.7651 H   0  0  0  0  0  0  0  0  0  0  0  0
    7.2163   -5.0537   25.5972 H   0  0  0  0  0  0  0  0  0  0  0  0
    7.3854   -0.1294   22.2825 H   0  0  0  0  0  0  0  0  0  0  0  0
    5.2237   -4.0300   23.7665 H   0  0  0  0  0  0  0  0  0  0  0  0
  1  2  2  0  0  0  0
  1  3  1  0  0  0  0
  2  8  1  0  0  0  0
  3 10  2  0  0  0  0
  4  6  2  0  0  0  0
  4 11  1  0  0  0  0
  5  8  2  0  0  0  0
  5 10  1  0  0  0  0
  6 20  1  0  0  0  0
  7  9  1  0  0  0  0
  7 20  2  0  0  0  0
  8 19  1  0  0  0  0
  9 11  2  0  0  0  0
  9 18  1  0  0  0  0
 10 21  1  0  0  0  0
 11 25  1  0  0  0  0
 12 18  1  0  0  0  0
 12 21  1  0  0  0  0
 12 23  2  0  0  0  0
 13 15  1  0  0  0  0
 13 22  1  0  0  0  0
 14 16  1  0  0  0  0
 14 22  1  0  0  0  0
 15 24  1  0  0  0  0
 16 24  1  0  0  0  0
 17 19  1  0  0  0  0
 19 22  1  0  0  0  0
  1 26  1  0  0  0  0
  2 27  1  0  0  0  0
  3 28  1  0  0  0  0
  4 29  1  0  0  0  0
  5 30  1  0  0  0  0
  6 31  1  0  0  0  0
  7 32  1  0  0  0  0
 13 33  1  0  0  0  0
 13 34  1  0  0  0  0
 14 35  1  0  0  0  0
 14 36  1  0  0  0  0
 15 37  1  0  0  0  0
 15 38  1  0  0  0  0
 16 39  1  0  0  0  0
 16 40  1  0  0  0  0
 17 41  1  0  0  0  0
 17 42  1  0  0  0  0
 17 43  1  0  0  0  0
 18 44  1  0  0  0  0
 18 45  1  0  0  0  0
 19 46  1  0  0  0  0
 21 47  1  0  0  0  0
 22 48  1  0  0  0  0
M  CHG  1  22   1
M  END
> <Hybrid2>
-8.907784

> <fragments>
x0107

> <Mpro-x0107_dock>
-8.907784

> <Mpro-x0195_dock>
-8.737158

> <Mpro-x0434_dock>
-8.026258

> <Mpro-x0397_dock>
-8.023027

> <Mpro-x0678_dock>
-7.394114

> <Mpro-x0161_dock>
-7.155416

> <Mpro-x0946_dock>
-6.972043

> <Mpro-x0874_dock>
-6.682304

> <Mpro-x0104_dock>
-6.55356

> <Mpro-x0072_dock>
-6.086592

> <Mpro-x1077_dock>
-5.898702

> <Mpro-x0830_dock>
-5.398263

> <Mpro-x0967_dock>
-5.128284

> <Mpro-x0749_dock>
-4.812389

> <Mpro-x1392_dock>
-4.340575

> <Mpro-x1093_dock>
-4.107793

> <Mpro-x1249_dock>
-3.827381

> <Mpro-x1334_dock>
-3.407654

> <Mpro-x0387_dock>
-3.327569

> <Mpro-x0305_dock>
-3.29029

> <Mpro-x1187_dock>
-3.100419

> <Mpro-x1311_dock>
-2.96686

> <Mpro-x1348_dock>
-2.780598

> <Mpro-x1385_dock>
-2.773754

> <Mpro-x0708_dock>
-2.76055

> <Mpro-x0354_dock>
-2.580486

> <Mpro-x0831_dock>
-2.355253

> <Mpro-x1478_dock>
-2.23756

> <Mpro-x0395_dock>
-1.712949

> <Mpro-x1493_dock>
-1.572491

> <Mpro-x1375_dock>
-1.337619

> <Mpro-x0820_dock>
-1.232744

> <Mpro-x0692_dock>
-1.088198

> <Mpro-x1412_dock>
-1.024283

> <Mpro-x1384_dock>
-0.987679

> <Mpro-x0752_dock>
-0.908766

> <Mpro-x1358_dock>
-0.895248

> <Mpro-x0769_dock>
-0.719204

> <Mpro-x1458_dock>
-0.638731

> <Mpro-x0426_dock>
-0.410947

> <Mpro-x1380_dock>
-0.408558

> <Mpro-x1351_dock>
-0.280173

> <Mpro-x0734_dock>
-0.212926

> <Mpro-x1308_dock>
-0.195763

> <Mpro-x0736_dock>
-0.195014

> <Mpro-x1418_dock>
0.154079

> <Mpro-x0540_dock>
0.157517

> <Mpro-x0691_dock>
0.213232

> <Mpro-x0771_dock>
0.308895

> <Mpro-x1386_dock>
0.326163

> <Mpro-x0731_dock>
0.384274

> <Mpro-x0689_dock>
0.55585

> <Mpro-x1402_dock>
0.620534

> <Mpro-x0705_dock>
0.626898

> <Mpro-x0978_dock>
0.714807

> <Mpro-x1374_dock>
0.757173

> <Mpro-x0887_dock>
0.796542

> <Mpro-x1425_dock>
1.045796

> <Mpro-x0786_dock>
1.047305

> <Mpro-x0755_dock>
1.097167

> <Mpro-x0759_dock>
1.147594

> <Mpro-x0981_dock>
1.455206

> <Mpro-x0770_dock>
1.614188

> <Mpro-x0774_dock>
1.651402

> <Mpro-x1382_dock>
2.379714

> <site>
active-noncovalent

$$$$
PAT-UNK-b2d-1
  -OEChem-04022003013D

 36 37  0     0  0  0  0  0  0999 V2000
    3.7692    1.6382   20.0802 C   0  0  0  0  0  0  0  0  0  0  0  0
    6.6075    0.9521   17.7717 C   0  0  0  0  0  0  0  0  0  0  0  0
    5.4228    1.4787   18.2861 C   0  0  0  0  0  0  0  0  0  0  0  0
    7.3528    0.0452   18.5254 C   0  0  0  0  0  0  0  0  0  0  0  0
    5.7286    0.1918   20.3079 C   0  0  0  0  0  0  0  0  0  0  0  0
    4.9833    1.0986   19.5542 C   0  0  0  0  0  0  0  0  0  0  0  0
    6.9133   -0.3349   19.7934 C   0  0  0  0  0  0  0  0  0  0  0  0
   11.9187    0.8468   23.4967 C   0  0  0  0  0  0  0  0  0  0  0  0
   11.1807   -1.1307   22.2061 C   0  0  0  0  0  0  0  0  0  0  0  0
   10.5905    1.1008   21.3429 C   0  0  0  0  0  0  0  0  0  0  0  0
    9.7445   -1.6016   22.0294 C   0  0  0  0  0  0  0  0  0  0  0  0
    9.1448    0.6626   21.1512 C   0  0  0  0  0  0  0  0  0  0  0  0
   11.9279    2.3492   23.6252 C   0  0  0  0  0  0  0  0  0  0  0  0
    7.7151   -1.3102   20.6039 C   0  0  0  0  0  0  0  0  0  0  0  0
    2.7832    2.0764   20.5074 N   0  0  0  0  0  0  0  0  0  0  0  0
   11.2388    0.3181   22.4005 N   0  0  0  0  0  0  0  0  0  0  0  0
    9.1080   -0.8277   20.8966 N   0  3  0  0  0  0  0  0  0  0  0  0
   12.4968    0.1654   24.3474 O   0  0  0  0  0  0  0  0  0  0  0  0
    6.9506    1.2486   16.7848 H   0  0  0  0  0  0  0  0  0  0  0  0
    4.8525    2.1842   17.6866 H   0  0  0  0  0  0  0  0  0  0  0  0
    8.2743   -0.3601   18.1157 H   0  0  0  0  0  0  0  0  0  0  0  0
    5.3915   -0.1077   21.2982 H   0  0  0  0  0  0  0  0  0  0  0  0
   11.6355   -1.6546   23.0526 H   0  0  0  0  0  0  0  0  0  0  0  0
   11.7791   -1.3680   21.3181 H   0  0  0  0  0  0  0  0  0  0  0  0
   11.1662    0.9436   20.4227 H   0  0  0  0  0  0  0  0  0  0  0  0
   10.6142    2.1709   21.5554 H   0  0  0  0  0  0  0  0  0  0  0  0
    9.7160   -2.6616   21.7570 H   0  0  0  0  0  0  0  0  0  0  0  0
    9.1435   -1.4353   22.9304 H   0  0  0  0  0  0  0  0  0  0  0  0
    8.5329    0.8681   22.0367 H   0  0  0  0  0  0  0  0  0  0  0  0
    8.7054    1.1537   20.2770 H   0  0  0  0  0  0  0  0  0  0  0  0
   11.0687    2.6607   24.2100 H   0  0  0  0  0  0  0  0  0  0  0  0
   11.8823    2.7909   22.6348 H   0  0  0  0  0  0  0  0  0  0  0  0
   12.8441    2.6578   24.1184 H   0  0  0  0  0  0  0  0  0  0  0  0
    7.2403   -1.5058   21.5713 H   0  0  0  0  0  0  0  0  0  0  0  0
    7.8171   -2.2681   20.0825 H   0  0  0  0  0  0  0  0  0  0  0  0
    9.6643   -1.0082   20.0494 H   0  0  0  0  0  0  0  0  0  0  0  0
  1  6  1  0  0  0  0
  1 15  3  0  0  0  0
  2  3  1  0  0  0  0
  2  4  2  0  0  0  0
  3  6  2  0  0  0  0
  4  7  1  0  0  0  0
  5  6  1  0  0  0  0
  5  7  2  0  0  0  0
  7 14  1  0  0  0  0
  8 13  1  0  0  0  0
  8 16  1  0  0  0  0
  8 18  2  0  0  0  0
  9 11  1  0  0  0  0
  9 16  1  0  0  0  0
 10 12  1  0  0  0  0
 10 16  1  0  0  0  0
 11 17  1  0  0  0  0
 12 17  1  0  0  0  0
 14 17  1  0  0  0  0
  2 19  1  0  0  0  0
  3 20  1  0  0  0  0
  4 21  1  0  0  0  0
  5 22  1  0  0  0  0
  9 23  1  0  0  0  0
  9 24  1  0  0  0  0
 10 25  1  0  0  0  0
 10 26  1  0  0  0  0
 11 27  1  0  0  0  0
 11 28  1  0  0  0  0
 12 29  1  0  0  0  0
 12 30  1  0  0  0  0
 13 31  1  0  0  0  0
 13 32  1  0  0  0  0
 13 33  1  0  0  0  0
 14 34  1  0  0  0  0
 14 35  1  0  0  0  0
 17 36  1  0  0  0  0
M  CHG  1  17   1
M  END
> <Hybrid2>
-8.905293

> <fragments>
x0434

> <Mpro-x0434_dock>
-8.905293

> <Mpro-x0749_dock>
-8.75677

> <Mpro-x0195_dock>
-8.085881

> <Mpro-x0830_dock>
-8.00708

> <Mpro-x0072_dock>
-7.817387

> <Mpro-x1385_dock>
-7.783871

> <Mpro-x0678_dock>
-7.634466

> <Mpro-x0831_dock>
-7.621783

> <Mpro-x1093_dock>
-7.611362

> <Mpro-x1392_dock>
-7.322993

> <Mpro-x0104_dock>
-7.266495

> <Mpro-x1386_dock>
-7.192442

> <Mpro-x1334_dock>
-7.008754

> <Mpro-x1412_dock>
-6.883391

> <Mpro-x1077_dock>
-6.747994

> <Mpro-x0161_dock>
-6.683495

> <Mpro-x1382_dock>
-6.173165

> <Mpro-x0395_dock>
-6.171579

> <Mpro-x0770_dock>
-6.110409

> <Mpro-x1418_dock>
-6.082685

> <Mpro-x0692_dock>
-5.900688

> <Mpro-x0397_dock>
-5.892176

> <Mpro-x0107_dock>
-5.751281

> <Mpro-x0874_dock>
-5.73633

> <Mpro-x0774_dock>
-5.643301

> <Mpro-x0946_dock>
-5.602923

> <Mpro-x0967_dock>
-5.597774

> <Mpro-x0759_dock>
-5.454958

> <Mpro-x0708_dock>
-5.204495

> <Mpro-x1311_dock>
-5.166355

> <Mpro-x1348_dock>
-5.136093

> <Mpro-x1187_dock>
-5.106741

> <Mpro-x0305_dock>
-5.011317

> <Mpro-x1249_dock>
-4.890392

> <Mpro-x0387_dock>
-4.77531

> <Mpro-x1374_dock>
-4.628069

> <Mpro-x0736_dock>
-4.542257

> <Mpro-x1375_dock>
-4.388591

> <Mpro-x0734_dock>
-4.334221

> <Mpro-x0820_dock>
-3.885275

> <Mpro-x0354_dock>
-3.715852

> <Mpro-x0540_dock>
-3.678179

> <Mpro-x0752_dock>
-3.638809

> <Mpro-x1380_dock>
-3.493442

> <Mpro-x1493_dock>
-3.071773

> <Mpro-x0771_dock>
-2.91286

> <Mpro-x1351_dock>
-2.89611

> <Mpro-x1358_dock>
-2.887497

> <Mpro-x0978_dock>
-2.863494

> <Mpro-x1384_dock>
-2.752552

> <Mpro-x1478_dock>
-2.74651

> <Mpro-x1308_dock>
-2.619613

> <Mpro-x1458_dock>
-2.614313

> <Mpro-x0981_dock>
-2.410542

> <Mpro-x0731_dock>
-2.267604

> <Mpro-x1425_dock>
-2.130139

> <Mpro-x0689_dock>
-2.121874

> <Mpro-x0705_dock>
-1.777492

> <Mpro-x0786_dock>
-1.756544

> <Mpro-x0769_dock>
-1.747347

> <Mpro-x0691_dock>
-1.634104

> <Mpro-x0755_dock>
-1.571632

> <Mpro-x0426_dock>
-1.526723

> <Mpro-x1402_dock>
-1.121729

> <Mpro-x0887_dock>
-1.05585

> <site>
active-noncovalent

$$$$
DAV-CRI-3ed-4
  -OEChem-04022003013D

 26 26  0     1  0  0  0  0  0999 V2000
   10.6568    0.9322   24.6689 C   0  0  0  0  0  0  0  0  0  0  0  0
   11.0903    2.2370   24.4344 C   0  0  0  0  0  0  0  0  0  0  0  0
   11.2316   -0.1298   23.9707 C   0  0  0  0  0  0  0  0  0  0  0  0
   12.6733    1.4180   22.8032 C   0  0  0  0  0  0  0  0  0  0  0  0
   12.0985    2.4799   23.5015 C   0  0  0  0  0  0  0  0  0  0  0  0
   12.2398    0.1131   23.0378 C   0  0  0  0  0  0  0  0  0  0  0  0
   10.6948    5.3982   23.8353 C   0  0  0  0  0  0  0  0  0  0  0  0
    9.6204    6.2624   23.2261 C   0  0  0  0  0  0  0  0  0  0  0  0
   13.6681    3.9658   22.1847 C   0  0  0  0  0  0  0  0  0  0  0  0
   12.5607    3.8756   23.2504 C   0  0  1  0  0  0  0  0  0  0  0  0
   11.4546    4.7483   22.8859 N   0  0  0  0  0  0  0  0  0  0  0  0
   10.8535    5.3219   25.0524 O   0  0  0  0  0  0  0  0  0  0  0  0
   14.0791    5.3197   22.0239 O   0  0  0  0  0  0  0  0  0  0  0  0
   12.9477   -1.1975   22.1758 Cl  0  0  0  0  0  0  0  0  0  0  0  0
    8.2611    6.3210   24.3591 Cl  0  0  0  0  0  0  0  0  0  0  0  0
    9.8717    0.7435   25.3953 H   0  0  0  0  0  0  0  0  0  0  0  0
   10.6368    3.0584   24.9830 H   0  0  0  0  0  0  0  0  0  0  0  0
   10.8836   -1.1416   24.1635 H   0  0  0  0  0  0  0  0  0  0  0  0
   13.4594    1.6125   22.0773 H   0  0  0  0  0  0  0  0  0  0  0  0
    9.9609    7.2830   23.0345 H   0  0  0  0  0  0  0  0  0  0  0  0
    9.2843    5.8158   22.2863 H   0  0  0  0  0  0  0  0  0  0  0  0
   14.5454    3.3880   22.4955 H   0  0  0  0  0  0  0  0  0  0  0  0
   13.3279    3.5920   21.2127 H   0  0  0  0  0  0  0  0  0  0  0  0
   12.9585    4.3244   24.1784 H   0  0  0  0  0  0  0  0  0  0  0  0
   11.2371    4.8819   21.9084 H   0  0  0  0  0  0  0  0  0  0  0  0
   14.7731    5.3203   21.3460 H   0  0  0  0  0  0  0  0  0  0  0  0
  1  2  2  0  0  0  0
  1  3  1  0  0  0  0
  2  5  1  0  0  0  0
  3  6  2  0  0  0  0
  4  5  2  0  0  0  0
  4  6  1  0  0  0  0
  5 10  1  0  0  0  0
  6 14  1  0  0  0  0
  7  8  1  0  0  0  0
  7 11  1  0  0  0  0
  7 12  2  0  0  0  0
  8 15  1  0  0  0  0
  9 10  1  0  0  0  0
  9 13  1  0  0  0  0
 10 11  1  0  0  0  0
  1 16  1  0  0  0  0
  2 17  1  0  0  0  0
  3 18  1  0  0  0  0
  4 19  1  0  0  0  0
  8 20  1  0  0  0  0
  8 21  1  0  0  0  0
  9 22  1  0  0  0  0
  9 23  1  0  0  0  0
 10 24  1  0  0  0  0
 11 25  1  0  0  0  0
 13 26  1  0  0  0  0
M  END
> <Hybrid2>
-8.890200

> <fragments>
x0104

> <Mpro-x0104_dock>
-8.8902

> <Mpro-x0195_dock>
-8.541722

> <Mpro-x0946_dock>
-7.338824

> <Mpro-x0161_dock>
-6.880805

> <Mpro-x1077_dock>
-6.816151

> <Mpro-x0749_dock>
-6.625857

> <Mpro-x0830_dock>
-6.415396

> <Mpro-x0831_dock>
-6.384856

> <Mpro-x0678_dock>
-6.36276

> <Mpro-x0072_dock>
-6.216726

> <Mpro-x0397_dock>
-6.143544

> <Mpro-x0874_dock>
-6.078411

> <Mpro-x1093_dock>
-6.02823

> <Mpro-x0434_dock>
-6.022492

> <Mpro-x1374_dock>
-5.861331

> <Mpro-x1392_dock>
-5.768189

> <Mpro-x1385_dock>
-5.655909

> <Mpro-x1375_dock>
-5.574405

> <Mpro-x1382_dock>
-5.546672

> <Mpro-x1334_dock>
-5.501107

> <Mpro-x0967_dock>
-5.489857

> <Mpro-x1418_dock>
-5.443128

> <Mpro-x1386_dock>
-5.354933

> <Mpro-x0305_dock>
-5.294418

> <Mpro-x1493_dock>
-5.204925

> <Mpro-x0395_dock>
-5.20076

> <Mpro-x0692_dock>
-5.08106

> <Mpro-x0770_dock>
-5.005929

> <Mpro-x0759_dock>
-4.968928

> <Mpro-x0708_dock>
-4.901586

> <Mpro-x1311_dock>
-4.822093

> <Mpro-x0387_dock>
-4.812916

> <Mpro-x1412_dock>
-4.751548

> <Mpro-x0354_dock>
-4.481236

> <Mpro-x1478_dock>
-4.42038

> <Mpro-x0734_dock>
-4.402849

> <Mpro-x0774_dock>
-4.388882

> <Mpro-x0107_dock>
-4.347441

> <Mpro-x0771_dock>
-4.259096

> <Mpro-x1380_dock>
-4.15294

> <Mpro-x1348_dock>
-4.151782

> <Mpro-x1458_dock>
-4.06702

> <Mpro-x1249_dock>
-3.943982

> <Mpro-x0978_dock>
-3.910763

> <Mpro-x0981_dock>
-3.899775

> <Mpro-x0736_dock>
-3.691457

> <Mpro-x0691_dock>
-3.594265

> <Mpro-x1308_dock>
-3.519559

> <Mpro-x0755_dock>
-3.398607

> <Mpro-x0820_dock>
-3.374222

> <Mpro-x0540_dock>
-3.184733

> <Mpro-x0769_dock>
-3.151817

> <Mpro-x1402_dock>
-3.060689

> <Mpro-x0731_dock>
-3.025833

> <Mpro-x0689_dock>
-2.797431

> <Mpro-x1425_dock>
-2.780173

> <Mpro-x0752_dock>
-2.72725

> <Mpro-x1384_dock>
-2.637001

> <Mpro-x0786_dock>
-2.56781

> <Mpro-x1358_dock>
-2.475636

> <Mpro-x1187_dock>
-2.421138

> <Mpro-x0426_dock>
-2.32586

> <Mpro-x1351_dock>
-2.274568

> <Mpro-x0705_dock>
-1.897173

> <Mpro-x0887_dock>
-1.759117

> <site>
active-noncovalent

$$$$
BAR-COM-4e0-55
  -OEChem-04022003013D

 58 60  0     1  0  0  0  0  0999 V2000
   14.6379   -2.2578   22.7693 C   0  0  0  0  0  0  0  0  0  0  0  0
   13.7797   -2.2557   23.8689 C   0  0  0  0  0  0  0  0  0  0  0  0
   14.4078   -1.3883   21.7032 C   0  0  0  0  0  0  0  0  0  0  0  0
    5.7667    0.1082   19.3371 C   0  0  0  0  0  0  0  0  0  0  0  0
   12.6912   -1.3840   23.9022 C   0  0  0  0  0  0  0  0  0  0  0  0
   13.3193   -0.5167   21.7366 C   0  0  0  0  0  0  0  0  0  0  0  0
    6.5627    0.6800   20.3233 C   0  0  0  0  0  0  0  0  0  0  0  0
    6.3434   -0.1420   18.1023 C   0  0  0  0  0  0  0  0  0  0  0  0
    8.3740    0.6906   18.7821 C   0  0  0  0  0  0  0  0  0  0  0  0
   12.4610   -0.5145   22.8361 C   0  0  0  0  0  0  0  0  0  0  0  0
    7.8923    0.9799   20.0486 C   0  0  0  0  0  0  0  0  0  0  0  0
    7.9932    0.8319   23.3453 C   0  0  0  0  0  0  0  0  0  0  0  0
    6.7684   -5.2686   22.8562 C   0  0  0  0  0  0  0  0  0  0  0  0
    5.3195   -5.1050   23.3014 C   0  0  0  0  0  0  0  0  0  0  0  0
    7.5846   -4.0335   23.2247 C   0  0  0  0  0  0  0  0  0  0  0  0
    5.2489   -4.6938   24.7659 C   0  0  0  0  0  0  0  0  0  0  0  0
    7.3976   -3.6845   24.7029 C   0  0  1  0  0  0  0  0  0  0  0  0
    7.6279    0.4676   25.8128 C   0  0  0  0  0  0  0  0  0  0  0  0
   11.2835    0.4286   22.8714 C   0  0  0  0  0  0  0  0  0  0  0  0
    8.7776    1.5971   21.0924 C   0  0  0  0  0  0  0  0  0  0  0  0
    8.1171   -2.3899   25.0553 C   0  0  0  0  0  0  0  0  0  0  0  0
   10.0194   -0.1741   22.2633 C   0  0  0  0  0  0  0  0  0  0  0  0
    8.2218   -0.1011   24.5322 C   0  0  1  0  0  0  0  0  0  0  0  0
    7.6312    0.1355   17.7983 N   0  0  0  0  0  0  0  0  0  0  0  0
    8.8921    0.7554   22.2779 N   0  0  0  0  0  0  0  0  0  0  0  0
    7.0370    1.6146   23.3666 O   0  0  0  0  0  0  0  0  0  0  0  0
    6.0077   -3.5068   24.9963 O   0  0  0  0  0  0  0  0  0  0  0  0
    7.5917   -1.3461   24.2540 O   0  0  0  0  0  0  0  0  0  0  0  0
   15.4862   -2.9357   22.7441 H   0  0  0  0  0  0  0  0  0  0  0  0
   13.9593   -2.9319   24.6996 H   0  0  0  0  0  0  0  0  0  0  0  0
   15.0764   -1.3890   20.8475 H   0  0  0  0  0  0  0  0  0  0  0  0
    4.7277   -0.1342   19.5288 H   0  0  0  0  0  0  0  0  0  0  0  0
   12.0276   -1.3894   24.7630 H   0  0  0  0  0  0  0  0  0  0  0  0
   13.1477    0.1572   20.9013 H   0  0  0  0  0  0  0  0  0  0  0  0
    6.1390    0.8880   21.3021 H   0  0  0  0  0  0  0  0  0  0  0  0
    5.7645   -0.5866   17.2995 H   0  0  0  0  0  0  0  0  0  0  0  0
    9.4033    0.9022   18.5096 H   0  0  0  0  0  0  0  0  0  0  0  0
    7.2022   -6.1508   23.3426 H   0  0  0  0  0  0  0  0  0  0  0  0
    6.8132   -5.4415   21.7753 H   0  0  0  0  0  0  0  0  0  0  0  0
    4.8510   -4.3260   22.6873 H   0  0  0  0  0  0  0  0  0  0  0  0
    4.7637   -6.0343   23.1389 H   0  0  0  0  0  0  0  0  0  0  0  0
    8.6432   -4.2023   22.9985 H   0  0  0  0  0  0  0  0  0  0  0  0
    7.2437   -3.1963   22.6020 H   0  0  0  0  0  0  0  0  0  0  0  0
    4.2110   -4.4852   25.0442 H   0  0  0  0  0  0  0  0  0  0  0  0
    5.6132   -5.4926   25.4225 H   0  0  0  0  0  0  0  0  0  0  0  0
    7.7917   -4.4890   25.3368 H   0  0  0  0  0  0  0  0  0  0  0  0
    6.5624    0.6912   25.7147 H   0  0  0  0  0  0  0  0  0  0  0  0
    8.1522    1.3846   26.1022 H   0  0  0  0  0  0  0  0  0  0  0  0
    7.7446   -0.2384   26.6432 H   0  0  0  0  0  0  0  0  0  0  0  0
   11.5511    1.3401   22.3222 H   0  0  0  0  0  0  0  0  0  0  0  0
   11.0919    0.7443   23.9050 H   0  0  0  0  0  0  0  0  0  0  0  0
    9.7857    1.7605   20.6962 H   0  0  0  0  0  0  0  0  0  0  0  0
    8.3910    2.5713   21.4096 H   0  0  0  0  0  0  0  0  0  0  0  0
    9.1858   -2.4891   24.8587 H   0  0  0  0  0  0  0  0  0  0  0  0
    7.9601   -2.1475   26.1075 H   0  0  0  0  0  0  0  0  0  0  0  0
   10.1982   -0.4369   21.2159 H   0  0  0  0  0  0  0  0  0  0  0  0
    9.7078   -1.0796   22.7941 H   0  0  0  0  0  0  0  0  0  0  0  0
    9.2860   -0.3192   24.6458 H   0  0  0  0  0  0  0  0  0  0  0  0
  1  2  1  0  0  0  0
  1  3  2  0  0  0  0
  2  5  2  0  0  0  0
  3  6  1  0  0  0  0
  4  7  2  0  0  0  0
  4  8  1  0  0  0  0
  5 10  1  0  0  0  0
  6 10  2  0  0  0  0
  7 11  1  0  0  0  0
  8 24  2  0  0  0  0
  9 11  2  0  0  0  0
  9 24  1  0  0  0  0
 10 19  1  0  0  0  0
 11 20  1  0  0  0  0
 12 23  1  0  0  0  0
 12 25  1  0  0  0  0
 12 26  2  0  0  0  0
 13 14  1  0  0  0  0
 13 15  1  0  0  0  0
 14 16  1  0  0  0  0
 15 17  1  0  0  0  0
 16 27  1  0  0  0  0
 17 21  1  0  0  0  0
 17 27  1  0  0  0  0
 18 23  1  0  0  0  0
 19 22  1  0  0  0  0
 20 25  1  0  0  0  0
 21 28  1  0  0  0  0
 22 25  1  0  0  0  0
 23 28  1  0  0  0  0
  1 29  1  0  0  0  0
  2 30  1  0  0  0  0
  3 31  1  0  0  0  0
  4 32  1  0  0  0  0
  5 33  1  0  0  0  0
  6 34  1  0  0  0  0
  7 35  1  0  0  0  0
  8 36  1  0  0  0  0
  9 37  1  0  0  0  0
 13 38  1  0  0  0  0
 13 39  1  0  0  0  0
 14 40  1  0  0  0  0
 14 41  1  0  0  0  0
 15 42  1  0  0  0  0
 15 43  1  0  0  0  0
 16 44  1  0  0  0  0
 16 45  1  0  0  0  0
 17 46  1  0  0  0  0
 18 47  1  0  0  0  0
 18 48  1  0  0  0  0
 18 49  1  0  0  0  0
 19 50  1  0  0  0  0
 19 51  1  0  0  0  0
 20 52  1  0  0  0  0
 20 53  1  0  0  0  0
 21 54  1  0  0  0  0
 21 55  1  0  0  0  0
 22 56  1  0  0  0  0
 22 57  1  0  0  0  0
 23 58  1  0  0  0  0
M  END
> <Hybrid2>
-8.880486

> <fragments>
x0678

> <Mpro-x0678_dock>
-8.880486

> <Mpro-x1077_dock>
-7.406291

> <Mpro-x0874_dock>
-6.598351

> <Mpro-x0946_dock>
-6.50925

> <Mpro-x0434_dock>
-6.418404

> <Mpro-x0072_dock>
-6.376643

> <Mpro-x0195_dock>
-6.221153

> <Mpro-x1392_dock>
-5.906905

> <Mpro-x0749_dock>
-5.894577

> <Mpro-x1093_dock>
-5.845551

> <Mpro-x0967_dock>
-5.597554

> <Mpro-x0107_dock>
-5.565377

> <Mpro-x0161_dock>
-5.372528

> <Mpro-x1418_dock>
-4.854445

> <Mpro-x1386_dock>
-4.737774

> <Mpro-x0387_dock>
-4.665153

> <Mpro-x1382_dock>
-4.507945

> <Mpro-x1412_dock>
-4.264381

> <Mpro-x0770_dock>
-4.202597

> <Mpro-x0397_dock>
-4.133832

> <Mpro-x0395_dock>
-4.00495

> <Mpro-x0692_dock>
-3.902404

> <Mpro-x0104_dock>
-3.428651

> <Mpro-x1385_dock>
-3.124829

> <Mpro-x1380_dock>
-2.837313

> <Mpro-x0759_dock>
-2.68935

> <Mpro-x0305_dock>
-2.381248

> <Mpro-x1358_dock>
-2.247266

> <Mpro-x1249_dock>
-2.176166

> <Mpro-x0708_dock>
-2.114371

> <Mpro-x0830_dock>
-1.918043

> <Mpro-x0426_dock>
-1.897697

> <Mpro-x1384_dock>
-1.892267

> <Mpro-x0354_dock>
-1.634832

> <Mpro-x1493_dock>
-1.359774

> <Mpro-x1351_dock>
-1.34589

> <Mpro-x1334_dock>
-1.15284

> <Mpro-x1348_dock>
-1.146479

> <Mpro-x0831_dock>
-1.010069

> <Mpro-x0734_dock>
-0.9166

> <Mpro-x0820_dock>
-0.884558

> <Mpro-x1374_dock>
-0.867499

> <Mpro-x1311_dock>
-0.864911

> <Mpro-x0774_dock>
-0.819142

> <Mpro-x1458_dock>
-0.710898

> <Mpro-x1187_dock>
-0.610288

> <Mpro-x1375_dock>
-0.316637

> <Mpro-x0731_dock>
-0.203582

> <Mpro-x0540_dock>
-0.150121

> <Mpro-x0755_dock>
0.025491

> <Mpro-x0769_dock>
0.054983

> <Mpro-x0771_dock>
0.069827

> <Mpro-x1308_dock>
0.280856

> <Mpro-x1402_dock>
0.392997

> <Mpro-x1478_dock>
0.474638

> <Mpro-x0887_dock>
0.490836

> <Mpro-x0736_dock>
0.721705

> <Mpro-x0691_dock>
0.723674

> <Mpro-x1425_dock>
1.22028

> <Mpro-x0689_dock>
1.235199

> <Mpro-x0752_dock>
1.560315

> <Mpro-x0786_dock>
2.225154

> <Mpro-x0705_dock>
2.328014

> <Mpro-x0978_dock>
2.591304

> <Mpro-x0981_dock>
3.497102

> <site>
active-noncovalent

$$$$
GIA-UNK-3f3-6
  -OEChem-04022003013D

 37 38  0     0  0  0  0  0  0999 V2000
   13.5972   -1.2832   23.1041 C   0  0  0  0  0  0  0  0  0  0  0  0
   13.5383    0.0783   23.4016 C   0  0  0  0  0  0  0  0  0  0  0  0
   12.4199   -2.0092   22.9238 C   0  0  0  0  0  0  0  0  0  0  0  0
   12.3022    0.7137   23.5188 C   0  0  0  0  0  0  0  0  0  0  0  0
   11.1837   -1.3738   23.0411 C   0  0  0  0  0  0  0  0  0  0  0  0
   11.1248   -0.0123   23.3386 C   0  0  0  0  0  0  0  0  0  0  0  0
    6.7847    0.4995   19.6238 C   0  0  0  0  0  0  0  0  0  0  0  0
    8.5502    0.4543   21.3208 C   0  0  0  0  0  0  0  0  0  0  0  0
    4.9489    2.0745   19.1040 C   0  0  0  0  0  0  0  0  0  0  0  0
    5.1905    1.3112   21.4303 C   0  0  0  0  0  0  0  0  0  0  0  0
    3.4471    1.8714   19.2449 C   0  0  0  0  0  0  0  0  0  0  0  0
    3.6768    1.1448   21.4760 C   0  0  0  0  0  0  0  0  0  0  0  0
    9.7939    0.6710   23.4649 C   0  0  0  0  0  0  0  0  0  0  0  0
    7.4636   -0.3597   20.6602 C   0  0  0  0  0  0  0  0  0  0  0  0
    5.6697    1.2196   20.0471 N   0  0  0  0  0  0  0  0  0  0  0  0
    8.7892    0.0575   22.6264 N   0  0  0  0  0  0  0  0  0  0  0  0
    7.2298    0.5261   18.4736 O   0  0  0  0  0  0  0  0  0  0  0  0
    9.1490    1.3535   20.7328 O   0  0  0  0  0  0  0  0  0  0  0  0
    3.0452    2.0831   20.6009 O   0  0  0  0  0  0  0  0  0  0  0  0
   14.5598   -1.7776   23.0115 H   0  0  0  0  0  0  0  0  0  0  0  0
   14.4550    0.6440   23.5409 H   0  0  0  0  0  0  0  0  0  0  0  0
   12.4653   -3.0690   22.6911 H   0  0  0  0  0  0  0  0  0  0  0  0
   12.2660    1.7749   23.7511 H   0  0  0  0  0  0  0  0  0  0  0  0
   10.2716   -1.9475   22.8991 H   0  0  0  0  0  0  0  0  0  0  0  0
    5.2655    1.8831   18.0745 H   0  0  0  0  0  0  0  0  0  0  0  0
    5.2161    3.1078   19.3551 H   0  0  0  0  0  0  0  0  0  0  0  0
    5.4708    2.3092   21.7872 H   0  0  0  0  0  0  0  0  0  0  0  0
    5.6649    0.5754   22.0817 H   0  0  0  0  0  0  0  0  0  0  0  0
    2.9129    2.5972   18.6237 H   0  0  0  0  0  0  0  0  0  0  0  0
    3.1433    0.8686   18.9215 H   0  0  0  0  0  0  0  0  0  0  0  0
    3.3757    0.1261   21.2044 H   0  0  0  0  0  0  0  0  0  0  0  0
    3.3118    1.3401   22.4893 H   0  0  0  0  0  0  0  0  0  0  0  0
    9.4377    0.6341   24.5002 H   0  0  0  0  0  0  0  0  0  0  0  0
    9.8660    1.7268   23.1832 H   0  0  0  0  0  0  0  0  0  0  0  0
    7.9184   -1.2200   20.1740 H   0  0  0  0  0  0  0  0  0  0  0  0
    6.7129   -0.7085   21.3652 H   0  0  0  0  0  0  0  0  0  0  0  0
    8.2328   -0.6992   23.0120 H   0  0  0  0  0  0  0  0  0  0  0  0
  1  2  1  0  0  0  0
  1  3  2  0  0  0  0
  2  4  2  0  0  0  0
  3  5  1  0  0  0  0
  4  6  1  0  0  0  0
  5  6  2  0  0  0  0
  6 13  1  0  0  0  0
  7 14  1  0  0  0  0
  7 15  1  0  0  0  0
  7 17  2  0  0  0  0
  8 14  1  0  0  0  0
  8 16  1  0  0  0  0
  8 18  2  0  0  0  0
  9 11  1  0  0  0  0
  9 15  1  0  0  0  0
 10 12  1  0  0  0  0
 10 15  1  0  0  0  0
 11 19  1  0  0  0  0
 12 19  1  0  0  0  0
 13 16  1  0  0  0  0
  1 20  1  0  0  0  0
  2 21  1  0  0  0  0
  3 22  1  0  0  0  0
  4 23  1  0  0  0  0
  5 24  1  0  0  0  0
  9 25  1  0  0  0  0
  9 26  1  0  0  0  0
 10 27  1  0  0  0  0
 10 28  1  0  0  0  0
 11 29  1  0  0  0  0
 11 30  1  0  0  0  0
 12 31  1  0  0  0  0
 12 32  1  0  0  0  0
 13 33  1  0  0  0  0
 13 34  1  0  0  0  0
 14 35  1  0  0  0  0
 14 36  1  0  0  0  0
 16 37  1  0  0  0  0
M  END
> <Hybrid2>
-8.875364

> <fragments>
x1093

> <Mpro-x1093_dock>
-8.875364

> <Mpro-x0678_dock>
-8.51198

> <Mpro-x0831_dock>
-7.678603

> <Mpro-x0195_dock>
-7.578432

> <Mpro-x0072_dock>
-7.427746

> <Mpro-x0104_dock>
-7.261058

> <Mpro-x1386_dock>
-7.238415

> <Mpro-x0692_dock>
-7.170395

> <Mpro-x1418_dock>
-6.828963

> <Mpro-x0161_dock>
-6.74696

> <Mpro-x0759_dock>
-6.658032

> <Mpro-x0749_dock>
-6.543152

> <Mpro-x0770_dock>
-6.539798

> <Mpro-x0434_dock>
-6.467056

> <Mpro-x1392_dock>
-6.389163

> <Mpro-x0397_dock>
-6.327426

> <Mpro-x1311_dock>
-6.217861

> <Mpro-x0107_dock>
-5.96475

> <Mpro-x0830_dock>
-5.94563

> <Mpro-x0946_dock>
-5.708795

> <Mpro-x1334_dock>
-5.471036

> <Mpro-x0967_dock>
-5.317243

> <Mpro-x1385_dock>
-5.248936

> <Mpro-x1077_dock>
-5.246524

> <Mpro-x1493_dock>
-4.767103

> <Mpro-x0874_dock>
-4.642941

> <Mpro-x0736_dock>
-4.627589

> <Mpro-x0395_dock>
-4.494375

> <Mpro-x1412_dock>
-4.433223

> <Mpro-x1382_dock>
-4.182416

> <Mpro-x1348_dock>
-4.178535

> <Mpro-x0387_dock>
-4.171565

> <Mpro-x1249_dock>
-4.012126

> <Mpro-x1478_dock>
-3.977745

> <Mpro-x1374_dock>
-3.969773

> <Mpro-x0305_dock>
-3.752146

> <Mpro-x0708_dock>
-3.685152

> <Mpro-x0354_dock>
-3.651694

> <Mpro-x0774_dock>
-3.430753

> <Mpro-x1375_dock>
-3.366987

> <Mpro-x0820_dock>
-3.334204

> <Mpro-x1458_dock>
-3.304198

> <Mpro-x1358_dock>
-3.178825

> <Mpro-x0771_dock>
-2.891975

> <Mpro-x1380_dock>
-2.852516

> <Mpro-x1187_dock>
-2.619146

> <Mpro-x0981_dock>
-2.298521

> <Mpro-x1384_dock>
-2.226979

> <Mpro-x1308_dock>
-2.166927

> <Mpro-x0734_dock>
-2.148285

> <Mpro-x0786_dock>
-2.085052

> <Mpro-x1425_dock>
-1.870634

> <Mpro-x0752_dock>
-1.868122

> <Mpro-x0769_dock>
-1.759432

> <Mpro-x1402_dock>
-1.746193

> <Mpro-x0540_dock>
-1.591632

> <Mpro-x0978_dock>
-1.565948

> <Mpro-x0705_dock>
-1.489378

> <Mpro-x0689_dock>
-1.471169

> <Mpro-x0731_dock>
-1.388035

> <Mpro-x0691_dock>
-1.347872

> <Mpro-x1351_dock>
-1.293283

> <Mpro-x0755_dock>
-1.23821

> <Mpro-x0426_dock>
-1.029994

> <Mpro-x0887_dock>
-0.950809

> <site>
active-noncovalent

$$$$
BAR-COM-4e0-65
  -OEChem-04022003013D

 42 44  0     0  0  0  0  0  0999 V2000
   10.2394    4.5021   23.3551 C   0  0  0  0  0  0  0  0  0  0  0  0
   11.5820    4.3408   23.6973 C   0  0  0  0  0  0  0  0  0  0  0  0
    9.4440    3.3836   23.1056 C   0  0  0  0  0  0  0  0  0  0  0  0
   12.1292    3.0612   23.7900 C   0  0  0  0  0  0  0  0  0  0  0  0
    6.0286    0.0702   19.2147 C   0  0  0  0  0  0  0  0  0  0  0  0
    6.3485    0.1565   17.8488 C   0  0  0  0  0  0  0  0  0  0  0  0
    9.9913    2.1040   23.1983 C   0  0  0  0  0  0  0  0  0  0  0  0
   11.3339    1.9427   23.5404 C   0  0  0  0  0  0  0  0  0  0  0  0
    7.2469   -0.0601   19.8270 C   0  0  0  0  0  0  0  0  0  0  0  0
    9.1435    0.9499   22.9337 C   0  0  0  0  0  0  0  0  0  0  0  0
   13.7122   -2.3811   23.4377 C   0  0  0  0  0  0  0  0  0  0  0  0
   14.0837   -1.2297   24.3678 C   0  0  0  0  0  0  0  0  0  0  0  0
   12.4606   -2.0667   22.6233 C   0  0  0  0  0  0  0  0  0  0  0  0
   14.2299    0.0863   23.6035 C   0  0  0  0  0  0  0  0  0  0  0  0
   12.6020   -0.7507   21.8576 C   0  0  0  0  0  0  0  0  0  0  0  0
   12.9870    0.4112   22.7734 C   0  0  0  0  0  0  0  0  0  0  0  0
    7.6812   -0.2023   21.2571 C   0  0  0  0  0  0  0  0  0  0  0  0
    7.6646    0.0851   17.6305 N   0  0  0  0  0  0  0  0  0  0  0  0
    8.5636    0.8679   21.6633 N   0  0  0  0  0  0  0  0  0  0  0  0
    8.9423    0.1007   23.8185 O   0  0  0  0  0  0  0  0  0  0  0  0
    8.2312   -0.0526   18.8920 O   0  0  0  0  0  0  0  0  0  0  0  0
   11.8891    0.6945   23.6384 O   0  0  0  0  0  0  0  0  0  0  0  0
    9.8135    5.4988   23.2831 H   0  0  0  0  0  0  0  0  0  0  0  0
   12.2008    5.2121   23.8909 H   0  0  0  0  0  0  0  0  0  0  0  0
    8.3989    3.5213   22.8402 H   0  0  0  0  0  0  0  0  0  0  0  0
   13.1758    2.9425   24.0572 H   0  0  0  0  0  0  0  0  0  0  0  0
    5.0561    0.0988   19.6831 H   0  0  0  0  0  0  0  0  0  0  0  0
    5.6835    0.2679   17.0050 H   0  0  0  0  0  0  0  0  0  0  0  0
   14.5483   -2.5946   22.7624 H   0  0  0  0  0  0  0  0  0  0  0  0
   13.5422   -3.2879   24.0313 H   0  0  0  0  0  0  0  0  0  0  0  0
   13.3201   -1.1205   25.1457 H   0  0  0  0  0  0  0  0  0  0  0  0
   15.0280   -1.4605   24.8756 H   0  0  0  0  0  0  0  0  0  0  0  0
   12.2725   -2.8808   21.9127 H   0  0  0  0  0  0  0  0  0  0  0  0
   11.5907   -2.0133   23.2872 H   0  0  0  0  0  0  0  0  0  0  0  0
   14.4275    0.9054   24.3103 H   0  0  0  0  0  0  0  0  0  0  0  0
   15.1120    0.0455   22.9502 H   0  0  0  0  0  0  0  0  0  0  0  0
   13.3505   -0.8608   21.0608 H   0  0  0  0  0  0  0  0  0  0  0  0
   11.6588   -0.5177   21.3417 H   0  0  0  0  0  0  0  0  0  0  0  0
   13.1733    1.3082   22.1687 H   0  0  0  0  0  0  0  0  0  0  0  0
    6.8139   -0.1967   21.9264 H   0  0  0  0  0  0  0  0  0  0  0  0
    8.2081   -1.1491   21.4156 H   0  0  0  0  0  0  0  0  0  0  0  0
    8.7109    1.6215   21.0000 H   0  0  0  0  0  0  0  0  0  0  0  0
  1  2  1  0  0  0  0
  1  3  2  0  0  0  0
  2  4  2  0  0  0  0
  3  7  1  0  0  0  0
  4  8  1  0  0  0  0
  5  6  1  0  0  0  0
  5  9  2  0  0  0  0
  6 18  2  0  0  0  0
  7  8  2  0  0  0  0
  7 10  1  0  0  0  0
  8 22  1  0  0  0  0
  9 17  1  0  0  0  0
  9 21  1  0  0  0  0
 10 19  1  0  0  0  0
 10 20  2  0  0  0  0
 11 12  1  0  0  0  0
 11 13  1  0  0  0  0
 12 14  1  0  0  0  0
 13 15  1  0  0  0  0
 14 16  1  0  0  0  0
 15 16  1  0  0  0  0
 16 22  1  0  0  0  0
 17 19  1  0  0  0  0
 18 21  1  0  0  0  0
  1 23  1  0  0  0  0
  2 24  1  0  0  0  0
  3 25  1  0  0  0  0
  4 26  1  0  0  0  0
  5 27  1  0  0  0  0
  6 28  1  0  0  0  0
 11 29  1  0  0  0  0
 11 30  1  0  0  0  0
 12 31  1  0  0  0  0
 12 32  1  0  0  0  0
 13 33  1  0  0  0  0
 13 34  1  0  0  0  0
 14 35  1  0  0  0  0
 14 36  1  0  0  0  0
 15 37  1  0  0  0  0
 15 38  1  0  0  0  0
 16 39  1  0  0  0  0
 17 40  1  0  0  0  0
 17 41  1  0  0  0  0
 19 42  1  0  0  0  0
M  END
> <Hybrid2>
-8.871717

> <fragments>
x0678

> <Mpro-x0678_dock>
-8.871717

> <Mpro-x0107_dock>
-7.863893

> <Mpro-x0195_dock>
-6.828845

> <Mpro-x0874_dock>
-6.758706

> <Mpro-x0830_dock>
-6.747857

> <Mpro-x0434_dock>
-6.708348

> <Mpro-x0072_dock>
-6.618208

> <Mpro-x1093_dock>
-6.464544

> <Mpro-x0387_dock>
-6.099728

> <Mpro-x0967_dock>
-5.996997

> <Mpro-x0946_dock>
-5.9448

> <Mpro-x0831_dock>
-5.885401

> <Mpro-x1392_dock>
-5.706061

> <Mpro-x0104_dock>
-5.464652

> <Mpro-x1311_dock>
-5.447225

> <Mpro-x1077_dock>
-5.333574

> <Mpro-x0161_dock>
-5.295179

> <Mpro-x0395_dock>
-5.177794

> <Mpro-x0397_dock>
-5.099308

> <Mpro-x1386_dock>
-4.892008

> <Mpro-x1418_dock>
-4.799414

> <Mpro-x0749_dock>
-4.787826

> <Mpro-x0305_dock>
-4.772431

> <Mpro-x0692_dock>
-4.768577

> <Mpro-x0770_dock>
-4.508587

> <Mpro-x0759_dock>
-4.453502

> <Mpro-x1385_dock>
-4.383062

> <Mpro-x0354_dock>
-4.362079

> <Mpro-x1478_dock>
-3.967048

> <Mpro-x1334_dock>
-3.867093

> <Mpro-x1412_dock>
-3.768562

> <Mpro-x0774_dock>
-3.72027

> <Mpro-x0708_dock>
-3.510082

> <Mpro-x1187_dock>
-3.472275

> <Mpro-x1374_dock>
-3.374906

> <Mpro-x1382_dock>
-3.341842

> <Mpro-x0736_dock>
-3.335906

> <Mpro-x1380_dock>
-3.271225

> <Mpro-x1249_dock>
-3.062439

> <Mpro-x1458_dock>
-3.015773

> <Mpro-x0540_dock>
-2.994662

> <Mpro-x1308_dock>
-2.968125

> <Mpro-x1493_dock>
-2.926608

> <Mpro-x1348_dock>
-2.880561

> <Mpro-x1402_dock>
-2.763184

> <Mpro-x0734_dock>
-2.628075

> <Mpro-x1425_dock>
-2.591628

> <Mpro-x0731_dock>
-2.350261

> <Mpro-x0820_dock>
-2.216007

> <Mpro-x0752_dock>
-2.011211

> <Mpro-x1375_dock>
-1.871046

> <Mpro-x0771_dock>
-1.864681

> <Mpro-x0426_dock>
-1.429926

> <Mpro-x1358_dock>
-1.339932

> <Mpro-x0755_dock>
-1.323656

> <Mpro-x0689_dock>
-1.269764

> <Mpro-x0769_dock>
-0.992336

> <Mpro-x0691_dock>
-0.882645

> <Mpro-x0786_dock>
-0.697277

> <Mpro-x1351_dock>
-0.465712

> <Mpro-x1384_dock>
-0.350272

> <Mpro-x0705_dock>
-0.020274

> <Mpro-x0981_dock>
-0.019855

> <Mpro-x0978_dock>
0.207942

> <Mpro-x0887_dock>
0.786792

> <site>
active-noncovalent

$$$$
VIJ-CYC-1a3-10
  -OEChem-04022003013D

 46 46  0     1  0  0  0  0  0999 V2000
   12.8412    2.5676   23.5174 C   0  0  0  0  0  0  0  0  0  0  0  0
   13.3190    2.3516   21.1590 C   0  0  0  0  0  0  0  0  0  0  0  0
   12.7655    1.1793   23.6293 C   0  0  0  0  0  0  0  0  0  0  0  0
   13.2434    0.9633   21.2708 C   0  0  0  0  0  0  0  0  0  0  0  0
   13.1178    3.1538   22.2823 C   0  0  0  0  0  0  0  0  0  0  0  0
   12.9667    0.3772   22.5060 C   0  0  0  0  0  0  0  0  0  0  0  0
    9.2236    6.7391   24.1332 C   0  0  0  0  0  0  0  0  0  0  0  0
    9.9575    6.2825   23.1138 C   0  0  0  0  0  0  0  0  0  0  0  0
   11.2923    5.6744   23.3601 C   0  0  0  0  0  0  0  0  0  0  0  0
   10.5041   -1.7961   22.3418 C   0  0  0  0  0  0  0  0  0  0  0  0
   14.1948   -1.8174   22.2457 C   0  0  0  0  0  0  0  0  0  0  0  0
    8.7309   -2.9022   24.2864 C   0  0  0  0  0  0  0  0  0  0  0  0
    9.3349   -0.9137   25.6971 C   0  0  0  0  0  0  0  0  0  0  0  0
    8.1840   -0.5781   23.4901 C   0  0  0  0  0  0  0  0  0  0  0  0
   13.1989    4.6380   22.1618 C   0  0  0  0  0  0  0  0  0  0  0  0
   12.8861   -1.1292   22.6285 C   0  0  2  0  0  0  0  0  0  0  0  0
    9.1739   -1.4399   24.2726 C   0  0  0  0  0  0  0  0  0  0  0  0
   11.8999    5.2613   22.1844 N   0  0  0  0  0  0  0  0  0  0  0  0
   11.7873   -1.6602   21.8553 N   0  0  0  0  0  0  0  0  0  0  0  0
   11.7698    5.5635   24.4848 O   0  0  0  0  0  0  0  0  0  0  0  0
    9.5454   -2.2412   21.7195 O   0  0  0  0  0  0  0  0  0  0  0  0
   10.4500   -1.3577   23.6368 O   0  0  0  0  0  0  0  0  0  0  0  0
   12.6825    3.1848   24.3978 H   0  0  0  0  0  0  0  0  0  0  0  0
   13.5362    2.8001   20.1930 H   0  0  0  0  0  0  0  0  0  0  0  0
   12.5511    0.7312   24.5958 H   0  0  0  0  0  0  0  0  0  0  0  0
   13.4012    0.3457   20.3906 H   0  0  0  0  0  0  0  0  0  0  0  0
    8.2513    7.1824   23.9455 H   0  0  0  0  0  0  0  0  0  0  0  0
    9.5581    6.6871   25.1634 H   0  0  0  0  0  0  0  0  0  0  0  0
    9.5855    6.3533   22.0974 H   0  0  0  0  0  0  0  0  0  0  0  0
   14.4722   -1.5897   21.2106 H   0  0  0  0  0  0  0  0  0  0  0  0
   15.0098   -1.4821   22.8970 H   0  0  0  0  0  0  0  0  0  0  0  0
   14.1299   -2.9066   22.3463 H   0  0  0  0  0  0  0  0  0  0  0  0
    8.6141   -3.2837   23.2657 H   0  0  0  0  0  0  0  0  0  0  0  0
    9.4501   -3.5366   24.8146 H   0  0  0  0  0  0  0  0  0  0  0  0
    7.7534   -3.0101   24.7704 H   0  0  0  0  0  0  0  0  0  0  0  0
    9.6527    0.1352   25.6920 H   0  0  0  0  0  0  0  0  0  0  0  0
   10.1130   -1.4693   26.2328 H   0  0  0  0  0  0  0  0  0  0  0  0
    8.4015   -0.9904   26.2641 H   0  0  0  0  0  0  0  0  0  0  0  0
    8.5016    0.4708   23.4800 H   0  0  0  0  0  0  0  0  0  0  0  0
    8.0836   -0.9187   22.4545 H   0  0  0  0  0  0  0  0  0  0  0  0
    7.1942   -0.5970   23.9604 H   0  0  0  0  0  0  0  0  0  0  0  0
   13.7866    5.0707   22.9836 H   0  0  0  0  0  0  0  0  0  0  0  0
   13.6908    4.9403   21.2270 H   0  0  0  0  0  0  0  0  0  0  0  0
   12.6627   -1.3938   23.6694 H   0  0  0  0  0  0  0  0  0  0  0  0
   11.4103    5.3674   21.2984 H   0  0  0  0  0  0  0  0  0  0  0  0
   11.9702   -1.9498   20.8995 H   0  0  0  0  0  0  0  0  0  0  0  0
  1  3  2  0  0  0  0
  1  5  1  0  0  0  0
  2  4  1  0  0  0  0
  2  5  2  0  0  0  0
  3  6  1  0  0  0  0
  4  6  2  0  0  0  0
  5 15  1  0  0  0  0
  6 16  1  0  0  0  0
  7  8  2  0  0  0  0
  8  9  1  0  0  0  0
  9 18  1  0  0  0  0
  9 20  2  0  0  0  0
 10 19  1  0  0  0  0
 10 21  2  0  0  0  0
 10 22  1  0  0  0  0
 11 16  1  0  0  0  0
 12 17  1  0  0  0  0
 13 17  1  0  0  0  0
 14 17  1  0  0  0  0
 15 18  1  0  0  0  0
 16 19  1  0  0  0  0
 17 22  1  0  0  0  0
  1 23  1  0  0  0  0
  2 24  1  0  0  0  0
  3 25  1  0  0  0  0
  4 26  1  0  0  0  0
  7 27  1  0  0  0  0
  7 28  1  0  0  0  0
  8 29  1  0  0  0  0
 11 30  1  0  0  0  0
 11 31  1  0  0  0  0
 11 32  1  0  0  0  0
 12 33  1  0  0  0  0
 12 34  1  0  0  0  0
 12 35  1  0  0  0  0
 13 36  1  0  0  0  0
 13 37  1  0  0  0  0
 13 38  1  0  0  0  0
 14 39  1  0  0  0  0
 14 40  1  0  0  0  0
 14 41  1  0  0  0  0
 15 42  1  0  0  0  0
 15 43  1  0  0  0  0
 16 44  1  0  0  0  0
 18 45  1  0  0  0  0
 19 46  1  0  0  0  0
M  END
> <Hybrid2>
-8.835014

> <fragments>
x0195

> <Mpro-x0195_dock>
-8.835014

> <Mpro-x0104_dock>
-7.345039

> <Mpro-x0946_dock>
-7.083376

> <Mpro-x0749_dock>
-6.555734

> <Mpro-x0678_dock>
-6.424134

> <Mpro-x0072_dock>
-6.352791

> <Mpro-x0434_dock>
-6.200233

> <Mpro-x0161_dock>
-5.753992

> <Mpro-x0830_dock>
-5.739954

> <Mpro-x0395_dock>
-5.497776

> <Mpro-x1077_dock>
-5.458084

> <Mpro-x0967_dock>
-4.857642

> <Mpro-x0387_dock>
-4.521119

> <Mpro-x0874_dock>
-4.378307

> <Mpro-x1392_dock>
-4.305943

> <Mpro-x0397_dock>
-4.291222

> <Mpro-x0107_dock>
-4.08995

> <Mpro-x1311_dock>
-4.005215

> <Mpro-x1093_dock>
-3.922276

> <Mpro-x1348_dock>
-3.417941

> <Mpro-x1334_dock>
-2.972883

> <Mpro-x1249_dock>
-2.728827

> <Mpro-x0831_dock>
-2.565917

> <Mpro-x0770_dock>
-2.517847

> <Mpro-x0354_dock>
-2.503961

> <Mpro-x1385_dock>
-2.499459

> <Mpro-x0692_dock>
-2.431513

> <Mpro-x1493_dock>
-2.272782

> <Mpro-x1187_dock>
-2.240778

> <Mpro-x1418_dock>
-2.069958

> <Mpro-x1478_dock>
-2.00078

> <Mpro-x1384_dock>
-1.737546

> <Mpro-x0708_dock>
-1.67266

> <Mpro-x1358_dock>
-1.633848

> <Mpro-x0305_dock>
-1.628587

> <Mpro-x1386_dock>
-1.620387

> <Mpro-x0759_dock>
-1.495645

> <Mpro-x1382_dock>
-1.395242

> <Mpro-x0736_dock>
-1.37134

> <Mpro-x1374_dock>
-1.365861

> <Mpro-x1375_dock>
-1.040935

> <Mpro-x0771_dock>
-0.918514

> <Mpro-x1380_dock>
-0.868228

> <Mpro-x0887_dock>
-0.726213

> <Mpro-x0774_dock>
-0.664836

> <Mpro-x1412_dock>
-0.654683

> <Mpro-x1425_dock>
-0.649563

> <Mpro-x0731_dock>
-0.647997

> <Mpro-x0978_dock>
-0.334397

> <Mpro-x0769_dock>
-0.332314

> <Mpro-x1308_dock>
-0.231795

> <Mpro-x0691_dock>
-0.226611

> <Mpro-x0752_dock>
0.026914

> <Mpro-x0755_dock>
0.109209

> <Mpro-x0981_dock>
0.164078

> <Mpro-x0705_dock>
0.289868

> <Mpro-x0734_dock>
0.445161

> <Mpro-x1351_dock>
0.446529

> <Mpro-x0426_dock>
0.486503

> <Mpro-x0689_dock>
0.556887

> <Mpro-x0820_dock>
0.678751

> <Mpro-x1402_dock>
0.928711

> <Mpro-x0540_dock>
1.048947

> <Mpro-x0786_dock>
1.371518

> <Mpro-x1458_dock>
2.145314

> <site>
active-noncovalent

$$$$
WAR-XCH-b68-20
  -OEChem-04022003013D

 42 43  0     0  0  0  0  0  0999 V2000
   12.3615    2.4536   22.6215 C   0  0  0  0  0  0  0  0  0  0  0  0
   10.9431    1.8492   24.4816 C   0  0  0  0  0  0  0  0  0  0  0  0
   11.7326    3.6963   22.5458 C   0  0  0  0  0  0  0  0  0  0  0  0
   10.3142    3.0920   24.4059 C   0  0  0  0  0  0  0  0  0  0  0  0
   11.9667    1.5300   23.5894 C   0  0  0  0  0  0  0  0  0  0  0  0
   10.7090    4.0155   23.4380 C   0  0  0  0  0  0  0  0  0  0  0  0
   13.6885   -1.5784   22.4714 C   0  0  0  0  0  0  0  0  0  0  0  0
   13.8748   -1.3817   24.9589 C   0  0  0  0  0  0  0  0  0  0  0  0
   12.5262   -0.5858   22.4826 C   0  0  0  0  0  0  0  0  0  0  0  0
   12.7135   -0.3869   24.9658 C   0  0  0  0  0  0  0  0  0  0  0  0
   13.8183   -2.3622   23.7825 C   0  0  0  0  0  0  0  0  0  0  0  0
    9.0749   -2.8234   24.1140 C   0  0  0  0  0  0  0  0  0  0  0  0
   12.7007   -3.3937   23.9489 C   0  0  0  0  0  0  0  0  0  0  0  0
   10.3665   -3.6129   24.1113 C   0  0  0  0  0  0  0  0  0  0  0  0
   12.5978    0.2821   23.6659 N   0  0  0  0  0  0  0  0  0  0  0  0
    8.6460    5.2242   22.2597 N   0  0  0  0  0  0  0  0  0  0  0  0
    9.3560    5.8795   24.6497 O   0  0  0  0  0  0  0  0  0  0  0  0
   10.8313    6.5128   22.7080 O   0  0  0  0  0  0  0  0  0  0  0  0
   11.4592   -2.7137   23.9591 O   0  0  0  0  0  0  0  0  0  0  0  0
    9.9208    5.5706   23.3435 S   0  0  0  0  0  0  0  0  0  0  0  0
   13.1577    2.2152   21.9210 H   0  0  0  0  0  0  0  0  0  0  0  0
   10.6284    1.1372   25.2404 H   0  0  0  0  0  0  0  0  0  0  0  0
   12.0482    4.4080   21.7876 H   0  0  0  0  0  0  0  0  0  0  0  0
    9.5177    3.3299   25.1061 H   0  0  0  0  0  0  0  0  0  0  0  0
   13.5593   -2.2767   21.6267 H   0  0  0  0  0  0  0  0  0  0  0  0
   14.6245   -1.0318   22.2708 H   0  0  0  0  0  0  0  0  0  0  0  0
   14.8253   -0.8216   24.9319 H   0  0  0  0  0  0  0  0  0  0  0  0
   13.8807   -1.9372   25.9139 H   0  0  0  0  0  0  0  0  0  0  0  0
   12.5497    0.0259   21.5713 H   0  0  0  0  0  0  0  0  0  0  0  0
   11.5837   -1.1475   22.4801 H   0  0  0  0  0  0  0  0  0  0  0  0
   11.7885   -0.9303   25.1988 H   0  0  0  0  0  0  0  0  0  0  0  0
   12.8669    0.3586   25.7575 H   0  0  0  0  0  0  0  0  0  0  0  0
   14.7829   -2.9169   23.7541 H   0  0  0  0  0  0  0  0  0  0  0  0
    9.0563   -2.1085   24.9413 H   0  0  0  0  0  0  0  0  0  0  0  0
    8.9540   -2.2777   23.1724 H   0  0  0  0  0  0  0  0  0  0  0  0
    8.2134   -3.4932   24.2065 H   0  0  0  0  0  0  0  0  0  0  0  0
   12.8270   -3.9289   24.8896 H   0  0  0  0  0  0  0  0  0  0  0  0
   12.7195   -4.0986   23.1182 H   0  0  0  0  0  0  0  0  0  0  0  0
   10.3786   -4.3260   23.2815 H   0  0  0  0  0  0  0  0  0  0  0  0
   10.4861   -4.1568   25.0530 H   0  0  0  0  0  0  0  0  0  0  0  0
    7.6912    5.1821   22.6365 H   0  0  0  0  0  0  0  0  0  0  0  0
    8.7010    5.6135   21.3107 H   0  0  0  0  0  0  0  0  0  0  0  0
  1  3  2  0  0  0  0
  1  5  1  0  0  0  0
  2  4  1  0  0  0  0
  2  5  2  0  0  0  0
  3  6  1  0  0  0  0
  4  6  2  0  0  0  0
  5 15  1  0  0  0  0
  6 20  1  0  0  0  0
  7  9  1  0  0  0  0
  7 11  1  0  0  0  0
  8 10  1  0  0  0  0
  8 11  1  0  0  0  0
  9 15  1  0  0  0  0
 10 15  1  0  0  0  0
 11 13  1  0  0  0  0
 12 14  1  0  0  0  0
 13 19  1  0  0  0  0
 14 19  1  0  0  0  0
 16 20  1  0  0  0  0
 17 20  2  0  0  0  0
 18 20  2  0  0  0  0
  1 21  1  0  0  0  0
  2 22  1  0  0  0  0
  3 23  1  0  0  0  0
  4 24  1  0  0  0  0
  7 25  1  0  0  0  0
  7 26  1  0  0  0  0
  8 27  1  0  0  0  0
  8 28  1  0  0  0  0
  9 29  1  0  0  0  0
  9 30  1  0  0  0  0
 10 31  1  0  0  0  0
 10 32  1  0  0  0  0
 11 33  1  0  0  0  0
 12 34  1  0  0  0  0
 12 35  1  0  0  0  0
 12 36  1  0  0  0  0
 13 37  1  0  0  0  0
 13 38  1  0  0  0  0
 14 39  1  0  0  0  0
 14 40  1  0  0  0  0
 16 41  1  0  0  0  0
 16 42  1  0  0  0  0
M  END
> <Hybrid2>
-8.822823

> <fragments>
x0161

> <Mpro-x0161_dock>
-8.822823

> <Mpro-x0749_dock>
-8.15907

> <Mpro-x0830_dock>
-7.588448

> <Mpro-x1077_dock>
-7.353088

> <Mpro-x0946_dock>
-7.115089

> <Mpro-x0195_dock>
-6.611514

> <Mpro-x0692_dock>
-6.563928

> <Mpro-x0831_dock>
-6.468801

> <Mpro-x0107_dock>
-6.287124

> <Mpro-x0874_dock>
-5.943885

> <Mpro-x0678_dock>
-5.77807

> <Mpro-x0434_dock>
-5.599891

> <Mpro-x0072_dock>
-5.575853

> <Mpro-x0967_dock>
-5.512701

> <Mpro-x0104_dock>
-5.327464

> <Mpro-x0397_dock>
-5.267788

> <Mpro-x0395_dock>
-5.121545

> <Mpro-x1093_dock>
-5.117309

> <Mpro-x1385_dock>
-5.082599

> <Mpro-x1392_dock>
-5.014621

> <Mpro-x0708_dock>
-4.918425

> <Mpro-x0387_dock>
-4.803078

> <Mpro-x1334_dock>
-4.603013

> <Mpro-x1311_dock>
-4.367054

> <Mpro-x1249_dock>
-4.167549

> <Mpro-x1412_dock>
-3.800154

> <Mpro-x1187_dock>
-3.466377

> <Mpro-x1375_dock>
-3.403193

> <Mpro-x0305_dock>
-3.105674

> <Mpro-x0759_dock>
-3.051388

> <Mpro-x1418_dock>
-2.956025

> <Mpro-x1374_dock>
-2.777516

> <Mpro-x1380_dock>
-2.73807

> <Mpro-x0736_dock>
-2.712532

> <Mpro-x0774_dock>
-2.69738

> <Mpro-x1386_dock>
-2.583567

> <Mpro-x0770_dock>
-2.427339

> <Mpro-x0354_dock>
-2.134515

> <Mpro-x1358_dock>
-1.877479

> <Mpro-x1384_dock>
-1.863286

> <Mpro-x1458_dock>
-1.82197

> <Mpro-x1348_dock>
-1.732573

> <Mpro-x0426_dock>
-1.608565

> <Mpro-x0771_dock>
-1.607828

> <Mpro-x1382_dock>
-1.599989

> <Mpro-x1478_dock>
-1.5985

> <Mpro-x0691_dock>
-1.375588

> <Mpro-x1493_dock>
-1.304228

> <Mpro-x0820_dock>
-1.227311

> <Mpro-x1351_dock>
-1.210745

> <Mpro-x0769_dock>
-1.165038

> <Mpro-x1308_dock>
-1.086057

> <Mpro-x0734_dock>
-0.847573

> <Mpro-x1425_dock>
-0.827545

> <Mpro-x0755_dock>
-0.715855

> <Mpro-x0689_dock>
-0.558174

> <Mpro-x0887_dock>
-0.512602

> <Mpro-x0705_dock>
-0.324921

> <Mpro-x0786_dock>
0.112361

> <Mpro-x0752_dock>
0.243898

> <Mpro-x0731_dock>
0.498579

> <Mpro-x1402_dock>
0.908317

> <Mpro-x0981_dock>
0.97083

> <Mpro-x0540_dock>
1.150331

> <Mpro-x0978_dock>
1.813001

> <site>
active-noncovalent

$$$$
WAR-XCH-b72-16
  -OEChem-04022003013D

 39 41  0     0  0  0  0  0  0999 V2000
   12.0224    1.5874   23.3436 C   0  0  0  0  0  0  0  0  0  0  0  0
   14.1388    0.6841   22.6074 C   0  0  0  0  0  0  0  0  0  0  0  0
   12.3743    2.8339   22.8259 C   0  0  0  0  0  0  0  0  0  0  0  0
   14.4907    1.9306   22.0897 C   0  0  0  0  0  0  0  0  0  0  0  0
    8.1205   -1.9884   22.1866 C   0  0  0  0  0  0  0  0  0  0  0  0
    6.9012   -2.5461   21.8705 C   0  0  0  0  0  0  0  0  0  0  0  0
    8.2321   -4.0053   23.3364 C   0  0  0  0  0  0  0  0  0  0  0  0
    8.8916   -2.8338   23.0356 C   0  0  0  0  0  0  0  0  0  0  0  0
   12.9047    0.5125   23.2344 C   0  0  0  0  0  0  0  0  0  0  0  0
   13.6085    3.0055   22.1990 C   0  0  0  0  0  0  0  0  0  0  0  0
   10.2584   -1.2239   24.4409 C   0  0  0  0  0  0  0  0  0  0  0  0
   11.2951   -2.3290   22.3998 C   0  0  0  0  0  0  0  0  0  0  0  0
   11.6712   -0.8727   24.9116 C   0  0  0  0  0  0  0  0  0  0  0  0
   12.6797   -1.9429   22.9330 C   0  0  0  0  0  0  0  0  0  0  0  0
   10.2757   -2.4825   23.5480 C   0  0  0  0  0  0  0  0  0  0  0  0
   12.5541   -0.7311   23.7506 N   0  0  0  0  0  0  0  0  0  0  0  0
   12.6636    5.4846   21.9416 N   0  0  0  0  0  0  0  0  0  0  0  0
   15.1816    5.0756   22.3129 O   0  0  0  0  0  0  0  0  0  0  0  0
   14.1446    4.4549   20.1023 O   0  0  0  0  0  0  0  0  0  0  0  0
    6.6899   -4.0827   22.5961 S   0  0  0  0  0  0  0  0  0  0  0  0
   14.0501    4.5655   21.5513 S   0  0  0  0  0  0  0  0  0  0  0  0
   11.0583    1.4650   23.8305 H   0  0  0  0  0  0  0  0  0  0  0  0
   14.8334   -0.1472   22.5159 H   0  0  0  0  0  0  0  0  0  0  0  0
   11.6793    3.6642   22.9168 H   0  0  0  0  0  0  0  0  0  0  0  0
   15.4550    2.0528   21.6034 H   0  0  0  0  0  0  0  0  0  0  0  0
    8.4399   -1.0195   21.8240 H   0  0  0  0  0  0  0  0  0  0  0  0
    6.1240   -2.1245   21.2488 H   0  0  0  0  0  0  0  0  0  0  0  0
    8.5780   -4.8214   23.9557 H   0  0  0  0  0  0  0  0  0  0  0  0
    9.6169   -1.3916   25.3116 H   0  0  0  0  0  0  0  0  0  0  0  0
    9.8326   -0.3764   23.8926 H   0  0  0  0  0  0  0  0  0  0  0  0
   10.9527   -1.5679   21.6884 H   0  0  0  0  0  0  0  0  0  0  0  0
   11.3730   -3.2679   21.8409 H   0  0  0  0  0  0  0  0  0  0  0  0
   11.6288    0.0628   25.4760 H   0  0  0  0  0  0  0  0  0  0  0  0
   12.0478   -1.6551   25.5767 H   0  0  0  0  0  0  0  0  0  0  0  0
   13.0876   -2.7581   23.5312 H   0  0  0  0  0  0  0  0  0  0  0  0
   13.3436   -1.7664   22.0867 H   0  0  0  0  0  0  0  0  0  0  0  0
   10.5939   -3.3472   24.1776 H   0  0  0  0  0  0  0  0  0  0  0  0
   12.7455    6.1880   22.6859 H   0  0  0  0  0  0  0  0  0  0  0  0
   12.0376    5.7615   21.1757 H   0  0  0  0  0  0  0  0  0  0  0  0
  1  3  2  0  0  0  0
  1  9  1  0  0  0  0
  2  4  1  0  0  0  0
  2  9  2  0  0  0  0
  3 10  1  0  0  0  0
  4 10  2  0  0  0  0
  5  6  2  0  0  0  0
  5  8  1  0  0  0  0
  6 20  1  0  0  0  0
  7  8  2  0  0  0  0
  7 20  1  0  0  0  0
  8 15  1  0  0  0  0
  9 16  1  0  0  0  0
 10 21  1  0  0  0  0
 11 13  1  0  0  0  0
 11 15  1  0  0  0  0
 12 14  1  0  0  0  0
 12 15  1  0  0  0  0
 13 16  1  0  0  0  0
 14 16  1  0  0  0  0
 17 21  1  0  0  0  0
 18 21  2  0  0  0  0
 19 21  2  0  0  0  0
  1 22  1  0  0  0  0
  2 23  1  0  0  0  0
  3 24  1  0  0  0  0
  4 25  1  0  0  0  0
  5 26  1  0  0  0  0
  6 27  1  0  0  0  0
  7 28  1  0  0  0  0
 11 29  1  0  0  0  0
 11 30  1  0  0  0  0
 12 31  1  0  0  0  0
 12 32  1  0  0  0  0
 13 33  1  0  0  0  0
 13 34  1  0  0  0  0
 14 35  1  0  0  0  0
 14 36  1  0  0  0  0
 15 37  1  0  0  0  0
 17 38  1  0  0  0  0
 17 39  1  0  0  0  0
M  END
> <Hybrid2>
-8.814410

> <fragments>
x0195

> <Mpro-x0195_dock>
-8.81441

> <Mpro-x0072_dock>
-8.280297

> <Mpro-x0946_dock>
-7.538882

> <Mpro-x1077_dock>
-7.508249

> <Mpro-x0874_dock>
-7.290708

> <Mpro-x0749_dock>
-7.060645

> <Mpro-x0830_dock>
-7.007396

> <Mpro-x0161_dock>
-6.846065

> <Mpro-x0107_dock>
-6.163248

> <Mpro-x0104_dock>
-6.066217

> <Mpro-x0678_dock>
-5.754721

> <Mpro-x0692_dock>
-5.72966

> <Mpro-x1093_dock>
-5.698216

> <Mpro-x0708_dock>
-5.608876

> <Mpro-x0395_dock>
-5.401383

> <Mpro-x0967_dock>
-5.382738

> <Mpro-x1392_dock>
-5.03729

> <Mpro-x0397_dock>
-4.971195

> <Mpro-x0387_dock>
-4.782228

> <Mpro-x1334_dock>
-4.509337

> <Mpro-x0831_dock>
-4.208519

> <Mpro-x1311_dock>
-3.909025

> <Mpro-x1412_dock>
-3.728195

> <Mpro-x1385_dock>
-3.707258

> <Mpro-x0354_dock>
-3.616306

> <Mpro-x1249_dock>
-3.581634

> <Mpro-x1348_dock>
-3.550553

> <Mpro-x1187_dock>
-3.344168

> <Mpro-x0434_dock>
-2.905853

> <Mpro-x0305_dock>
-2.772697

> <Mpro-x1374_dock>
-2.404697

> <Mpro-x1375_dock>
-2.382154

> <Mpro-x0736_dock>
-2.187065

> <Mpro-x1386_dock>
-2.065055

> <Mpro-x1380_dock>
-1.957272

> <Mpro-x1418_dock>
-1.60399

> <Mpro-x0770_dock>
-1.542366

> <Mpro-x0734_dock>
-1.438587

> <Mpro-x0426_dock>
-1.406262

> <Mpro-x0771_dock>
-1.388634

> <Mpro-x0540_dock>
-1.296551

> <Mpro-x1351_dock>
-1.246796

> <Mpro-x0774_dock>
-1.229433

> <Mpro-x0759_dock>
-1.095591

> <Mpro-x1358_dock>
-1.08525

> <Mpro-x1382_dock>
-1.022781

> <Mpro-x1493_dock>
-0.880472

> <Mpro-x1478_dock>
-0.832237

> <Mpro-x1458_dock>
-0.699935

> <Mpro-x1308_dock>
-0.699308

> <Mpro-x1384_dock>
-0.340348

> <Mpro-x0691_dock>
-0.328602

> <Mpro-x0752_dock>
0.144973

> <Mpro-x0887_dock>
0.19488

> <Mpro-x1425_dock>
0.304379

> <Mpro-x0769_dock>
0.429473

> <Mpro-x0705_dock>
0.439668

> <Mpro-x0820_dock>
0.703255

> <Mpro-x0755_dock>
0.726266

> <Mpro-x0786_dock>
0.859158

> <Mpro-x0689_dock>
1.109532

> <Mpro-x0731_dock>
1.336806

> <Mpro-x0978_dock>
1.527058

> <Mpro-x1402_dock>
1.933146

> <Mpro-x0981_dock>
3.787546

> <site>
active-noncovalent

$$$$
BAR-COM-4e0-35
  -OEChem-04022003013D

 41 43  0     0  0  0  0  0  0999 V2000
   14.3975   -1.3105   22.2293 C   0  0  0  0  0  0  0  0  0  0  0  0
   11.3817    7.1107   25.3997 C   0  0  0  0  0  0  0  0  0  0  0  0
   12.2676    6.1721   24.8824 C   0  0  0  0  0  0  0  0  0  0  0  0
   14.4606    0.0827   22.2554 C   0  0  0  0  0  0  0  0  0  0  0  0
   13.2691   -1.9670   22.7208 C   0  0  0  0  0  0  0  0  0  0  0  0
   12.2669    0.1630   23.2646 C   0  0  0  0  0  0  0  0  0  0  0  0
   10.2482    7.4088   24.6608 C   0  0  0  0  0  0  0  0  0  0  0  0
    7.1784   -0.8001   22.0628 C   0  0  0  0  0  0  0  0  0  0  0  0
    8.6272   -1.9892   21.1440 C   0  0  0  0  0  0  0  0  0  0  0  0
   11.9967    5.5689   23.6593 C   0  0  0  0  0  0  0  0  0  0  0  0
   13.3953    0.8194   22.7731 C   0  0  0  0  0  0  0  0  0  0  0  0
   12.2038   -1.2302   23.2384 C   0  0  0  0  0  0  0  0  0  0  0  0
   10.8356    5.9358   22.9983 C   0  0  0  0  0  0  0  0  0  0  0  0
   12.4958    3.1179   23.2760 C   0  0  0  0  0  0  0  0  0  0  0  0
   12.9684    4.5543   23.1157 C   0  0  0  0  0  0  0  0  0  0  0  0
    9.2636   -3.3402   23.1922 C   0  0  0  0  0  0  0  0  0  0  0  0
   10.7693   -3.1235   23.1224 C   0  0  0  0  0  0  0  0  0  0  0  0
    9.9512    6.8435   23.4692 N   0  0  0  0  0  0  0  0  0  0  0  0
    7.7863   -1.0218   20.8603 N   0  0  0  0  0  0  0  0  0  0  0  0
    7.5903   -1.5694   23.0727 N   0  0  0  0  0  0  0  0  0  0  0  0
    8.5168   -2.3207   22.4584 N   0  0  0  0  0  0  0  0  0  0  0  0
   13.4586    2.2130   22.7987 N   0  0  0  0  0  0  0  0  0  0  0  0
   11.4055    2.8370   23.7632 O   0  0  0  0  0  0  0  0  0  0  0  0
   11.1027   -1.8707   23.7182 O   0  0  0  0  0  0  0  0  0  0  0  0
   10.4001    5.1497   21.3174 Br  0  0  0  0  0  0  0  0  0  0  0  0
   15.2267   -1.8837   21.8254 H   0  0  0  0  0  0  0  0  0  0  0  0
   11.5727    7.5940   26.3509 H   0  0  0  0  0  0  0  0  0  0  0  0
   13.1652    5.9185   25.4399 H   0  0  0  0  0  0  0  0  0  0  0  0
   15.3451    0.5835   21.8702 H   0  0  0  0  0  0  0  0  0  0  0  0
   13.2262   -3.0523   22.6968 H   0  0  0  0  0  0  0  0  0  0  0  0
   11.4334    0.7332   23.6688 H   0  0  0  0  0  0  0  0  0  0  0  0
    9.5261    8.1345   25.0201 H   0  0  0  0  0  0  0  0  0  0  0  0
    6.4098   -0.0558   22.2076 H   0  0  0  0  0  0  0  0  0  0  0  0
    9.3120   -2.4704   20.4602 H   0  0  0  0  0  0  0  0  0  0  0  0
   13.1465    4.7489   22.0504 H   0  0  0  0  0  0  0  0  0  0  0  0
   13.9363    4.6659   23.6206 H   0  0  0  0  0  0  0  0  0  0  0  0
    8.9097   -3.3265   24.2296 H   0  0  0  0  0  0  0  0  0  0  0  0
    8.9953   -4.3103   22.7582 H   0  0  0  0  0  0  0  0  0  0  0  0
   11.2830   -3.9095   23.6849 H   0  0  0  0  0  0  0  0  0  0  0  0
   11.1348   -3.1306   22.0904 H   0  0  0  0  0  0  0  0  0  0  0  0
   14.3175    2.6299   22.4212 H   0  0  0  0  0  0  0  0  0  0  0  0
  1  4  2  0  0  0  0
  1  5  1  0  0  0  0
  2  3  2  0  0  0  0
  2  7  1  0  0  0  0
  3 10  1  0  0  0  0
  4 11  1  0  0  0  0
  5 12  2  0  0  0  0
  6 11  2  0  0  0  0
  6 12  1  0  0  0  0
  7 18  2  0  0  0  0
  8 19  1  0  0  0  0
  8 20  2  0  0  0  0
  9 19  2  0  0  0  0
  9 21  1  0  0  0  0
 10 13  2  0  0  0  0
 10 15  1  0  0  0  0
 11 22  1  0  0  0  0
 12 24  1  0  0  0  0
 13 18  1  0  0  0  0
 13 25  1  0  0  0  0
 14 15  1  0  0  0  0
 14 22  1  0  0  0  0
 14 23  2  0  0  0  0
 16 17  1  0  0  0  0
 16 21  1  0  0  0  0
 17 24  1  0  0  0  0
 20 21  1  0  0  0  0
  1 26  1  0  0  0  0
  2 27  1  0  0  0  0
  3 28  1  0  0  0  0
  4 29  1  0  0  0  0
  5 30  1  0  0  0  0
  6 31  1  0  0  0  0
  7 32  1  0  0  0  0
  8 33  1  0  0  0  0
  9 34  1  0  0  0  0
 15 35  1  0  0  0  0
 15 36  1  0  0  0  0
 16 37  1  0  0  0  0
 16 38  1  0  0  0  0
 17 39  1  0  0  0  0
 17 40  1  0  0  0  0
 22 41  1  0  0  0  0
M  END
> <Hybrid2>
-8.784991

> <fragments>
x0195

> <Mpro-x0195_dock>
-8.784991

> <Mpro-x0946_dock>
-7.625734

> <Mpro-x0678_dock>
-7.292602

> <Mpro-x0161_dock>
-7.277218

> <Mpro-x0967_dock>
-7.193333

> <Mpro-x0107_dock>
-6.957887

> <Mpro-x0434_dock>
-5.923429

> <Mpro-x0397_dock>
-5.143844

> <Mpro-x1077_dock>
-5.112651

> <Mpro-x1093_dock>
-4.781956

> <Mpro-x0395_dock>
-4.659066

> <Mpro-x1249_dock>
-4.547551

> <Mpro-x0104_dock>
-4.515829

> <Mpro-x0387_dock>
-4.347701

> <Mpro-x0874_dock>
-4.165718

> <Mpro-x0072_dock>
-4.162957

> <Mpro-x0749_dock>
-3.824738

> <Mpro-x1187_dock>
-3.695771

> <Mpro-x1311_dock>
-2.973608

> <Mpro-x0830_dock>
-2.921141

> <Mpro-x0831_dock>
-2.86048

> <Mpro-x0305_dock>
-2.639355

> <Mpro-x0692_dock>
-1.937601

> <Mpro-x1374_dock>
-1.923288

> <Mpro-x1334_dock>
-1.887852

> <Mpro-x1380_dock>
-1.727737

> <Mpro-x1358_dock>
-1.680302

> <Mpro-x0354_dock>
-1.530424

> <Mpro-x0752_dock>
-1.290633

> <Mpro-x1385_dock>
-1.034669

> <Mpro-x0708_dock>
-0.982446

> <Mpro-x1392_dock>
-0.886701

> <Mpro-x1412_dock>
-0.622801

> <Mpro-x1375_dock>
-0.609971

> <Mpro-x1351_dock>
-0.318431

> <Mpro-x0820_dock>
-0.274321

> <Mpro-x0771_dock>
-0.244949

> <Mpro-x1384_dock>
-0.181712

> <Mpro-x1425_dock>
-0.14755

> <Mpro-x1458_dock>
0.016584

> <Mpro-x0769_dock>
0.121402

> <Mpro-x1493_dock>
0.255792

> <Mpro-x0755_dock>
0.286401

> <Mpro-x0734_dock>
0.41798

> <Mpro-x1308_dock>
0.464969

> <Mpro-x1402_dock>
0.701138

> <Mpro-x0731_dock>
0.846683

> <Mpro-x1348_dock>
0.881857

> <Mpro-x1478_dock>
0.89788

> <Mpro-x0736_dock>
1.100144

> <Mpro-x0978_dock>
1.227009

> <Mpro-x0759_dock>
1.284962

> <Mpro-x1386_dock>
1.332254

> <Mpro-x1418_dock>
1.484165

> <Mpro-x0689_dock>
1.504585

> <Mpro-x0770_dock>
1.566792

> <Mpro-x0691_dock>
1.594482

> <Mpro-x0887_dock>
1.621617

> <Mpro-x0786_dock>
1.683696

> <Mpro-x0540_dock>
1.729474

> <Mpro-x0426_dock>
1.841968

> <Mpro-x0774_dock>
2.110568

> <Mpro-x0705_dock>
2.499513

> <Mpro-x1382_dock>
4.432504

> <Mpro-x0981_dock>
5.101603

> <site>
active-noncovalent

$$$$
WAR-XCH-b72-1
  -OEChem-04022003013D

 30 31  0     0  0  0  0  0  0999 V2000
    9.5974   -2.8608   22.8104 C   0  0  0  0  0  0  0  0  0  0  0  0
    9.7345   -4.4669   24.6101 C   0  0  0  0  0  0  0  0  0  0  0  0
    8.5100   -3.5521   22.2762 C   0  0  0  0  0  0  0  0  0  0  0  0
    8.6471   -5.1582   24.0760 C   0  0  0  0  0  0  0  0  0  0  0  0
   10.2097   -3.3182   23.9773 C   0  0  0  0  0  0  0  0  0  0  0  0
    8.0349   -4.7008   22.9090 C   0  0  0  0  0  0  0  0  0  0  0  0
   11.4229   -1.1808   24.3288 C   0  0  0  0  0  0  0  0  0  0  0  0
   12.3308   -3.3357   25.2673 C   0  0  0  0  0  0  0  0  0  0  0  0
   12.0783   -0.5164   25.5337 C   0  0  0  0  0  0  0  0  0  0  0  0
   13.7049   -2.7079   25.0653 C   0  0  0  0  0  0  0  0  0  0  0  0
   11.2865   -2.6340   24.5067 N   0  0  0  0  0  0  0  0  0  0  0  0
    6.3249   -4.6144   20.8661 N   0  0  0  0  0  0  0  0  0  0  0  0
    7.1348   -6.8765   21.8003 O   0  0  0  0  0  0  0  0  0  0  0  0
    5.5599   -5.4685   23.1731 O   0  0  0  0  0  0  0  0  0  0  0  0
   13.8072   -1.0292   25.7522 S   0  0  0  0  0  0  0  0  0  0  0  0
    6.6743   -5.5672   22.2408 S   0  0  0  0  0  0  0  0  0  0  0  0
    9.9597   -1.9670   22.3089 H   0  0  0  0  0  0  0  0  0  0  0  0
   10.2036   -4.8314   25.5205 H   0  0  0  0  0  0  0  0  0  0  0  0
    8.0410   -3.1868   21.3667 H   0  0  0  0  0  0  0  0  0  0  0  0
    8.2854   -6.0521   24.5773 H   0  0  0  0  0  0  0  0  0  0  0  0
   10.4308   -0.7336   24.1535 H   0  0  0  0  0  0  0  0  0  0  0  0
   12.0020   -0.9772   23.4129 H   0  0  0  0  0  0  0  0  0  0  0  0
   12.3454   -4.4006   24.9715 H   0  0  0  0  0  0  0  0  0  0  0  0
   12.0742   -3.3366   26.3421 H   0  0  0  0  0  0  0  0  0  0  0  0
   12.0635    0.5763   25.4005 H   0  0  0  0  0  0  0  0  0  0  0  0
   11.5176   -0.7222   26.4595 H   0  0  0  0  0  0  0  0  0  0  0  0
   14.4967   -3.3275   25.5082 H   0  0  0  0  0  0  0  0  0  0  0  0
   13.9213   -2.6439   23.9908 H   0  0  0  0  0  0  0  0  0  0  0  0
    6.5475   -5.0028   19.9414 H   0  0  0  0  0  0  0  0  0  0  0  0
    5.4731   -4.0405   20.8813 H   0  0  0  0  0  0  0  0  0  0  0  0
  1  3  2  0  0  0  0
  1  5  1  0  0  0  0
  2  4  1  0  0  0  0
  2  5  2  0  0  0  0
  3  6  1  0  0  0  0
  4  6  2  0  0  0  0
  5 11  1  0  0  0  0
  6 16  1  0  0  0  0
  7  9  1  0  0  0  0
  7 11  1  0  0  0  0
  8 10  1  0  0  0  0
  8 11  1  0  0  0  0
  9 15  1  0  0  0  0
 10 15  1  0  0  0  0
 12 16  1  0  0  0  0
 13 16  2  0  0  0  0
 14 16  2  0  0  0  0
  1 17  1  0  0  0  0
  2 18  1  0  0  0  0
  3 19  1  0  0  0  0
  4 20  1  0  0  0  0
  7 21  1  0  0  0  0
  7 22  1  0  0  0  0
  8 23  1  0  0  0  0
  8 24  1  0  0  0  0
  9 25  1  0  0  0  0
  9 26  1  0  0  0  0
 10 27  1  0  0  0  0
 10 28  1  0  0  0  0
 12 29  1  0  0  0  0
 12 30  1  0  0  0  0
M  END
> <Hybrid2>
-8.766706

> <fragments>
x0749

> <Mpro-x0749_dock>
-8.766706

> <Mpro-x0195_dock>
-7.718575

> <Mpro-x0161_dock>
-7.274816

> <Mpro-x0072_dock>
-7.204563

> <Mpro-x0678_dock>
-7.170225

> <Mpro-x1077_dock>
-7.004972

> <Mpro-x1093_dock>
-6.98611

> <Mpro-x0831_dock>
-6.946045

> <Mpro-x0830_dock>
-6.884103

> <Mpro-x1418_dock>
-6.77684

> <Mpro-x1311_dock>
-6.673906

> <Mpro-x0395_dock>
-6.390874

> <Mpro-x0104_dock>
-6.325298

> <Mpro-x1386_dock>
-6.273544

> <Mpro-x0692_dock>
-6.062918

> <Mpro-x0874_dock>
-5.921808

> <Mpro-x1392_dock>
-5.919434

> <Mpro-x1385_dock>
-5.898249

> <Mpro-x0946_dock>
-5.832207

> <Mpro-x0759_dock>
-5.80324

> <Mpro-x0967_dock>
-5.779091

> <Mpro-x0770_dock>
-5.608016

> <Mpro-x0708_dock>
-5.518751

> <Mpro-x0434_dock>
-5.439862

> <Mpro-x1334_dock>
-5.259202

> <Mpro-x0387_dock>
-5.213885

> <Mpro-x1412_dock>
-5.029164

> <Mpro-x1375_dock>
-4.831434

> <Mpro-x1374_dock>
-4.594156

> <Mpro-x0305_dock>
-4.555349

> <Mpro-x1187_dock>
-4.382921

> <Mpro-x0354_dock>
-4.367201

> <Mpro-x0397_dock>
-4.301665

> <Mpro-x0736_dock>
-4.286922

> <Mpro-x0774_dock>
-4.264221

> <Mpro-x0107_dock>
-4.054369

> <Mpro-x1382_dock>
-3.966675

> <Mpro-x1380_dock>
-3.908744

> <Mpro-x1249_dock>
-3.595813

> <Mpro-x1348_dock>
-3.513044

> <Mpro-x1493_dock>
-2.8727

> <Mpro-x1358_dock>
-2.849958

> <Mpro-x0820_dock>
-2.785864

> <Mpro-x1478_dock>
-2.532466

> <Mpro-x0771_dock>
-2.489684

> <Mpro-x0752_dock>
-2.365419

> <Mpro-x0426_dock>
-2.361791

> <Mpro-x0734_dock>
-2.328068

> <Mpro-x1351_dock>
-2.323378

> <Mpro-x1458_dock>
-2.082372

> <Mpro-x0786_dock>
-1.968068

> <Mpro-x0705_dock>
-1.900326

> <Mpro-x1384_dock>
-1.856769

> <Mpro-x1308_dock>
-1.76018

> <Mpro-x1425_dock>
-1.656149

> <Mpro-x0691_dock>
-1.471834

> <Mpro-x0769_dock>
-1.457304

> <Mpro-x0887_dock>
-1.450439

> <Mpro-x0689_dock>
-1.271214

> <Mpro-x0755_dock>
-1.157192

> <Mpro-x1402_dock>
-0.718218

> <Mpro-x0731_dock>
-0.407103

> <Mpro-x0978_dock>
-0.010718

> <Mpro-x0540_dock>
0.095744

> <Mpro-x0981_dock>
0.927176

> <site>
active-covalent

$$$$
BAR-COM-4e0-10
  -OEChem-04022003013D

 47 49  0     0  0  0  0  0  0999 V2000
    9.2671   -0.7569   26.5904 C   0  0  0  0  0  0  0  0  0  0  0  0
    9.7819    0.4873   26.9543 C   0  0  0  0  0  0  0  0  0  0  0  0
    5.6614    1.1608   19.0182 C   0  0  0  0  0  0  0  0  0  0  0  0
    9.1136   -1.0811   25.2424 C   0  0  0  0  0  0  0  0  0  0  0  0
   10.1432    1.4075   25.9702 C   0  0  0  0  0  0  0  0  0  0  0  0
   13.9775   -1.6404   22.9777 C   0  0  0  0  0  0  0  0  0  0  0  0
   13.1815   -1.1222   21.9561 C   0  0  0  0  0  0  0  0  0  0  0  0
    5.8849    0.2923   20.0721 C   0  0  0  0  0  0  0  0  0  0  0  0
   13.5775    0.3443   24.2960 C   0  0  0  0  0  0  0  0  0  0  0  0
    6.3229    0.9196   17.8309 C   0  0  0  0  0  0  0  0  0  0  0  0
    9.4749   -0.1609   24.2583 C   0  0  0  0  0  0  0  0  0  0  0  0
    9.9897    1.0834   24.6222 C   0  0  0  0  0  0  0  0  0  0  0  0
   14.1754   -0.9071   24.1477 C   0  0  0  0  0  0  0  0  0  0  0  0
   12.5836    0.1292   22.1045 C   0  0  0  0  0  0  0  0  0  0  0  0
   12.7815    0.8625   23.2745 C   0  0  0  0  0  0  0  0  0  0  0  0
    6.7549   -0.7601   19.8687 C   0  0  0  0  0  0  0  0  0  0  0  0
    9.3023   -0.5286   22.8588 C   0  0  0  0  0  0  0  0  0  0  0  0
    7.8581   -2.7677   20.8576 C   0  0  0  0  0  0  0  0  0  0  0  0
    9.2934   -2.4044   21.1993 C   0  0  0  0  0  0  0  0  0  0  0  0
    7.1689   -0.1183   17.6600 N   0  0  0  0  0  0  0  0  0  0  0  0
    7.3882   -0.9721   18.6957 N   0  0  0  0  0  0  0  0  0  0  0  0
   10.3663    2.0429   23.6305 N   0  0  0  0  0  0  0  0  0  0  0  0
    6.9794   -1.6311   20.9268 N   0  0  0  0  0  0  0  0  0  0  0  0
    9.4155   -1.8862   22.5429 N   0  0  0  0  0  0  0  0  0  0  0  0
    9.0863    0.3444   22.0018 O   0  0  0  0  0  0  0  0  0  0  0  0
   12.2186    3.1610   22.2134 O   0  0  0  0  0  0  0  0  0  0  0  0
   12.5247    3.0308   24.7012 O   0  0  0  0  0  0  0  0  0  0  0  0
   14.9405   -1.4047   25.1282 F   0  0  0  0  0  0  0  0  0  0  0  0
   11.8231    0.6181   21.1148 F   0  0  0  0  0  0  0  0  0  0  0  0
   12.0300    2.4535   23.4661 S   0  0  0  0  0  0  0  0  0  0  0  0
    8.9858   -1.4735   27.3564 H   0  0  0  0  0  0  0  0  0  0  0  0
    9.9004    0.7397   28.0039 H   0  0  0  0  0  0  0  0  0  0  0  0
    4.9874    2.0033   19.1215 H   0  0  0  0  0  0  0  0  0  0  0  0
    8.7121   -2.0542   24.9716 H   0  0  0  0  0  0  0  0  0  0  0  0
   10.5429    2.3743   26.2655 H   0  0  0  0  0  0  0  0  0  0  0  0
   14.4432   -2.6147   22.8618 H   0  0  0  0  0  0  0  0  0  0  0  0
   13.0266   -1.6925   21.0451 H   0  0  0  0  0  0  0  0  0  0  0  0
    5.3850    0.4460   21.0226 H   0  0  0  0  0  0  0  0  0  0  0  0
   13.7404    0.9080   25.2107 H   0  0  0  0  0  0  0  0  0  0  0  0
    6.1905    1.5628   16.9686 H   0  0  0  0  0  0  0  0  0  0  0  0
    7.4649   -3.5272   21.5408 H   0  0  0  0  0  0  0  0  0  0  0  0
    7.8016   -3.1555   19.8357 H   0  0  0  0  0  0  0  0  0  0  0  0
    9.9334   -3.2899   21.1371 H   0  0  0  0  0  0  0  0  0  0  0  0
    9.6857   -1.6439   20.5164 H   0  0  0  0  0  0  0  0  0  0  0  0
    9.8295    1.9977   22.7505 H   0  0  0  0  0  0  0  0  0  0  0  0
    6.4904   -1.4513   21.7996 H   0  0  0  0  0  0  0  0  0  0  0  0
    9.6554   -2.5487   23.2731 H   0  0  0  0  0  0  0  0  0  0  0  0
  1  2  1  0  0  0  0
  1  4  2  0  0  0  0
  2  5  2  0  0  0  0
  3  8  2  0  0  0  0
  3 10  1  0  0  0  0
  4 11  1  0  0  0  0
  5 12  1  0  0  0  0
  6  7  2  0  0  0  0
  6 13  1  0  0  0  0
  7 14  1  0  0  0  0
  8 16  1  0  0  0  0
  9 13  2  0  0  0  0
  9 15  1  0  0  0  0
 10 20  2  0  0  0  0
 11 12  2  0  0  0  0
 11 17  1  0  0  0  0
 12 22  1  0  0  0  0
 13 28  1  0  0  0  0
 14 15  2  0  0  0  0
 14 29  1  0  0  0  0
 15 30  1  0  0  0  0
 16 21  2  0  0  0  0
 16 23  1  0  0  0  0
 17 24  1  0  0  0  0
 17 25  2  0  0  0  0
 18 19  1  0  0  0  0
 18 23  1  0  0  0  0
 19 24  1  0  0  0  0
 20 21  1  0  0  0  0
 22 30  1  0  0  0  0
 26 30  2  0  0  0  0
 27 30  2  0  0  0  0
  1 31  1  0  0  0  0
  2 32  1  0  0  0  0
  3 33  1  0  0  0  0
  4 34  1  0  0  0  0
  5 35  1  0  0  0  0
  6 36  1  0  0  0  0
  7 37  1  0  0  0  0
  8 38  1  0  0  0  0
  9 39  1  0  0  0  0
 10 40  1  0  0  0  0
 18 41  1  0  0  0  0
 18 42  1  0  0  0  0
 19 43  1  0  0  0  0
 19 44  1  0  0  0  0
 22 45  1  0  0  0  0
 23 46  1  0  0  0  0
 24 47  1  0  0  0  0
M  END
> <Hybrid2>
-8.764250

> <fragments>
x0678

> <Mpro-x0678_dock>
-8.76425

> <Mpro-x1077_dock>
-7.72744

> <Mpro-x0874_dock>
-6.495042

> <Mpro-x0107_dock>
-5.682934

> <Mpro-x0161_dock>
-5.263767

> <Mpro-x0946_dock>
-4.971647

> <Mpro-x1348_dock>
-4.695594

> <Mpro-x0195_dock>
-4.379801

> <Mpro-x0397_dock>
-4.370627

> <Mpro-x0072_dock>
-4.126292

> <Mpro-x0967_dock>
-4.10652

> <Mpro-x0434_dock>
-3.993685

> <Mpro-x0387_dock>
-3.793959

> <Mpro-x1093_dock>
-3.752583

> <Mpro-x0104_dock>
-3.746199

> <Mpro-x0749_dock>
-2.480658

> <Mpro-x0305_dock>
-2.237749

> <Mpro-x0830_dock>
-2.141548

> <Mpro-x1249_dock>
-1.973264

> <Mpro-x1478_dock>
-1.881425

> <Mpro-x0354_dock>
-1.865781

> <Mpro-x1392_dock>
-1.704447

> <Mpro-x0395_dock>
-1.36869

> <Mpro-x0692_dock>
-1.346431

> <Mpro-x0736_dock>
-1.28758

> <Mpro-x1358_dock>
-1.165466

> <Mpro-x1334_dock>
-1.125105

> <Mpro-x0831_dock>
-0.97825

> <Mpro-x0820_dock>
-0.913929

> <Mpro-x1380_dock>
-0.867509

> <Mpro-x0734_dock>
-0.860722

> <Mpro-x0752_dock>
-0.76097

> <Mpro-x0691_dock>
-0.46419

> <Mpro-x0786_dock>
-0.433708

> <Mpro-x1386_dock>
-0.371604

> <Mpro-x1458_dock>
-0.295549

> <Mpro-x1385_dock>
-0.176522

> <Mpro-x1351_dock>
-0.141632

> <Mpro-x0774_dock>
-0.117998

> <Mpro-x1375_dock>
0.314735

> <Mpro-x0771_dock>
0.367593

> <Mpro-x1187_dock>
0.611014

> <Mpro-x1425_dock>
0.629799

> <Mpro-x0770_dock>
0.7036

> <Mpro-x1418_dock>
0.713689

> <Mpro-x1412_dock>
0.79451

> <Mpro-x0705_dock>
0.816792

> <Mpro-x1384_dock>
0.856633

> <Mpro-x0759_dock>
0.892124

> <Mpro-x1311_dock>
0.908629

> <Mpro-x0755_dock>
0.935914

> <Mpro-x0731_dock>
1.030408

> <Mpro-x1493_dock>
1.043556

> <Mpro-x0708_dock>
1.059531

> <Mpro-x0981_dock>
1.14037

> <Mpro-x1308_dock>
1.32879

> <Mpro-x0769_dock>
1.342358

> <Mpro-x0689_dock>
1.449016

> <Mpro-x0426_dock>
2.068152

> <Mpro-x1382_dock>
2.085793

> <Mpro-x1374_dock>
2.090067

> <Mpro-x1402_dock>
2.321787

> <Mpro-x0887_dock>
2.351154

> <Mpro-x0540_dock>
2.642525

> <Mpro-x0978_dock>
3.158231

> <site>
active-noncovalent

$$$$
GIA-UNK-eaa-1
  -OEChem-04022003013D

 44 46  0     0  0  0  0  0  0999 V2000
    9.7244    7.3841   25.1155 C   0  0  0  0  0  0  0  0  0  0  0  0
    9.3157    6.4153   24.1990 C   0  0  0  0  0  0  0  0  0  0  0  0
   11.0353    7.3842   25.5922 C   0  0  0  0  0  0  0  0  0  0  0  0
   10.2178    5.4465   23.7594 C   0  0  0  0  0  0  0  0  0  0  0  0
   11.9374    6.4155   25.1526 C   0  0  0  0  0  0  0  0  0  0  0  0
   11.5287    5.4465   24.2362 C   0  0  0  0  0  0  0  0  0  0  0  0
   12.4781    4.4268   23.7734 C   0  0  0  0  0  0  0  0  0  0  0  0
   11.3947   -0.9275   22.9827 C   0  0  0  0  0  0  0  0  0  0  0  0
    8.9451   -1.1857   22.9404 C   0  0  0  0  0  0  0  0  0  0  0  0
   10.4143   -3.0707   23.6997 C   0  0  0  0  0  0  0  0  0  0  0  0
   10.7746    2.5391   23.9750 C   0  0  0  0  0  0  0  0  0  0  0  0
   12.6183    2.4127   22.3443 C   0  0  0  0  0  0  0  0  0  0  0  0
   11.0943    1.1258   24.4560 C   0  0  0  0  0  0  0  0  0  0  0  0
   12.9413    0.9981   22.8163 C   0  0  0  0  0  0  0  0  0  0  0  0
    7.7609   -1.9892   23.4644 C   0  0  0  0  0  0  0  0  0  0  0  0
    9.1496   -3.7704   24.1829 C   0  0  0  0  0  0  0  0  0  0  0  0
   10.2151   -1.5601   23.6946 C   0  0  0  0  0  0  0  0  0  0  0  0
   11.9754    3.1749   23.4154 N   0  0  0  0  0  0  0  0  0  0  0  0
   11.7579    0.3538   23.3948 N   0  0  0  0  0  0  0  0  0  0  0  0
   13.6624    4.7582   23.7464 O   0  0  0  0  0  0  0  0  0  0  0  0
   11.9677   -1.5557   22.0888 O   0  0  0  0  0  0  0  0  0  0  0  0
    8.0262   -3.3901   23.3878 O   0  0  0  0  0  0  0  0  0  0  0  0
    9.0220    8.1384   25.4578 H   0  0  0  0  0  0  0  0  0  0  0  0
    8.2949    6.4152   23.8281 H   0  0  0  0  0  0  0  0  0  0  0  0
   11.3537    8.1388   26.3056 H   0  0  0  0  0  0  0  0  0  0  0  0
    9.8887    4.6961   23.0451 H   0  0  0  0  0  0  0  0  0  0  0  0
   12.9564    6.4251   25.5309 H   0  0  0  0  0  0  0  0  0  0  0  0
    9.0535   -1.3339   21.8705 H   0  0  0  0  0  0  0  0  0  0  0  0
    8.7496   -0.1311   23.1270 H   0  0  0  0  0  0  0  0  0  0  0  0
   11.2170   -3.2957   24.4000 H   0  0  0  0  0  0  0  0  0  0  0  0
   10.6955   -3.4417   22.7188 H   0  0  0  0  0  0  0  0  0  0  0  0
   10.0179    2.5127   23.1817 H   0  0  0  0  0  0  0  0  0  0  0  0
   10.3605    3.1213   24.8020 H   0  0  0  0  0  0  0  0  0  0  0  0
   13.5336    2.9128   22.0119 H   0  0  0  0  0  0  0  0  0  0  0  0
   11.9269    2.3884   21.4937 H   0  0  0  0  0  0  0  0  0  0  0  0
   11.7810    1.1581   25.3102 H   0  0  0  0  0  0  0  0  0  0  0  0
   10.1760    0.6439   24.7958 H   0  0  0  0  0  0  0  0  0  0  0  0
   13.3338    0.4102   21.9806 H   0  0  0  0  0  0  0  0  0  0  0  0
   13.7142    1.0193   23.5939 H   0  0  0  0  0  0  0  0  0  0  0  0
    7.5800   -1.7415   24.5149 H   0  0  0  0  0  0  0  0  0  0  0  0
    6.8435   -1.7609   22.9105 H   0  0  0  0  0  0  0  0  0  0  0  0
    9.2571   -4.8604   24.1656 H   0  0  0  0  0  0  0  0  0  0  0  0
    8.9382   -3.4799   25.2166 H   0  0  0  0  0  0  0  0  0  0  0  0
   10.2066   -1.1702   24.6818 H   0  0  0  0  0  0  0  0  0  0  0  0
  1  2  1  0  0  0  0
  1  3  2  0  0  0  0
  2  4  2  0  0  0  0
  3  5  1  0  0  0  0
  4  6  1  0  0  0  0
  5  6  2  0  0  0  0
  6  7  1  0  0  0  0
  7 18  1  0  0  0  0
  7 20  2  0  0  0  0
  8 17  1  0  0  0  0
  8 19  1  0  0  0  0
  8 21  2  0  0  0  0
  9 15  1  0  0  0  0
  9 17  1  0  0  0  0
 10 16  1  0  0  0  0
 10 17  1  0  0  0  0
 11 13  1  0  0  0  0
 11 18  1  0  0  0  0
 12 14  1  0  0  0  0
 12 18  1  0  0  0  0
 13 19  1  0  0  0  0
 14 19  1  0  0  0  0
 15 22  1  0  0  0  0
 16 22  1  0  0  0  0
  1 23  1  0  0  0  0
  2 24  1  0  0  0  0
  3 25  1  0  0  0  0
  4 26  1  0  0  0  0
  5 27  1  0  0  0  0
  9 28  1  0  0  0  0
  9 29  1  0  0  0  0
 10 30  1  0  0  0  0
 10 31  1  0  0  0  0
 11 32  1  0  0  0  0
 11 33  1  0  0  0  0
 12 34  1  0  0  0  0
 12 35  1  0  0  0  0
 13 36  1  0  0  0  0
 13 37  1  0  0  0  0
 14 38  1  0  0  0  0
 14 39  1  0  0  0  0
 15 40  1  0  0  0  0
 15 41  1  0  0  0  0
 16 42  1  0  0  0  0
 16 43  1  0  0  0  0
 17 44  1  0  0  0  0
M  END
> <Hybrid2>
-8.754841

> <fragments>
x0946

> <Mpro-x0946_dock>
-8.754841

> <Mpro-x0104_dock>
-8.278008

> <Mpro-x0195_dock>
-8.014228

> <Mpro-x0072_dock>
-7.583699

> <Mpro-x0161_dock>
-7.54176

> <Mpro-x0874_dock>
-7.496072

> <Mpro-x1093_dock>
-7.425448

> <Mpro-x1077_dock>
-7.168055

> <Mpro-x0749_dock>
-7.144486

> <Mpro-x0967_dock>
-6.484942

> <Mpro-x0387_dock>
-6.175768

> <Mpro-x0107_dock>
-6.167722

> <Mpro-x0678_dock>
-5.960209

> <Mpro-x1392_dock>
-5.810887

> <Mpro-x1334_dock>
-5.766341

> <Mpro-x0395_dock>
-4.952329

> <Mpro-x0434_dock>
-4.716087

> <Mpro-x0830_dock>
-4.475289

> <Mpro-x1385_dock>
-4.426643

> <Mpro-x0354_dock>
-4.05739

> <Mpro-x0397_dock>
-3.927352

> <Mpro-x1348_dock>
-3.808446

> <Mpro-x1412_dock>
-3.666827

> <Mpro-x0708_dock>
-3.55321

> <Mpro-x1478_dock>
-3.455657

> <Mpro-x1187_dock>
-3.194227

> <Mpro-x1493_dock>
-3.165978

> <Mpro-x0831_dock>
-3.026859

> <Mpro-x1249_dock>
-2.949066

> <Mpro-x0734_dock>
-2.746875

> <Mpro-x1380_dock>
-2.453166

> <Mpro-x1384_dock>
-2.292607

> <Mpro-x0691_dock>
-1.951556

> <Mpro-x1458_dock>
-1.714139

> <Mpro-x0705_dock>
-1.705028

> <Mpro-x1386_dock>
-1.616758

> <Mpro-x0692_dock>
-1.610707

> <Mpro-x0774_dock>
-1.592062

> <Mpro-x0820_dock>
-1.54494

> <Mpro-x0786_dock>
-1.4183

> <Mpro-x1311_dock>
-1.389911

> <Mpro-x0752_dock>
-1.373731

> <Mpro-x1375_dock>
-1.288252

> <Mpro-x1418_dock>
-1.24504

> <Mpro-x0736_dock>
-1.212427

> <Mpro-x1374_dock>
-1.165008

> <Mpro-x0769_dock>
-1.134915

> <Mpro-x1358_dock>
-1.001122

> <Mpro-x1425_dock>
-0.930805

> <Mpro-x0770_dock>
-0.865289

> <Mpro-x0305_dock>
-0.794385

> <Mpro-x1351_dock>
-0.770272

> <Mpro-x0689_dock>
-0.719313

> <Mpro-x0771_dock>
-0.705462

> <Mpro-x0759_dock>
-0.453652

> <Mpro-x0755_dock>
-0.057098

> <Mpro-x0540_dock>
-0.034703

> <Mpro-x0887_dock>
0.048047

> <Mpro-x1308_dock>
0.181304

> <Mpro-x0731_dock>
0.405121

> <Mpro-x1402_dock>
0.454935

> <Mpro-x1382_dock>
0.754072

> <Mpro-x0426_dock>
0.869504

> <Mpro-x0978_dock>
0.886362

> <Mpro-x0981_dock>
2.595766

> <site>
active-noncovalent

$$$$
DUN-NEW-f8c-1
  -OEChem-04022003013D

 43 45  0     1  0  0  0  0  0999 V2000
   14.3863   -1.4885   22.9391 C   0  0  0  0  0  0  0  0  0  0  0  0
   13.9986   -0.7291   24.0430 C   0  0  0  0  0  0  0  0  0  0  0  0
   13.5211   -1.6351   21.8548 C   0  0  0  0  0  0  0  0  0  0  0  0
   12.7457   -0.1163   24.0626 C   0  0  0  0  0  0  0  0  0  0  0  0
   12.2682   -1.0223   21.8744 C   0  0  0  0  0  0  0  0  0  0  0  0
   11.8805   -0.2629   22.9784 C   0  0  0  0  0  0  0  0  0  0  0  0
   10.9126    2.8408   23.3662 C   0  0  0  0  0  0  0  0  0  0  0  0
    8.0470    0.3417   19.6740 C   0  0  0  0  0  0  0  0  0  0  0  0
    6.2641    1.4370   21.0656 C   0  0  0  0  0  0  0  0  0  0  0  0
    9.4581   -0.3504   22.2100 C   0  0  0  0  0  0  0  0  0  0  0  0
    9.0437    2.0251   21.9369 C   0  0  0  0  0  0  0  0  0  0  0  0
    7.0056    0.2128   18.5681 C   0  0  0  0  0  0  0  0  0  0  0  0
    5.3224    1.2470   19.8819 C   0  0  0  0  0  0  0  0  0  0  0  0
   10.5223    0.4009   22.9991 C   0  0  2  0  0  0  0  0  0  0  0  0
   10.4918    1.8018   22.3737 C   0  0  2  0  0  0  0  0  0  0  0  0
    7.3602    0.3768   21.0355 C   0  0  0  0  0  0  0  0  0  0  0  0
   11.4568    3.9662   22.7938 N   0  0  0  0  0  0  0  0  0  0  0  0
    8.3655    0.6793   22.0853 N   0  3  1  0  0  0  0  0  0  0  0  0
   10.7603    2.6879   24.5756 O   0  0  0  0  0  0  0  0  0  0  0  0
    6.0463    1.2677   18.6506 O   0  0  0  0  0  0  0  0  0  0  0  0
   15.3624   -1.9645   22.9233 H   0  0  0  0  0  0  0  0  0  0  0  0
   14.6726   -0.6140   24.8869 H   0  0  0  0  0  0  0  0  0  0  0  0
   13.8231   -2.2253   20.9947 H   0  0  0  0  0  0  0  0  0  0  0  0
   12.4521    0.4734   24.9271 H   0  0  0  0  0  0  0  0  0  0  0  0
   11.6007   -1.1421   21.0252 H   0  0  0  0  0  0  0  0  0  0  0  0
    8.6888   -0.5385   19.6460 H   0  0  0  0  0  0  0  0  0  0  0  0
    8.6696    1.2182   19.5172 H   0  0  0  0  0  0  0  0  0  0  0  0
    6.6789    2.4412   21.0707 H   0  0  0  0  0  0  0  0  0  0  0  0
    5.6935    1.3023   21.9841 H   0  0  0  0  0  0  0  0  0  0  0  0
    9.7857   -0.6228   21.1996 H   0  0  0  0  0  0  0  0  0  0  0  0
    9.0570   -1.2239   22.7331 H   0  0  0  0  0  0  0  0  0  0  0  0
    8.4844    2.7408   22.5477 H   0  0  0  0  0  0  0  0  0  0  0  0
    8.9956    2.3187   20.8826 H   0  0  0  0  0  0  0  0  0  0  0  0
    7.4637    0.2125   17.5728 H   0  0  0  0  0  0  0  0  0  0  0  0
    6.4662   -0.7334   18.6780 H   0  0  0  0  0  0  0  0  0  0  0  0
    4.8270    0.2737   19.9574 H   0  0  0  0  0  0  0  0  0  0  0  0
    4.5371    2.0107   19.8570 H   0  0  0  0  0  0  0  0  0  0  0  0
   10.2080    0.4555   24.0742 H   0  0  0  0  0  0  0  0  0  0  0  0
   11.1583    1.8705   21.5062 H   0  0  0  0  0  0  0  0  0  0  0  0
    6.9514   -0.6092   21.2878 H   0  0  0  0  0  0  0  0  0  0  0  0
   11.5315    4.0109   21.7828 H   0  0  0  0  0  0  0  0  0  0  0  0
   11.7869    4.7540   23.3418 H   0  0  0  0  0  0  0  0  0  0  0  0
    7.8678    0.6949   22.9865 H   0  0  0  0  0  0  0  0  0  0  0  0
  1  2  1  0  0  0  0
  1  3  2  0  0  0  0
  2  4  2  0  0  0  0
  3  5  1  0  0  0  0
  4  6  1  0  0  0  0
  5  6  2  0  0  0  0
  6 14  1  0  0  0  0
  7 15  1  0  0  0  0
  7 17  1  0  0  0  0
  7 19  2  0  0  0  0
  8 12  1  0  0  0  0
  8 16  1  0  0  0  0
  9 13  1  0  0  0  0
  9 16  1  0  0  0  0
 10 14  1  0  0  0  0
 10 18  1  0  0  0  0
 11 15  1  0  0  0  0
 11 18  1  0  0  0  0
 12 20  1  0  0  0  0
 13 20  1  0  0  0  0
 14 15  1  0  0  0  0
 16 18  1  0  0  0  0
  1 21  1  0  0  0  0
  2 22  1  0  0  0  0
  3 23  1  0  0  0  0
  4 24  1  0  0  0  0
  5 25  1  0  0  0  0
  8 26  1  0  0  0  0
  8 27  1  0  0  0  0
  9 28  1  0  0  0  0
  9 29  1  0  0  0  0
 10 30  1  0  0  0  0
 10 31  1  0  0  0  0
 11 32  1  0  0  0  0
 11 33  1  0  0  0  0
 12 34  1  0  0  0  0
 12 35  1  0  0  0  0
 13 36  1  0  0  0  0
 13 37  1  0  0  0  0
 14 38  1  0  0  0  0
 15 39  1  0  0  0  0
 16 40  1  0  0  0  0
 17 41  1  0  0  0  0
 17 42  1  0  0  0  0
 18 43  1  0  0  0  0
M  CHG  1  18   1
M  END
> <Hybrid2>
-8.747223

> <fragments>
x0678

> <Mpro-x0678_dock>
-8.747223

> <Mpro-x0072_dock>
-8.592113

> <Mpro-x1392_dock>
-8.580956

> <Mpro-x0195_dock>
-8.269334

> <Mpro-x0759_dock>
-7.500694

> <Mpro-x1334_dock>
-7.354622

> <Mpro-x1093_dock>
-7.352687

> <Mpro-x0395_dock>
-7.245925

> <Mpro-x0831_dock>
-7.015668

> <Mpro-x0104_dock>
-6.842501

> <Mpro-x0305_dock>
-6.707129

> <Mpro-x0434_dock>
-6.67474

> <Mpro-x0749_dock>
-6.526317

> <Mpro-x0874_dock>
-6.519302

> <Mpro-x1385_dock>
-6.442024

> <Mpro-x0161_dock>
-6.44087

> <Mpro-x1418_dock>
-5.938451

> <Mpro-x0387_dock>
-5.878232

> <Mpro-x0946_dock>
-5.811841

> <Mpro-x1077_dock>
-5.672227

> <Mpro-x1412_dock>
-5.480571

> <Mpro-x0967_dock>
-5.320243

> <Mpro-x1386_dock>
-5.218772

> <Mpro-x0770_dock>
-5.204762

> <Mpro-x1374_dock>
-4.97793

> <Mpro-x1311_dock>
-4.877392

> <Mpro-x0692_dock>
-4.836341

> <Mpro-x0107_dock>
-4.764286

> <Mpro-x0774_dock>
-4.750834

> <Mpro-x0354_dock>
-4.73353

> <Mpro-x1375_dock>
-4.686597

> <Mpro-x0830_dock>
-4.465157

> <Mpro-x1187_dock>
-4.310909

> <Mpro-x1493_dock>
-4.118721

> <Mpro-x1458_dock>
-4.059877

> <Mpro-x1249_dock>
-3.930607

> <Mpro-x0708_dock>
-3.914896

> <Mpro-x0397_dock>
-3.777896

> <Mpro-x0734_dock>
-3.602789

> <Mpro-x1348_dock>
-3.598034

> <Mpro-x1380_dock>
-3.541854

> <Mpro-x0705_dock>
-3.367846

> <Mpro-x0820_dock>
-3.320133

> <Mpro-x1382_dock>
-2.994311

> <Mpro-x0736_dock>
-2.803622

> <Mpro-x0771_dock>
-2.642785

> <Mpro-x0981_dock>
-2.578899

> <Mpro-x0786_dock>
-2.56817

> <Mpro-x1351_dock>
-2.409658

> <Mpro-x1478_dock>
-2.375253

> <Mpro-x0691_dock>
-2.358299

> <Mpro-x1384_dock>
-2.290908

> <Mpro-x1425_dock>
-2.270194

> <Mpro-x1358_dock>
-2.24327

> <Mpro-x0731_dock>
-2.137649

> <Mpro-x1308_dock>
-1.962852

> <Mpro-x0689_dock>
-1.635965

> <Mpro-x1402_dock>
-1.492841

> <Mpro-x0769_dock>
-1.417998

> <Mpro-x0755_dock>
-1.264959

> <Mpro-x0540_dock>
-0.949837

> <Mpro-x0426_dock>
-0.436912

> <Mpro-x0978_dock>
-0.377849

> <Mpro-x0887_dock>
-0.321997

> <Mpro-x0752_dock>
-0.276985

> <site>
active-noncovalent

$$$$
WAR-XCH-b72-39
  -OEChem-04022003013D

 42 43  0     0  0  0  0  0  0999 V2000
   12.9343    2.1353   22.8541 C   0  0  0  0  0  0  0  0  0  0  0  0
   11.4266    1.3839   24.5860 C   0  0  0  0  0  0  0  0  0  0  0  0
   12.2793    3.3663   22.8180 C   0  0  0  0  0  0  0  0  0  0  0  0
   10.7717    2.6149   24.5500 C   0  0  0  0  0  0  0  0  0  0  0  0
   12.5079    1.1440   23.7381 C   0  0  0  0  0  0  0  0  0  0  0  0
   11.1981    3.6061   23.6660 C   0  0  0  0  0  0  0  0  0  0  0  0
   12.2156   -2.0838   22.7301 C   0  0  0  0  0  0  0  0  0  0  0  0
   12.4046   -1.8786   25.2466 C   0  0  0  0  0  0  0  0  0  0  0  0
   13.2434   -0.9588   22.6024 C   0  0  0  0  0  0  0  0  0  0  0  0
   13.4265   -0.7534   25.0521 C   0  0  0  0  0  0  0  0  0  0  0  0
   12.3998   -2.8490   24.0525 C   0  0  0  0  0  0  0  0  0  0  0  0
    7.2033   -4.2867   24.4667 C   0  0  0  0  0  0  0  0  0  0  0  0
   11.3157   -3.9109   24.2204 C   0  0  0  0  0  0  0  0  0  0  0  0
    8.6795   -4.6336   24.4298 C   0  0  0  0  0  0  0  0  0  0  0  0
   13.1607   -0.0837   23.7744 N   0  0  0  0  0  0  0  0  0  0  0  0
    9.1765    4.8413   22.4443 N   0  0  0  0  0  0  0  0  0  0  0  0
    9.7302    5.3599   24.9081 O   0  0  0  0  0  0  0  0  0  0  0  0
   11.2986    6.1466   23.1000 O   0  0  0  0  0  0  0  0  0  0  0  0
    9.6778   -3.1406   24.2201 S   0  0  0  0  0  0  0  0  0  0  0  0
   10.3772    5.1464   23.6211 S   0  0  0  0  0  0  0  0  0  0  0  0
   13.7756    1.9590   22.1887 H   0  0  0  0  0  0  0  0  0  0  0  0
   11.0868    0.6187   25.2794 H   0  0  0  0  0  0  0  0  0  0  0  0
   12.6200    4.1311   22.1253 H   0  0  0  0  0  0  0  0  0  0  0  0
    9.9303    2.7906   25.2150 H   0  0  0  0  0  0  0  0  0  0  0  0
   11.2072   -1.6633   22.6775 H   0  0  0  0  0  0  0  0  0  0  0  0
   12.3251   -2.7700   21.8869 H   0  0  0  0  0  0  0  0  0  0  0  0
   12.6418   -2.4234   26.1671 H   0  0  0  0  0  0  0  0  0  0  0  0
   11.4071   -1.4432   25.3825 H   0  0  0  0  0  0  0  0  0  0  0  0
   14.2488   -1.3814   22.5208 H   0  0  0  0  0  0  0  0  0  0  0  0
   13.0355   -0.3956   21.6889 H   0  0  0  0  0  0  0  0  0  0  0  0
   13.3331   -0.0499   25.8799 H   0  0  0  0  0  0  0  0  0  0  0  0
   14.4368   -1.1645   25.0577 H   0  0  0  0  0  0  0  0  0  0  0  0
   13.3741   -3.3684   24.0215 H   0  0  0  0  0  0  0  0  0  0  0  0
    6.9714   -3.6031   25.2905 H   0  0  0  0  0  0  0  0  0  0  0  0
    6.8744   -3.8263   23.5289 H   0  0  0  0  0  0  0  0  0  0  0  0
    6.6106   -5.1956   24.6148 H   0  0  0  0  0  0  0  0  0  0  0  0
   11.4620   -4.4424   25.1617 H   0  0  0  0  0  0  0  0  0  0  0  0
   11.3737   -4.6301   23.4023 H   0  0  0  0  0  0  0  0  0  0  0  0
    8.8879   -5.3164   23.6005 H   0  0  0  0  0  0  0  0  0  0  0  0
    8.9760   -5.1279   25.3599 H   0  0  0  0  0  0  0  0  0  0  0  0
    8.2029    4.7547   22.7605 H   0  0  0  0  0  0  0  0  0  0  0  0
    9.2764    5.2908   21.5260 H   0  0  0  0  0  0  0  0  0  0  0  0
  1  3  2  0  0  0  0
  1  5  1  0  0  0  0
  2  4  1  0  0  0  0
  2  5  2  0  0  0  0
  3  6  1  0  0  0  0
  4  6  2  0  0  0  0
  5 15  1  0  0  0  0
  6 20  1  0  0  0  0
  7  9  1  0  0  0  0
  7 11  1  0  0  0  0
  8 10  1  0  0  0  0
  8 11  1  0  0  0  0
  9 15  1  0  0  0  0
 10 15  1  0  0  0  0
 11 13  1  0  0  0  0
 12 14  1  0  0  0  0
 13 19  1  0  0  0  0
 14 19  1  0  0  0  0
 16 20  1  0  0  0  0
 17 20  2  0  0  0  0
 18 20  2  0  0  0  0
  1 21  1  0  0  0  0
  2 22  1  0  0  0  0
  3 23  1  0  0  0  0
  4 24  1  0  0  0  0
  7 25  1  0  0  0  0
  7 26  1  0  0  0  0
  8 27  1  0  0  0  0
  8 28  1  0  0  0  0
  9 29  1  0  0  0  0
  9 30  1  0  0  0  0
 10 31  1  0  0  0  0
 10 32  1  0  0  0  0
 11 33  1  0  0  0  0
 12 34  1  0  0  0  0
 12 35  1  0  0  0  0
 12 36  1  0  0  0  0
 13 37  1  0  0  0  0
 13 38  1  0  0  0  0
 14 39  1  0  0  0  0
 14 40  1  0  0  0  0
 16 41  1  0  0  0  0
 16 42  1  0  0  0  0
M  END
> <Hybrid2>
-8.731390

> <fragments>
x0161

> <Mpro-x0161_dock>
-8.73139

> <Mpro-x0830_dock>
-7.286803

> <Mpro-x0946_dock>
-7.252028

> <Mpro-x0107_dock>
-7.228139

> <Mpro-x0874_dock>
-7.145148

> <Mpro-x0749_dock>
-7.035489

> <Mpro-x0708_dock>
-6.505639

> <Mpro-x1077_dock>
-6.381994

> <Mpro-x0434_dock>
-6.323319

> <Mpro-x0195_dock>
-6.312172

> <Mpro-x0397_dock>
-5.962438

> <Mpro-x0072_dock>
-5.953827

> <Mpro-x0967_dock>
-5.927611

> <Mpro-x0692_dock>
-5.697398

> <Mpro-x0104_dock>
-5.645733

> <Mpro-x0831_dock>
-5.585663

> <Mpro-x1334_dock>
-5.463656

> <Mpro-x0395_dock>
-5.395784

> <Mpro-x0678_dock>
-5.126807

> <Mpro-x1311_dock>
-4.72664

> <Mpro-x1385_dock>
-4.548974

> <Mpro-x1093_dock>
-4.540009

> <Mpro-x0387_dock>
-4.406759

> <Mpro-x1412_dock>
-4.218687

> <Mpro-x1392_dock>
-4.157851

> <Mpro-x1187_dock>
-4.028475

> <Mpro-x1249_dock>
-4.022518

> <Mpro-x0305_dock>
-3.892568

> <Mpro-x0736_dock>
-3.165574

> <Mpro-x0771_dock>
-2.951884

> <Mpro-x1386_dock>
-2.714018

> <Mpro-x1375_dock>
-2.62355

> <Mpro-x1478_dock>
-2.251434

> <Mpro-x0354_dock>
-2.203352

> <Mpro-x0426_dock>
-2.10697

> <Mpro-x1374_dock>
-2.045023

> <Mpro-x1348_dock>
-2.020734

> <Mpro-x1418_dock>
-1.965735

> <Mpro-x0540_dock>
-1.93764

> <Mpro-x1380_dock>
-1.855013

> <Mpro-x1384_dock>
-1.844403

> <Mpro-x0820_dock>
-1.774452

> <Mpro-x0770_dock>
-1.605595

> <Mpro-x1358_dock>
-1.598218

> <Mpro-x0759_dock>
-1.587523

> <Mpro-x0774_dock>
-1.573538

> <Mpro-x1458_dock>
-1.38608

> <Mpro-x0734_dock>
-1.226057

> <Mpro-x0691_dock>
-1.185997

> <Mpro-x0752_dock>
-1.121861

> <Mpro-x1308_dock>
-1.079672

> <Mpro-x1382_dock>
-1.061831

> <Mpro-x0769_dock>
-1.040533

> <Mpro-x1493_dock>
-1.039767

> <Mpro-x1351_dock>
-0.982721

> <Mpro-x0755_dock>
-0.723151

> <Mpro-x0689_dock>
-0.679241

> <Mpro-x0887_dock>
-0.46547

> <Mpro-x1425_dock>
0.053186

> <Mpro-x0705_dock>
0.080451

> <Mpro-x0731_dock>
0.096515

> <Mpro-x1402_dock>
0.519082

> <Mpro-x0978_dock>
0.633647

> <Mpro-x0981_dock>
0.715172

> <Mpro-x0786_dock>
1.043037

> <site>
active-noncovalent

$$$$
BAR-COM-4e0-39
  -OEChem-04022003013D

 36 38  0     1  0  0  0  0  0999 V2000
   13.2144   -2.1014   22.3498 C   0  0  0  0  0  0  0  0  0  0  0  0
   11.9316   -2.2845   21.8338 C   0  0  0  0  0  0  0  0  0  0  0  0
   13.5480   -0.9028   22.9805 C   0  0  0  0  0  0  0  0  0  0  0  0
   11.3159   -0.0703   22.5790 C   0  0  0  0  0  0  0  0  0  0  0  0
    5.9858    0.6511   19.7123 C   0  0  0  0  0  0  0  0  0  0  0  0
    7.3748   -0.5992   18.3109 C   0  0  0  0  0  0  0  0  0  0  0  0
    6.0588    1.0559   17.4767 C   0  0  0  0  0  0  0  0  0  0  0  0
    6.9147   -0.3621   19.5901 C   0  0  0  0  0  0  0  0  0  0  0  0
   10.9823   -1.2690   21.9484 C   0  0  0  0  0  0  0  0  0  0  0  0
   12.5988    0.1127   23.0951 C   0  0  0  0  0  0  0  0  0  0  0  0
   12.5433    4.4397   23.6085 C   0  0  0  0  0  0  0  0  0  0  0  0
    8.6183   -0.5553   21.4511 C   0  0  0  0  0  0  0  0  0  0  0  0
   11.5627    3.3370   23.1779 C   0  0  0  0  0  0  0  0  0  0  0  0
   12.8210    2.4750   22.9339 C   0  0  1  0  0  0  0  0  0  0  0  0
    7.3960   -1.1569   20.7756 C   0  0  0  0  0  0  0  0  0  0  0  0
    5.5340    1.3831   18.6729 N   0  0  0  0  0  0  0  0  0  0  0  0
    6.9668    0.0931   17.2271 N   0  0  0  0  0  0  0  0  0  0  0  0
   13.6026    3.6174   23.3917 N   0  0  0  0  0  0  0  0  0  0  0  0
    9.6990   -1.4526   21.4323 N   0  0  0  0  0  0  0  0  0  0  0  0
   12.4620    5.5834   23.9929 O   0  0  0  0  0  0  0  0  0  0  0  0
    8.6111    0.5715   21.9364 O   0  0  0  0  0  0  0  0  0  0  0  0
   12.9243    1.2825   23.7103 O   0  0  0  0  0  0  0  0  0  0  0  0
   13.9530   -2.8927   22.2613 H   0  0  0  0  0  0  0  0  0  0  0  0
   11.6829   -3.2225   21.3439 H   0  0  0  0  0  0  0  0  0  0  0  0
   14.5488   -0.7670   23.3808 H   0  0  0  0  0  0  0  0  0  0  0  0
   10.5789    0.7244   22.6712 H   0  0  0  0  0  0  0  0  0  0  0  0
    5.5626    0.9159   20.6762 H   0  0  0  0  0  0  0  0  0  0  0  0
    8.1066   -1.3751   18.1089 H   0  0  0  0  0  0  0  0  0  0  0  0
    5.7124    1.6276   16.6245 H   0  0  0  0  0  0  0  0  0  0  0  0
   10.9024    2.9987   23.9807 H   0  0  0  0  0  0  0  0  0  0  0  0
   10.9811    3.5788   22.2847 H   0  0  0  0  0  0  0  0  0  0  0  0
   13.0085    2.2643   21.8749 H   0  0  0  0  0  0  0  0  0  0  0  0
    6.5899   -1.2389   21.5159 H   0  0  0  0  0  0  0  0  0  0  0  0
    7.6356   -2.1799   20.4588 H   0  0  0  0  0  0  0  0  0  0  0  0
   14.5935    3.7844   23.4997 H   0  0  0  0  0  0  0  0  0  0  0  0
    9.5222   -2.3580   20.9818 H   0  0  0  0  0  0  0  0  0  0  0  0
  1  2  2  0  0  0  0
  1  3  1  0  0  0  0
  2  9  1  0  0  0  0
  3 10  2  0  0  0  0
  4  9  2  0  0  0  0
  4 10  1  0  0  0  0
  5  8  1  0  0  0  0
  5 16  2  0  0  0  0
  6  8  2  0  0  0  0
  6 17  1  0  0  0  0
  7 16  1  0  0  0  0
  7 17  2  0  0  0  0
  8 15  1  0  0  0  0
  9 19  1  0  0  0  0
 10 22  1  0  0  0  0
 11 13  1  0  0  0  0
 11 18  1  0  0  0  0
 11 20  2  0  0  0  0
 12 15  1  0  0  0  0
 12 19  1  0  0  0  0
 12 21  2  0  0  0  0
 13 14  1  0  0  0  0
 14 18  1  0  0  0  0
 14 22  1  0  0  0  0
  1 23  1  0  0  0  0
  2 24  1  0  0  0  0
  3 25  1  0  0  0  0
  4 26  1  0  0  0  0
  5 27  1  0  0  0  0
  6 28  1  0  0  0  0
  7 29  1  0  0  0  0
 13 30  1  0  0  0  0
 13 31  1  0  0  0  0
 14 32  1  0  0  0  0
 15 33  1  0  0  0  0
 15 34  1  0  0  0  0
 18 35  1  0  0  0  0
 19 36  1  0  0  0  0
M  END
> <Hybrid2>
-8.729742

> <fragments>
x0678

> <Mpro-x0678_dock>
-8.729742

> <Mpro-x0195_dock>
-7.829713

> <Mpro-x0107_dock>
-7.578446

> <Mpro-x0397_dock>
-7.202713

> <Mpro-x0830_dock>
-7.186386

> <Mpro-x0104_dock>
-6.955577

> <Mpro-x0434_dock>
-6.80773

> <Mpro-x0749_dock>
-6.660675

> <Mpro-x0072_dock>
-6.648478

> <Mpro-x0946_dock>
-6.537822

> <Mpro-x0831_dock>
-6.364799

> <Mpro-x0967_dock>
-6.034039

> <Mpro-x0161_dock>
-6.006123

> <Mpro-x1077_dock>
-5.852763

> <Mpro-x1093_dock>
-5.400726

> <Mpro-x1385_dock>
-5.382889

> <Mpro-x1334_dock>
-4.869874

> <Mpro-x0874_dock>
-4.692492

> <Mpro-x0387_dock>
-4.67772

> <Mpro-x1412_dock>
-4.635088

> <Mpro-x1392_dock>
-4.627044

> <Mpro-x1187_dock>
-4.326141

> <Mpro-x1249_dock>
-4.153399

> <Mpro-x1418_dock>
-4.122209

> <Mpro-x0395_dock>
-3.922837

> <Mpro-x1493_dock>
-3.85946

> <Mpro-x1458_dock>
-3.708321

> <Mpro-x0759_dock>
-3.679077

> <Mpro-x0708_dock>
-3.155068

> <Mpro-x0426_dock>
-2.981177

> <Mpro-x0305_dock>
-2.967277

> <Mpro-x0692_dock>
-2.938348

> <Mpro-x0770_dock>
-2.872942

> <Mpro-x1380_dock>
-2.776191

> <Mpro-x1478_dock>
-2.737524

> <Mpro-x1311_dock>
-2.380957

> <Mpro-x0691_dock>
-2.342363

> <Mpro-x0354_dock>
-2.240797

> <Mpro-x1348_dock>
-2.163334

> <Mpro-x1358_dock>
-2.130387

> <Mpro-x1384_dock>
-2.064669

> <Mpro-x1308_dock>
-2.010226

> <Mpro-x1386_dock>
-1.88848

> <Mpro-x0769_dock>
-1.808002

> <Mpro-x1425_dock>
-1.74751

> <Mpro-x0705_dock>
-1.514179

> <Mpro-x0736_dock>
-1.45898

> <Mpro-x0731_dock>
-1.224323

> <Mpro-x0887_dock>
-1.022991

> <Mpro-x1351_dock>
-0.99876

> <Mpro-x0978_dock>
-0.969182

> <Mpro-x1375_dock>
-0.950324

> <Mpro-x0774_dock>
-0.826764

> <Mpro-x0734_dock>
-0.68216

> <Mpro-x0540_dock>
-0.435157

> <Mpro-x1402_dock>
-0.279295

> <Mpro-x1374_dock>
-0.270662

> <Mpro-x0771_dock>
-0.24489

> <Mpro-x0786_dock>
-0.205857

> <Mpro-x0820_dock>
-0.089851

> <Mpro-x0755_dock>
-0.014013

> <Mpro-x0981_dock>
0.572934

> <Mpro-x0689_dock>
0.795091

> <Mpro-x0752_dock>
1.012929

> <Mpro-x1382_dock>
1.320221

> <site>
active-noncovalent

$$$$
CHR-SOS-709-4
  -OEChem-04022003013D

 27 28  0     0  0  0  0  0  0999 V2000
   13.9871   -0.9539   22.1430 C   0  0  0  0  0  0  0  0  0  0  0  0
   13.2656   -2.0473   22.6221 C   0  0  0  0  0  0  0  0  0  0  0  0
   13.5329    0.3423   22.3864 C   0  0  0  0  0  0  0  0  0  0  0  0
    9.9016    5.7095   23.4150 C   0  0  0  0  0  0  0  0  0  0  0  0
   12.0897   -1.8444   23.3445 C   0  0  0  0  0  0  0  0  0  0  0  0
   10.5884    6.6206   24.2174 C   0  0  0  0  0  0  0  0  0  0  0  0
   12.5395    5.1967   24.1641 C   0  0  0  0  0  0  0  0  0  0  0  0
   11.8527    4.2856   23.3617 C   0  0  0  0  0  0  0  0  0  0  0  0
   12.3570    0.5451   23.1088 C   0  0  0  0  0  0  0  0  0  0  0  0
   10.5338    4.5420   22.9872 C   0  0  0  0  0  0  0  0  0  0  0  0
   11.9074    6.3642   24.5919 C   0  0  0  0  0  0  0  0  0  0  0  0
   11.6354   -0.5482   23.5878 C   0  0  0  0  0  0  0  0  0  0  0  0
   12.5300    3.0716   22.9278 C   0  0  0  0  0  0  0  0  0  0  0  0
   11.9236    1.8753   23.3383 N   0  0  0  0  0  0  0  0  0  0  0  0
   13.5812    3.1124   22.2755 O   0  0  0  0  0  0  0  0  0  0  0  0
    9.8452    3.6631   22.2055 O   0  0  0  0  0  0  0  0  0  0  0  0
   12.7554    7.4894   25.5802 Cl  0  0  0  0  0  0  0  0  0  0  0  0
   10.1724   -0.3431   24.4839 Cl  0  0  0  0  0  0  0  0  0  0  0  0
   14.9024   -1.1123   21.5803 H   0  0  0  0  0  0  0  0  0  0  0  0
   13.6198   -3.0563   22.4327 H   0  0  0  0  0  0  0  0  0  0  0  0
   14.1049    1.1858   22.0077 H   0  0  0  0  0  0  0  0  0  0  0  0
    8.8740    5.9144   23.1269 H   0  0  0  0  0  0  0  0  0  0  0  0
   11.5392   -2.7073   23.7110 H   0  0  0  0  0  0  0  0  0  0  0  0
   10.0836    7.5267   24.5421 H   0  0  0  0  0  0  0  0  0  0  0  0
   13.5680    4.9943   24.4558 H   0  0  0  0  0  0  0  0  0  0  0  0
   11.0618    1.9750   23.8692 H   0  0  0  0  0  0  0  0  0  0  0  0
   10.4047    2.9022   21.9850 H   0  0  0  0  0  0  0  0  0  0  0  0
  1  2  1  0  0  0  0
  1  3  2  0  0  0  0
  2  5  2  0  0  0  0
  3  9  1  0  0  0  0
  4  6  2  0  0  0  0
  4 10  1  0  0  0  0
  5 12  1  0  0  0  0
  6 11  1  0  0  0  0
  7  8  1  0  0  0  0
  7 11  2  0  0  0  0
  8 10  2  0  0  0  0
  8 13  1  0  0  0  0
  9 12  2  0  0  0  0
  9 14  1  0  0  0  0
 10 16  1  0  0  0  0
 11 17  1  0  0  0  0
 12 18  1  0  0  0  0
 13 14  1  0  0  0  0
 13 15  2  0  0  0  0
  1 19  1  0  0  0  0
  2 20  1  0  0  0  0
  3 21  1  0  0  0  0
  4 22  1  0  0  0  0
  5 23  1  0  0  0  0
  6 24  1  0  0  0  0
  7 25  1  0  0  0  0
 14 26  1  0  0  0  0
 16 27  1  0  0  0  0
M  END
> <Hybrid2>
-8.723997

> <fragments>
x0195

> <Mpro-x0195_dock>
-8.723997

> <Mpro-x0749_dock>
-8.264607

> <Mpro-x0161_dock>
-8.102567

> <Mpro-x0104_dock>
-8.034346

> <Mpro-x0678_dock>
-7.797821

> <Mpro-x0434_dock>
-7.331717

> <Mpro-x0946_dock>
-7.260425

> <Mpro-x0107_dock>
-7.02389

> <Mpro-x1093_dock>
-6.983139

> <Mpro-x1311_dock>
-6.672508

> <Mpro-x0831_dock>
-6.459702

> <Mpro-x0397_dock>
-6.351727

> <Mpro-x0072_dock>
-6.300346

> <Mpro-x0830_dock>
-6.123141

> <Mpro-x0708_dock>
-6.045534

> <Mpro-x0874_dock>
-6.037054

> <Mpro-x1077_dock>
-6.001101

> <Mpro-x1348_dock>
-6.000778

> <Mpro-x1392_dock>
-5.985961

> <Mpro-x0395_dock>
-5.759704

> <Mpro-x0759_dock>
-5.606093

> <Mpro-x1386_dock>
-5.37

> <Mpro-x1375_dock>
-5.243733

> <Mpro-x0692_dock>
-5.167902

> <Mpro-x1385_dock>
-5.167309

> <Mpro-x0967_dock>
-5.160881

> <Mpro-x1418_dock>
-5.049122

> <Mpro-x0770_dock>
-5.012587

> <Mpro-x1412_dock>
-4.902023

> <Mpro-x0354_dock>
-4.699734

> <Mpro-x1334_dock>
-4.652628

> <Mpro-x1187_dock>
-4.343378

> <Mpro-x0387_dock>
-4.28939

> <Mpro-x0305_dock>
-4.096801

> <Mpro-x1374_dock>
-4.069333

> <Mpro-x1249_dock>
-4.056789

> <Mpro-x0774_dock>
-3.886025

> <Mpro-x0736_dock>
-3.570613

> <Mpro-x0426_dock>
-3.533859

> <Mpro-x1382_dock>
-3.435136

> <Mpro-x0981_dock>
-3.244645

> <Mpro-x0771_dock>
-3.188489

> <Mpro-x1380_dock>
-3.166875

> <Mpro-x0978_dock>
-3.120873

> <Mpro-x0786_dock>
-2.816383

> <Mpro-x1493_dock>
-2.798569

> <Mpro-x1308_dock>
-2.748933

> <Mpro-x1384_dock>
-2.576298

> <Mpro-x1478_dock>
-2.565162

> <Mpro-x1351_dock>
-2.36844

> <Mpro-x0820_dock>
-2.298745

> <Mpro-x1425_dock>
-2.212337

> <Mpro-x0691_dock>
-2.13445

> <Mpro-x0731_dock>
-1.967323

> <Mpro-x1458_dock>
-1.948619

> <Mpro-x0769_dock>
-1.943525

> <Mpro-x0755_dock>
-1.824881

> <Mpro-x1358_dock>
-1.721442

> <Mpro-x0734_dock>
-1.688676

> <Mpro-x1402_dock>
-1.628966

> <Mpro-x0705_dock>
-1.56996

> <Mpro-x0689_dock>
-1.505237

> <Mpro-x0540_dock>
-1.351279

> <Mpro-x0752_dock>
-0.949811

> <Mpro-x0887_dock>
-0.480806

> <site>
active-noncovalent

$$$$
TOM-OIS-cbf-2
  -OEChem-04022003013D

 42 43  0     0  0  0  0  0  0999 V2000
    8.1686   -3.7510   22.6068 C   0  0  0  0  0  0  0  0  0  0  0  0
    9.0217   -3.2573   21.6157 C   0  0  0  0  0  0  0  0  0  0  0  0
    9.3842   -2.5504   24.3325 C   0  0  0  0  0  0  0  0  0  0  0  0
   11.8401   -1.0330   22.0904 C   0  0  0  0  0  0  0  0  0  0  0  0
   10.2570   -2.0403   23.3508 C   0  0  0  0  0  0  0  0  0  0  0  0
    8.3452   -3.4043   23.9449 C   0  0  0  0  0  0  0  0  0  0  0  0
   11.3859   -1.1745   23.3814 C   0  0  0  0  0  0  0  0  0  0  0  0
   10.0560   -2.4048   22.0178 C   0  0  0  0  0  0  0  0  0  0  0  0
    5.9663   -5.2303   27.4004 C   0  0  0  0  0  0  0  0  0  0  0  0
    9.6715    1.0325   25.4180 C   0  0  0  0  0  0  0  0  0  0  0  0
   10.5939    3.0327   24.2565 C   0  0  0  0  0  0  0  0  0  0  0  0
   11.9730   -0.5372   24.5774 C   0  0  0  0  0  0  0  0  0  0  0  0
    7.4165   -3.9491   24.9788 C   0  0  0  0  0  0  0  0  0  0  0  0
   12.0008    0.9974   24.5377 C   0  0  0  0  0  0  0  0  0  0  0  0
   11.0314   -1.7786   21.2751 N   0  0  0  0  0  0  0  0  0  0  0  0
    7.1557   -5.8799   26.8210 N   0  0  0  0  0  0  0  0  0  0  0  0
   10.6264    1.5275   24.3596 N   0  3  0  0  0  0  0  0  0  0  0  0
    9.2818   -5.7466   25.3525 O   0  0  0  0  0  0  0  0  0  0  0  0
    8.8841   -4.0082   27.1347 O   0  0  0  0  0  0  0  0  0  0  0  0
    8.3697   -4.9062   26.1122 S   0  0  0  0  0  0  0  0  0  0  0  0
    7.3568   -4.4149   22.3179 H   0  0  0  0  0  0  0  0  0  0  0  0
    8.8837   -3.5280   20.5743 H   0  0  0  0  0  0  0  0  0  0  0  0
    9.5164   -2.2838   25.3778 H   0  0  0  0  0  0  0  0  0  0  0  0
   12.6655   -0.4699   21.6774 H   0  0  0  0  0  0  0  0  0  0  0  0
    6.2587   -4.2782   27.8673 H   0  0  0  0  0  0  0  0  0  0  0  0
    5.2300   -5.0381   26.6060 H   0  0  0  0  0  0  0  0  0  0  0  0
    5.5220   -5.8899   28.1603 H   0  0  0  0  0  0  0  0  0  0  0  0
   10.0280    1.3935   26.3845 H   0  0  0  0  0  0  0  0  0  0  0  0
    8.6823    1.4337   25.1896 H   0  0  0  0  0  0  0  0  0  0  0  0
    9.6702   -0.0586   25.3829 H   0  0  0  0  0  0  0  0  0  0  0  0
   10.9717    3.4399   25.1961 H   0  0  0  0  0  0  0  0  0  0  0  0
   11.2299    3.3240   23.4184 H   0  0  0  0  0  0  0  0  0  0  0  0
    9.5584    3.3336   24.0866 H   0  0  0  0  0  0  0  0  0  0  0  0
   11.3999   -0.8314   25.4766 H   0  0  0  0  0  0  0  0  0  0  0  0
   12.9986   -0.9048   24.7708 H   0  0  0  0  0  0  0  0  0  0  0  0
    6.6508   -4.6019   24.5457 H   0  0  0  0  0  0  0  0  0  0  0  0
    6.9148   -3.1564   25.5446 H   0  0  0  0  0  0  0  0  0  0  0  0
   12.5854    1.3679   23.6904 H   0  0  0  0  0  0  0  0  0  0  0  0
   12.3912    1.4297   25.4640 H   0  0  0  0  0  0  0  0  0  0  0  0
   11.1351   -1.8586   20.2730 H   0  0  0  0  0  0  0  0  0  0  0  0
    6.9588   -6.7801   26.3646 H   0  0  0  0  0  0  0  0  0  0  0  0
   10.2643    1.1712   23.4585 H   0  0  0  0  0  0  0  0  0  0  0  0
  1  2  2  0  0  0  0
  1  6  1  0  0  0  0
  2  8  1  0  0  0  0
  3  5  1  0  0  0  0
  3  6  2  0  0  0  0
  4  7  2  0  0  0  0
  4 15  1  0  0  0  0
  5  7  1  0  0  0  0
  5  8  2  0  0  0  0
  6 13  1  0  0  0  0
  7 12  1  0  0  0  0
  8 15  1  0  0  0  0
  9 16  1  0  0  0  0
 10 17  1  0  0  0  0
 11 17  1  0  0  0  0
 12 14  1  0  0  0  0
 13 20  1  0  0  0  0
 14 17  1  0  0  0  0
 16 20  1  0  0  0  0
 18 20  2  0  0  0  0
 19 20  2  0  0  0  0
  1 21  1  0  0  0  0
  2 22  1  0  0  0  0
  3 23  1  0  0  0  0
  4 24  1  0  0  0  0
  9 25  1  0  0  0  0
  9 26  1  0  0  0  0
  9 27  1  0  0  0  0
 10 28  1  0  0  0  0
 10 29  1  0  0  0  0
 10 30  1  0  0  0  0
 11 31  1  0  0  0  0
 11 32  1  0  0  0  0
 11 33  1  0  0  0  0
 12 34  1  0  0  0  0
 12 35  1  0  0  0  0
 13 36  1  0  0  0  0
 13 37  1  0  0  0  0
 14 38  1  0  0  0  0
 14 39  1  0  0  0  0
 15 40  1  0  0  0  0
 16 41  1  0  0  0  0
 17 42  1  0  0  0  0
M  CHG  1  17   1
M  END
> <Hybrid2>
-8.722964

> <fragments>
x0072

> <Mpro-x0072_dock>
-8.722964

> <Mpro-x1077_dock>
-7.663229

> <Mpro-x0104_dock>
-7.623211

> <Mpro-x0946_dock>
-7.593744

> <Mpro-x1093_dock>
-7.416072

> <Mpro-x0195_dock>
-6.836335

> <Mpro-x0749_dock>
-6.64184

> <Mpro-x0161_dock>
-6.297196

> <Mpro-x0874_dock>
-6.068425

> <Mpro-x0434_dock>
-6.058184

> <Mpro-x1392_dock>
-6.041983

> <Mpro-x1311_dock>
-5.845826

> <Mpro-x1418_dock>
-5.812096

> <Mpro-x0395_dock>
-5.625225

> <Mpro-x0831_dock>
-5.440814

> <Mpro-x0678_dock>
-5.357857

> <Mpro-x0830_dock>
-5.205653

> <Mpro-x0387_dock>
-5.172907

> <Mpro-x0305_dock>
-4.895612

> <Mpro-x1374_dock>
-4.88889

> <Mpro-x1458_dock>
-4.803874

> <Mpro-x0759_dock>
-4.724508

> <Mpro-x1375_dock>
-4.436111

> <Mpro-x1249_dock>
-4.416141

> <Mpro-x0354_dock>
-4.372561

> <Mpro-x0107_dock>
-4.074356

> <Mpro-x0692_dock>
-4.055636

> <Mpro-x1187_dock>
-3.853539

> <Mpro-x1386_dock>
-3.783776

> <Mpro-x1493_dock>
-3.765014

> <Mpro-x1385_dock>
-3.55938

> <Mpro-x1380_dock>
-3.505599

> <Mpro-x0708_dock>
-3.48815

> <Mpro-x0820_dock>
-3.414289

> <Mpro-x0397_dock>
-3.277927

> <Mpro-x0770_dock>
-3.18194

> <Mpro-x0967_dock>
-3.178348

> <Mpro-x1384_dock>
-3.167635

> <Mpro-x1351_dock>
-3.148523

> <Mpro-x0426_dock>
-3.033389

> <Mpro-x1334_dock>
-2.921127

> <Mpro-x0736_dock>
-2.698887

> <Mpro-x0734_dock>
-2.519943

> <Mpro-x0769_dock>
-2.366484

> <Mpro-x1425_dock>
-2.339735

> <Mpro-x1412_dock>
-2.250332

> <Mpro-x1308_dock>
-2.229545

> <Mpro-x0774_dock>
-2.193852

> <Mpro-x0752_dock>
-2.167624

> <Mpro-x1348_dock>
-2.111382

> <Mpro-x0771_dock>
-2.09785

> <Mpro-x0981_dock>
-1.853164

> <Mpro-x0978_dock>
-1.844521

> <Mpro-x1402_dock>
-1.757252

> <Mpro-x1358_dock>
-1.682757

> <Mpro-x1382_dock>
-1.588792

> <Mpro-x0755_dock>
-1.369532

> <Mpro-x0705_dock>
-1.129844

> <Mpro-x0689_dock>
-1.095247

> <Mpro-x1478_dock>
-1.020931

> <Mpro-x0691_dock>
-0.957939

> <Mpro-x0786_dock>
-0.835375

> <Mpro-x0731_dock>
-0.315975

> <Mpro-x0887_dock>
-0.024385

> <Mpro-x0540_dock>
-0.018803

> <site>
active-noncovalent

$$$$
DUN-NEW-f8c-14
  -OEChem-04022003013D

 40 41  0     1  0  0  0  0  0999 V2000
   13.6996    2.2029   22.2788 C   0  0  0  0  0  0  0  0  0  0  0  0
   12.8575    3.2423   22.6570 C   0  0  0  0  0  0  0  0  0  0  0  0
   11.3573    1.6350   23.6570 C   0  0  0  0  0  0  0  0  0  0  0  0
   13.3799    0.8713   22.5966 C   0  0  0  0  0  0  0  0  0  0  0  0
   12.1821    0.5556   23.2834 C   0  0  0  0  0  0  0  0  0  0  0  0
   11.6881    2.9583   23.3489 C   0  0  0  0  0  0  0  0  0  0  0  0
   14.3246   -0.2163   22.1456 C   0  0  0  0  0  0  0  0  0  0  0  0
   14.1181   -1.4922   22.9492 C   0  0  0  0  0  0  0  0  0  0  0  0
   12.6389   -1.8466   22.9786 C   0  0  0  0  0  0  0  0  0  0  0  0
    7.2074   -1.2889   21.0685 C   0  0  0  0  0  0  0  0  0  0  0  0
   10.5947   -1.1145   24.2162 C   0  0  0  0  0  0  0  0  0  0  0  0
    9.4905   -1.3358   23.1962 C   0  0  0  0  0  0  0  0  0  0  0  0
   11.8616   -0.7685   23.5880 N   0  0  3  0  0  0  0  0  0  0  0  0
   11.4790    5.6133   23.2388 N   0  0  0  0  0  0  0  0  0  0  0  0
    9.2647   -0.1701   22.3853 N   0  0  0  0  0  0  0  0  0  0  0  0
    9.3754    4.1285   23.1130 O   0  0  0  0  0  0  0  0  0  0  0  0
   10.6201    4.3207   25.2951 O   0  0  0  0  0  0  0  0  0  0  0  0
    9.5991   -1.1588   20.0135 O   0  0  0  0  0  0  0  0  0  0  0  0
    8.2599    0.9615   20.2727 O   0  0  0  0  0  0  0  0  0  0  0  0
   10.6300    4.2582   23.8404 S   0  0  0  0  0  0  0  0  0  0  0  0
    8.6781   -0.3346   20.7713 S   0  0  0  0  0  0  0  0  0  0  0  0
   14.6105    2.4311   21.7305 H   0  0  0  0  0  0  0  0  0  0  0  0
   13.1228    4.2658   22.4078 H   0  0  0  0  0  0  0  0  0  0  0  0
   10.4350    1.4594   24.2069 H   0  0  0  0  0  0  0  0  0  0  0  0
   14.1713   -0.4368   21.0828 H   0  0  0  0  0  0  0  0  0  0  0  0
   15.3534    0.1433   22.2703 H   0  0  0  0  0  0  0  0  0  0  0  0
   14.6894   -2.3192   22.5075 H   0  0  0  0  0  0  0  0  0  0  0  0
   14.4938   -1.3528   23.9692 H   0  0  0  0  0  0  0  0  0  0  0  0
   12.3026   -2.0256   21.9504 H   0  0  0  0  0  0  0  0  0  0  0  0
   12.4758   -2.7766   23.5376 H   0  0  0  0  0  0  0  0  0  0  0  0
    6.7181   -1.4746   20.1111 H   0  0  0  0  0  0  0  0  0  0  0  0
    7.4967   -2.2298   21.5390 H   0  0  0  0  0  0  0  0  0  0  0  0
    6.5531   -0.7167   21.7278 H   0  0  0  0  0  0  0  0  0  0  0  0
   10.7640   -2.0102   24.8222 H   0  0  0  0  0  0  0  0  0  0  0  0
   10.3305   -0.2876   24.8828 H   0  0  0  0  0  0  0  0  0  0  0  0
    9.7591   -2.1517   22.5181 H   0  0  0  0  0  0  0  0  0  0  0  0
    8.5425   -1.5868   23.6828 H   0  0  0  0  0  0  0  0  0  0  0  0
   11.0884    6.1044   22.4254 H   0  0  0  0  0  0  0  0  0  0  0  0
   11.9393    6.2333   23.9163 H   0  0  0  0  0  0  0  0  0  0  0  0
    8.9124    0.6723   22.8904 H   0  0  0  0  0  0  0  0  0  0  0  0
  1  2  2  0  0  0  0
  1  4  1  0  0  0  0
  2  6  1  0  0  0  0
  3  5  1  0  0  0  0
  3  6  2  0  0  0  0
  4  5  2  0  0  0  0
  4  7  1  0  0  0  0
  5 13  1  0  0  0  0
  6 20  1  0  0  0  0
  7  8  1  0  0  0  0
  8  9  1  0  0  0  0
  9 13  1  0  0  0  0
 10 21  1  0  0  0  0
 11 12  1  0  0  0  0
 11 13  1  0  0  0  0
 12 15  1  0  0  0  0
 14 20  1  0  0  0  0
 15 21  1  0  0  0  0
 16 20  2  0  0  0  0
 17 20  2  0  0  0  0
 18 21  2  0  0  0  0
 19 21  2  0  0  0  0
  1 22  1  0  0  0  0
  2 23  1  0  0  0  0
  3 24  1  0  0  0  0
  7 25  1  0  0  0  0
  7 26  1  0  0  0  0
  8 27  1  0  0  0  0
  8 28  1  0  0  0  0
  9 29  1  0  0  0  0
  9 30  1  0  0  0  0
 10 31  1  0  0  0  0
 10 32  1  0  0  0  0
 10 33  1  0  0  0  0
 11 34  1  0  0  0  0
 11 35  1  0  0  0  0
 12 36  1  0  0  0  0
 12 37  1  0  0  0  0
 14 38  1  0  0  0  0
 14 39  1  0  0  0  0
 15 40  1  0  0  0  0
M  END
> <Hybrid2>
-8.703977

> <fragments>
x0195

> <Mpro-x0195_dock>
-8.703977

> <Mpro-x0161_dock>
-6.472126

> <Mpro-x0946_dock>
-6.200628

> <Mpro-x0072_dock>
-6.198688

> <Mpro-x0678_dock>
-6.049767

> <Mpro-x1187_dock>
-5.962289

> <Mpro-x0830_dock>
-5.955025

> <Mpro-x1093_dock>
-5.586568

> <Mpro-x0831_dock>
-5.559122

> <Mpro-x0104_dock>
-5.464855

> <Mpro-x1077_dock>
-5.321873

> <Mpro-x0692_dock>
-5.230591

> <Mpro-x0387_dock>
-5.086501

> <Mpro-x0305_dock>
-5.045492

> <Mpro-x0874_dock>
-4.996038

> <Mpro-x1392_dock>
-4.786684

> <Mpro-x0749_dock>
-4.757619

> <Mpro-x1418_dock>
-4.618731

> <Mpro-x1385_dock>
-4.330026

> <Mpro-x1311_dock>
-4.321534

> <Mpro-x0107_dock>
-4.018594

> <Mpro-x0434_dock>
-3.902596

> <Mpro-x0770_dock>
-3.848757

> <Mpro-x0967_dock>
-3.708872

> <Mpro-x0734_dock>
-3.695153

> <Mpro-x1493_dock>
-3.693663

> <Mpro-x1334_dock>
-3.674067

> <Mpro-x0759_dock>
-3.614941

> <Mpro-x1382_dock>
-3.614225

> <Mpro-x1380_dock>
-3.543252

> <Mpro-x1386_dock>
-3.50215

> <Mpro-x1458_dock>
-3.493361

> <Mpro-x1478_dock>
-3.440458

> <Mpro-x0708_dock>
-3.393955

> <Mpro-x0354_dock>
-3.362185

> <Mpro-x0820_dock>
-3.266221

> <Mpro-x0736_dock>
-3.139549

> <Mpro-x1249_dock>
-2.918445

> <Mpro-x1348_dock>
-2.857218

> <Mpro-x0540_dock>
-2.683963

> <Mpro-x0774_dock>
-2.649362

> <Mpro-x1412_dock>
-2.492088

> <Mpro-x0397_dock>
-2.442668

> <Mpro-x0426_dock>
-2.41467

> <Mpro-x0395_dock>
-2.332686

> <Mpro-x0752_dock>
-2.223788

> <Mpro-x1374_dock>
-2.134994

> <Mpro-x1308_dock>
-2.019641

> <Mpro-x0771_dock>
-1.928144

> <Mpro-x1425_dock>
-1.791309

> <Mpro-x0755_dock>
-1.679735

> <Mpro-x0705_dock>
-1.617436

> <Mpro-x1358_dock>
-1.507934

> <Mpro-x1375_dock>
-1.501153

> <Mpro-x0691_dock>
-1.388784

> <Mpro-x1351_dock>
-1.063764

> <Mpro-x0689_dock>
-0.937464

> <Mpro-x1384_dock>
-0.924367

> <Mpro-x0769_dock>
-0.91074

> <Mpro-x0786_dock>
-0.491008

> <Mpro-x1402_dock>
-0.472755

> <Mpro-x0731_dock>
-0.205754

> <Mpro-x0887_dock>
-0.187994

> <Mpro-x0978_dock>
0.754033

> <Mpro-x0981_dock>
0.825558

> <site>
active-noncovalent

$$$$
WAR-XCH-b72-18
  -OEChem-04022003013D

 43 45  0     1  0  0  0  0  0999 V2000
   12.5662    2.7161   22.7904 C   0  0  0  0  0  0  0  0  0  0  0  0
   11.0617    1.7271   24.4015 C   0  0  0  0  0  0  0  0  0  0  0  0
   11.8731    3.9229   22.8839 C   0  0  0  0  0  0  0  0  0  0  0  0
   10.3686    2.9340   24.4951 C   0  0  0  0  0  0  0  0  0  0  0  0
   12.1605    1.6181   23.5491 C   0  0  0  0  0  0  0  0  0  0  0  0
   10.7744    4.0319   23.7362 C   0  0  0  0  0  0  0  0  0  0  0  0
    9.0054   -4.1342   24.1814 C   0  0  0  0  0  0  0  0  0  0  0  0
    9.7066   -2.9652   23.5364 C   0  0  0  0  0  0  0  0  0  0  0  0
   11.9831   -1.4811   22.1767 C   0  0  0  0  0  0  0  0  0  0  0  0
   12.1342   -1.5585   24.7029 C   0  0  0  0  0  0  0  0  0  0  0  0
   12.9763   -0.3185   22.1939 C   0  0  0  0  0  0  0  0  0  0  0  0
   13.1224   -0.3883   24.6537 C   0  0  0  0  0  0  0  0  0  0  0  0
   10.0529   -4.6281   25.1567 C   0  0  0  0  0  0  0  0  0  0  0  0
   12.1750   -2.3861   23.4063 C   0  0  0  0  0  0  0  0  0  0  0  0
   11.1303   -3.4848   23.4351 C   0  0  1  0  0  0  0  0  0  0  0  0
   12.8513    0.4144   23.4562 N   0  0  0  0  0  0  0  0  0  0  0  0
    8.7301    5.3370   22.6307 N   0  0  0  0  0  0  0  0  0  0  0  0
    9.2364    5.5878   25.1459 O   0  0  0  0  0  0  0  0  0  0  0  0
   10.8014    6.6222   23.4641 O   0  0  0  0  0  0  0  0  0  0  0  0
   11.3339   -4.3222   24.5859 O   0  0  0  0  0  0  0  0  0  0  0  0
    9.9058    5.5419   23.8535 S   0  0  0  0  0  0  0  0  0  0  0  0
   13.4208    2.6422   22.1228 H   0  0  0  0  0  0  0  0  0  0  0  0
   10.7377    0.8780   24.9980 H   0  0  0  0  0  0  0  0  0  0  0  0
   12.1980    4.7716   22.2880 H   0  0  0  0  0  0  0  0  0  0  0  0
    9.5139    3.0074   25.1623 H   0  0  0  0  0  0  0  0  0  0  0  0
    8.0619   -3.8696   24.6658 H   0  0  0  0  0  0  0  0  0  0  0  0
    8.8002   -4.9058   23.4299 H   0  0  0  0  0  0  0  0  0  0  0  0
    9.2864   -2.6877   22.5648 H   0  0  0  0  0  0  0  0  0  0  0  0
    9.6487   -2.0907   24.1970 H   0  0  0  0  0  0  0  0  0  0  0  0
   10.9626   -1.0878   22.1560 H   0  0  0  0  0  0  0  0  0  0  0  0
   12.1247   -2.0631   21.2628 H   0  0  0  0  0  0  0  0  0  0  0  0
   12.3771   -2.1974   25.5592 H   0  0  0  0  0  0  0  0  0  0  0  0
   11.1219   -1.1716   24.8714 H   0  0  0  0  0  0  0  0  0  0  0  0
   13.9954   -0.6986   22.0809 H   0  0  0  0  0  0  0  0  0  0  0  0
   12.7619    0.3387   21.3471 H   0  0  0  0  0  0  0  0  0  0  0  0
   12.9964    0.2132   25.5545 H   0  0  0  0  0  0  0  0  0  0  0  0
   14.1450   -0.7668   24.6287 H   0  0  0  0  0  0  0  0  0  0  0  0
    9.9815   -4.1018   26.1145 H   0  0  0  0  0  0  0  0  0  0  0  0
    9.9793   -5.7032   25.3429 H   0  0  0  0  0  0  0  0  0  0  0  0
   13.1655   -2.8691   23.3321 H   0  0  0  0  0  0  0  0  0  0  0  0
   11.2423   -4.1186   22.5482 H   0  0  0  0  0  0  0  0  0  0  0  0
    7.7558    5.1857   22.9194 H   0  0  0  0  0  0  0  0  0  0  0  0
    8.8270    5.8911   21.7711 H   0  0  0  0  0  0  0  0  0  0  0  0
  1  3  2  0  0  0  0
  1  5  1  0  0  0  0
  2  4  1  0  0  0  0
  2  5  2  0  0  0  0
  3  6  1  0  0  0  0
  4  6  2  0  0  0  0
  5 16  1  0  0  0  0
  6 21  1  0  0  0  0
  7  8  1  0  0  0  0
  7 13  1  0  0  0  0
  8 15  1  0  0  0  0
  9 11  1  0  0  0  0
  9 14  1  0  0  0  0
 10 12  1  0  0  0  0
 10 14  1  0  0  0  0
 11 16  1  0  0  0  0
 12 16  1  0  0  0  0
 13 20  1  0  0  0  0
 14 15  1  0  0  0  0
 15 20  1  0  0  0  0
 17 21  1  0  0  0  0
 18 21  2  0  0  0  0
 19 21  2  0  0  0  0
  1 22  1  0  0  0  0
  2 23  1  0  0  0  0
  3 24  1  0  0  0  0
  4 25  1  0  0  0  0
  7 26  1  0  0  0  0
  7 27  1  0  0  0  0
  8 28  1  0  0  0  0
  8 29  1  0  0  0  0
  9 30  1  0  0  0  0
  9 31  1  0  0  0  0
 10 32  1  0  0  0  0
 10 33  1  0  0  0  0
 11 34  1  0  0  0  0
 11 35  1  0  0  0  0
 12 36  1  0  0  0  0
 12 37  1  0  0  0  0
 13 38  1  0  0  0  0
 13 39  1  0  0  0  0
 14 40  1  0  0  0  0
 15 41  1  0  0  0  0
 17 42  1  0  0  0  0
 17 43  1  0  0  0  0
M  END
> <Hybrid2>
-8.696627

> <fragments>
x0161

> <Mpro-x0161_dock>
-8.696627

> <Mpro-x0195_dock>
-8.315692

> <Mpro-x0072_dock>
-7.831382

> <Mpro-x1077_dock>
-7.317673

> <Mpro-x0946_dock>
-6.961732

> <Mpro-x0678_dock>
-6.811944

> <Mpro-x0830_dock>
-6.727454

> <Mpro-x1093_dock>
-6.626945

> <Mpro-x0749_dock>
-6.519819

> <Mpro-x0874_dock>
-6.034643

> <Mpro-x0104_dock>
-5.926084

> <Mpro-x0831_dock>
-5.855774

> <Mpro-x0107_dock>
-5.408778

> <Mpro-x0395_dock>
-5.263639

> <Mpro-x1311_dock>
-5.238408

> <Mpro-x0967_dock>
-5.148419

> <Mpro-x0397_dock>
-4.923483

> <Mpro-x0692_dock>
-4.807108

> <Mpro-x0434_dock>
-4.350511

> <Mpro-x0387_dock>
-4.283214

> <Mpro-x1385_dock>
-4.130645

> <Mpro-x1392_dock>
-3.944187

> <Mpro-x1334_dock>
-3.857553

> <Mpro-x1187_dock>
-3.681971

> <Mpro-x0736_dock>
-3.30229

> <Mpro-x1348_dock>
-3.168307

> <Mpro-x1249_dock>
-3.002723

> <Mpro-x0354_dock>
-2.936234

> <Mpro-x1375_dock>
-2.709106

> <Mpro-x0305_dock>
-2.583739

> <Mpro-x0708_dock>
-2.567719

> <Mpro-x1374_dock>
-2.397844

> <Mpro-x1386_dock>
-2.065922

> <Mpro-x1478_dock>
-1.92917

> <Mpro-x1418_dock>
-1.912104

> <Mpro-x1358_dock>
-1.815696

> <Mpro-x0770_dock>
-1.804143

> <Mpro-x1380_dock>
-1.755031

> <Mpro-x1493_dock>
-1.732955

> <Mpro-x1412_dock>
-1.728495

> <Mpro-x0734_dock>
-1.647336

> <Mpro-x0771_dock>
-1.521027

> <Mpro-x0540_dock>
-1.452909

> <Mpro-x1351_dock>
-1.280602

> <Mpro-x1458_dock>
-1.210654

> <Mpro-x0759_dock>
-1.202083

> <Mpro-x0774_dock>
-1.127725

> <Mpro-x1382_dock>
-1.076661

> <Mpro-x0769_dock>
-1.041827

> <Mpro-x0426_dock>
-1.016062

> <Mpro-x0887_dock>
-0.87732

> <Mpro-x0755_dock>
-0.822895

> <Mpro-x1384_dock>
-0.728831

> <Mpro-x0689_dock>
-0.713077

> <Mpro-x1308_dock>
-0.532357

> <Mpro-x0820_dock>
-0.530492

> <Mpro-x0691_dock>
-0.264207

> <Mpro-x0981_dock>
-0.092089

> <Mpro-x0705_dock>
0.33331

> <Mpro-x0731_dock>
0.488893

> <Mpro-x0752_dock>
0.628648

> <Mpro-x1425_dock>
0.655485

> <Mpro-x1402_dock>
0.97245

> <Mpro-x0978_dock>
1.16259

> <Mpro-x0786_dock>
1.222047

> <site>
active-noncovalent

$$$$
ANN-UNI-263-6
  -OEChem-04022003013D

 33 34  0     0  0  0  0  0  0999 V2000
    5.1242    1.8644   21.4222 C   0  0  0  0  0  0  0  0  0  0  0  0
    6.0883    0.8608   17.9697 C   0  0  0  0  0  0  0  0  0  0  0  0
   14.5225   -1.6333   22.0682 C   0  0  0  0  0  0  0  0  0  0  0  0
    5.3399    1.3448   19.0426 C   0  0  0  0  0  0  0  0  0  0  0  0
    7.3882    0.3996   18.1778 C   0  0  0  0  0  0  0  0  0  0  0  0
   13.4992   -1.4080   21.1476 C   0  0  0  0  0  0  0  0  0  0  0  0
   14.3335   -1.3146   23.4130 C   0  0  0  0  0  0  0  0  0  0  0  0
    7.1913    0.9067   20.5318 C   0  0  0  0  0  0  0  0  0  0  0  0
   12.0978   -0.5452   22.9165 C   0  0  0  0  0  0  0  0  0  0  0  0
    5.8914    1.3679   20.3236 C   0  0  0  0  0  0  0  0  0  0  0  0
    7.9397    0.4226   19.4588 C   0  0  0  0  0  0  0  0  0  0  0  0
   12.2869   -0.8639   21.5717 C   0  0  0  0  0  0  0  0  0  0  0  0
   13.1212   -0.7706   23.8371 C   0  0  0  0  0  0  0  0  0  0  0  0
    9.9732   -0.1003   20.8767 C   0  0  0  0  0  0  0  0  0  0  0  0
   11.6731    0.0935   25.5141 C   0  0  0  0  0  0  0  0  0  0  0  0
    4.5011    2.2677   22.3143 N   0  0  0  0  0  0  0  0  0  0  0  0
    9.2394   -0.0399   19.6668 N   0  0  0  0  0  0  0  0  0  0  0  0
   11.2490   -0.6358   20.6375 N   0  0  0  0  0  0  0  0  0  0  0  0
    9.5499    0.2637   21.9692 O   0  0  0  0  0  0  0  0  0  0  0  0
   12.9367   -0.4594   25.1494 O   0  0  0  0  0  0  0  0  0  0  0  0
    5.6586    0.8420   16.9723 H   0  0  0  0  0  0  0  0  0  0  0  0
   15.4660   -2.0578   21.7378 H   0  0  0  0  0  0  0  0  0  0  0  0
    4.3284    1.7014   18.8641 H   0  0  0  0  0  0  0  0  0  0  0  0
    7.9621    0.0244   17.3342 H   0  0  0  0  0  0  0  0  0  0  0  0
   13.6579   -1.6597   20.1021 H   0  0  0  0  0  0  0  0  0  0  0  0
   15.1345   -1.4933   24.1250 H   0  0  0  0  0  0  0  0  0  0  0  0
    7.6249    0.9237   21.5298 H   0  0  0  0  0  0  0  0  0  0  0  0
   11.1541   -0.1212   23.2521 H   0  0  0  0  0  0  0  0  0  0  0  0
   11.6591    0.2955   26.5879 H   0  0  0  0  0  0  0  0  0  0  0  0
   10.8780   -0.6099   25.2544 H   0  0  0  0  0  0  0  0  0  0  0  0
   11.5230    1.0278   24.9679 H   0  0  0  0  0  0  0  0  0  0  0  0
    9.7284   -0.3817   18.8327 H   0  0  0  0  0  0  0  0  0  0  0  0
   11.4596   -0.8929   19.6765 H   0  0  0  0  0  0  0  0  0  0  0  0
  1 10  1  0  0  0  0
  1 16  3  0  0  0  0
  2  4  1  0  0  0  0
  2  5  2  0  0  0  0
  3  6  1  0  0  0  0
  3  7  2  0  0  0  0
  4 10  2  0  0  0  0
  5 11  1  0  0  0  0
  6 12  2  0  0  0  0
  7 13  1  0  0  0  0
  8 10  1  0  0  0  0
  8 11  2  0  0  0  0
  9 12  1  0  0  0  0
  9 13  2  0  0  0  0
 11 17  1  0  0  0  0
 12 18  1  0  0  0  0
 13 20  1  0  0  0  0
 14 17  1  0  0  0  0
 14 18  1  0  0  0  0
 14 19  2  0  0  0  0
 15 20  1  0  0  0  0
  2 21  1  0  0  0  0
  3 22  1  0  0  0  0
  4 23  1  0  0  0  0
  5 24  1  0  0  0  0
  6 25  1  0  0  0  0
  7 26  1  0  0  0  0
  8 27  1  0  0  0  0
  9 28  1  0  0  0  0
 15 29  1  0  0  0  0
 15 30  1  0  0  0  0
 15 31  1  0  0  0  0
 17 32  1  0  0  0  0
 18 33  1  0  0  0  0
M  END
> <Hybrid2>
-8.695646

> <fragments>
x0678

> <Mpro-x0678_dock>
-8.695646

> <Mpro-x0749_dock>
-8.102566

> <Mpro-x0195_dock>
-8.06844

> <Mpro-x0104_dock>
-8.032236

> <Mpro-x0946_dock>
-7.678854

> <Mpro-x0161_dock>
-7.48994

> <Mpro-x1093_dock>
-7.032946

> <Mpro-x0107_dock>
-6.109194

> <Mpro-x0434_dock>
-6.088238

> <Mpro-x0967_dock>
-5.951442

> <Mpro-x0874_dock>
-5.648328

> <Mpro-x0072_dock>
-5.549538

> <Mpro-x1077_dock>
-4.9928

> <Mpro-x0830_dock>
-4.814371

> <Mpro-x1375_dock>
-4.470779

> <Mpro-x1392_dock>
-4.369388

> <Mpro-x1311_dock>
-4.299539

> <Mpro-x0397_dock>
-4.260543

> <Mpro-x0831_dock>
-3.982988

> <Mpro-x1187_dock>
-3.76662

> <Mpro-x0395_dock>
-3.4402

> <Mpro-x0305_dock>
-3.429935

> <Mpro-x0387_dock>
-3.294616

> <Mpro-x0759_dock>
-3.184805

> <Mpro-x0692_dock>
-3.134584

> <Mpro-x1386_dock>
-3.083671

> <Mpro-x0354_dock>
-2.955231

> <Mpro-x1374_dock>
-2.818928

> <Mpro-x1249_dock>
-2.676828

> <Mpro-x0708_dock>
-2.593423

> <Mpro-x1348_dock>
-2.42668

> <Mpro-x0540_dock>
-2.406914

> <Mpro-x1334_dock>
-2.349905

> <Mpro-x0770_dock>
-2.34747

> <Mpro-x1385_dock>
-1.997835

> <Mpro-x0978_dock>
-1.949626

> <Mpro-x1418_dock>
-1.813268

> <Mpro-x0774_dock>
-1.746855

> <Mpro-x0981_dock>
-1.25105

> <Mpro-x1412_dock>
-1.16912

> <Mpro-x0426_dock>
-1.090575

> <Mpro-x1380_dock>
-0.920123

> <Mpro-x1358_dock>
-0.918854

> <Mpro-x1384_dock>
-0.796101

> <Mpro-x0786_dock>
-0.557084

> <Mpro-x0734_dock>
-0.258395

> <Mpro-x1351_dock>
-0.213915

> <Mpro-x0771_dock>
-0.163554

> <Mpro-x0887_dock>
-0.148003

> <Mpro-x0691_dock>
0.048015

> <Mpro-x0769_dock>
0.202825

> <Mpro-x1425_dock>
0.398528

> <Mpro-x1308_dock>
0.404313

> <Mpro-x0705_dock>
0.462329

> <Mpro-x0736_dock>
0.745076

> <Mpro-x0755_dock>
0.780958

> <Mpro-x0689_dock>
0.796864

> <Mpro-x0820_dock>
1.004552

> <Mpro-x1478_dock>
1.060403

> <Mpro-x1402_dock>
1.380003

> <Mpro-x0752_dock>
1.414041

> <Mpro-x1493_dock>
1.658854

> <Mpro-x1458_dock>
1.672155

> <Mpro-x1382_dock>
2.058876

> <Mpro-x0731_dock>
2.095622

> <site>
active-noncovalent

$$$$
CHR-SOS-709-7
  -OEChem-04022003013D

 27 28  0     0  0  0  0  0  0999 V2000
    6.6176   -5.5764   21.6466 C   0  0  0  0  0  0  0  0  0  0  0  0
    7.6304   -6.2072   22.3690 C   0  0  0  0  0  0  0  0  0  0  0  0
    6.6685   -4.1992   21.4311 C   0  0  0  0  0  0  0  0  0  0  0  0
    8.6941   -5.4608   22.8760 C   0  0  0  0  0  0  0  0  0  0  0  0
    7.7322   -3.4528   21.9381 C   0  0  0  0  0  0  0  0  0  0  0  0
   13.7606   -1.9521   25.5257 C   0  0  0  0  0  0  0  0  0  0  0  0
   13.5496   -0.6317   25.1289 C   0  0  0  0  0  0  0  0  0  0  0  0
   11.4010   -1.2501   24.2134 C   0  0  0  0  0  0  0  0  0  0  0  0
   11.6120   -2.5706   24.6102 C   0  0  0  0  0  0  0  0  0  0  0  0
    8.7450   -4.0836   22.6606 C   0  0  0  0  0  0  0  0  0  0  0  0
   12.7918   -2.9216   25.2663 C   0  0  0  0  0  0  0  0  0  0  0  0
   12.3698   -0.2806   24.4727 C   0  0  0  0  0  0  0  0  0  0  0  0
   10.5891   -3.5680   24.3277 C   0  0  0  0  0  0  0  0  0  0  0  0
    9.8263   -3.3252   23.1759 N   0  0  0  0  0  0  0  0  0  0  0  0
   10.3982   -4.5330   25.0791 O   0  0  0  0  0  0  0  0  0  0  0  0
   13.0174   -4.2068   25.6600 O   0  0  0  0  0  0  0  0  0  0  0  0
   12.1087    1.3490   23.9850 Cl  0  0  0  0  0  0  0  0  0  0  0  0
    5.7896   -6.1574   21.2510 H   0  0  0  0  0  0  0  0  0  0  0  0
    7.5916   -7.2796   22.5362 H   0  0  0  0  0  0  0  0  0  0  0  0
    5.8802   -3.7085   20.8676 H   0  0  0  0  0  0  0  0  0  0  0  0
    9.4778   -5.9633   23.4375 H   0  0  0  0  0  0  0  0  0  0  0  0
    7.7614   -2.3801   21.7638 H   0  0  0  0  0  0  0  0  0  0  0  0
   14.6819   -2.2198   26.0360 H   0  0  0  0  0  0  0  0  0  0  0  0
   14.3127    0.1133   25.3388 H   0  0  0  0  0  0  0  0  0  0  0  0
   10.4804   -0.9787   23.7009 H   0  0  0  0  0  0  0  0  0  0  0  0
   10.0819   -2.4985   22.6415 H   0  0  0  0  0  0  0  0  0  0  0  0
   12.2651   -4.7682   25.4163 H   0  0  0  0  0  0  0  0  0  0  0  0
  1  2  1  0  0  0  0
  1  3  2  0  0  0  0
  2  4  2  0  0  0  0
  3  5  1  0  0  0  0
  4 10  1  0  0  0  0
  5 10  2  0  0  0  0
  6  7  2  0  0  0  0
  6 11  1  0  0  0  0
  7 12  1  0  0  0  0
  8  9  1  0  0  0  0
  8 12  2  0  0  0  0
  9 11  2  0  0  0  0
  9 13  1  0  0  0  0
 10 14  1  0  0  0  0
 11 16  1  0  0  0  0
 12 17  1  0  0  0  0
 13 14  1  0  0  0  0
 13 15  2  0  0  0  0
  1 18  1  0  0  0  0
  2 19  1  0  0  0  0
  3 20  1  0  0  0  0
  4 21  1  0  0  0  0
  5 22  1  0  0  0  0
  6 23  1  0  0  0  0
  7 24  1  0  0  0  0
  8 25  1  0  0  0  0
 14 26  1  0  0  0  0
 16 27  1  0  0  0  0
M  END
> <Hybrid2>
-8.661772

> <fragments>
x0749

> <Mpro-x0749_dock>
-8.661772

> <Mpro-x0195_dock>
-8.379775

> <Mpro-x0161_dock>
-8.362097

> <Mpro-x1093_dock>
-7.812594

> <Mpro-x0104_dock>
-7.456347

> <Mpro-x0107_dock>
-7.451209

> <Mpro-x0946_dock>
-7.273988

> <Mpro-x0678_dock>
-7.229523

> <Mpro-x0072_dock>
-6.917756

> <Mpro-x0708_dock>
-6.909606

> <Mpro-x0434_dock>
-6.729948

> <Mpro-x0830_dock>
-6.159395

> <Mpro-x1077_dock>
-6.135396

> <Mpro-x0397_dock>
-6.063635

> <Mpro-x1392_dock>
-6.029326

> <Mpro-x1311_dock>
-5.899855

> <Mpro-x0395_dock>
-5.833889

> <Mpro-x0759_dock>
-5.743421

> <Mpro-x0874_dock>
-5.661518

> <Mpro-x0831_dock>
-5.52887

> <Mpro-x0692_dock>
-5.414716

> <Mpro-x1418_dock>
-5.360747

> <Mpro-x1385_dock>
-5.342589

> <Mpro-x0770_dock>
-5.314917

> <Mpro-x1375_dock>
-5.313

> <Mpro-x0354_dock>
-5.21059

> <Mpro-x0967_dock>
-4.994447

> <Mpro-x1187_dock>
-4.737531

> <Mpro-x1249_dock>
-4.726667

> <Mpro-x1386_dock>
-4.640264

> <Mpro-x0387_dock>
-4.591663

> <Mpro-x0786_dock>
-4.558619

> <Mpro-x1374_dock>
-4.445268

> <Mpro-x1334_dock>
-4.378431

> <Mpro-x0305_dock>
-4.361305

> <Mpro-x0978_dock>
-4.249525

> <Mpro-x1478_dock>
-4.24907

> <Mpro-x0981_dock>
-3.970208

> <Mpro-x1348_dock>
-3.902159

> <Mpro-x1412_dock>
-3.879823

> <Mpro-x1382_dock>
-3.786133

> <Mpro-x0774_dock>
-3.532079

> <Mpro-x0734_dock>
-3.257021

> <Mpro-x0771_dock>
-3.151264

> <Mpro-x1493_dock>
-3.034009

> <Mpro-x1308_dock>
-3.028518

> <Mpro-x1380_dock>
-3.022685

> <Mpro-x0540_dock>
-2.911609

> <Mpro-x1425_dock>
-2.698714

> <Mpro-x0426_dock>
-2.675941

> <Mpro-x1384_dock>
-2.599098

> <Mpro-x0736_dock>
-2.558947

> <Mpro-x0691_dock>
-2.471944

> <Mpro-x0769_dock>
-2.39876

> <Mpro-x0820_dock>
-2.30219

> <Mpro-x0731_dock>
-2.204468

> <Mpro-x0755_dock>
-2.184462

> <Mpro-x0689_dock>
-2.150941

> <Mpro-x0705_dock>
-1.930461

> <Mpro-x1358_dock>
-1.852023

> <Mpro-x1351_dock>
-1.740022

> <Mpro-x1402_dock>
-1.726848

> <Mpro-x0887_dock>
-1.719933

> <Mpro-x1458_dock>
-1.242167

> <Mpro-x0752_dock>
-1.143114

> <site>
active-covalent

$$$$
BAR-COM-4e0-30
  -OEChem-04022003013D

 41 43  0     1  0  0  0  0  0999 V2000
   12.2978    4.3987   23.9124 C   0  0  0  0  0  0  0  0  0  0  0  0
   11.0407    4.0810   24.4264 C   0  0  0  0  0  0  0  0  0  0  0  0
   12.8530    3.6204   22.8967 C   0  0  0  0  0  0  0  0  0  0  0  0
   10.3387    2.9849   23.9248 C   0  0  0  0  0  0  0  0  0  0  0  0
   12.1511    2.5243   22.3951 C   0  0  0  0  0  0  0  0  0  0  0  0
   13.9306   -1.0609   23.5523 C   0  0  0  0  0  0  0  0  0  0  0  0
   13.6088   -1.4667   22.2432 C   0  0  0  0  0  0  0  0  0  0  0  0
    6.9464   -0.0073   18.8355 C   0  0  0  0  0  0  0  0  0  0  0  0
   12.7552   -0.5588   24.0549 C   0  0  0  0  0  0  0  0  0  0  0  0
   10.8940    2.2065   22.9092 C   0  0  0  0  0  0  0  0  0  0  0  0
    5.9826    0.7350   19.5321 C   0  0  0  0  0  0  0  0  0  0  0  0
    8.0751    1.9333   21.3215 C   0  0  0  0  0  0  0  0  0  0  0  0
    5.7899    0.8876   21.0187 C   0  0  0  0  0  0  0  0  0  0  0  0
    6.5839    2.0690   21.5730 C   0  0  0  0  0  0  0  0  0  0  0  0
   10.4314   -0.2947   23.1129 C   0  0  0  0  0  0  0  0  0  0  0  0
   10.1318    1.0151   22.3638 C   0  0  1  0  0  0  0  0  0  0  0  0
   12.3291   -1.2420   21.9337 N   0  0  0  0  0  0  0  0  0  0  0  0
    6.7613    0.1314   17.5197 N   0  0  0  0  0  0  0  0  0  0  0  0
    5.1754    1.3546   18.6665 N   0  0  0  0  0  0  0  0  0  0  0  0
    5.6972    0.9501   17.4974 N   0  0  0  0  0  0  0  0  0  0  0  0
   11.8364   -0.6895   23.0554 N   0  0  0  0  0  0  0  0  0  0  0  0
    8.7105    1.2703   22.3613 N   0  0  0  0  0  0  0  0  0  0  0  0
    8.6312    2.3655   20.3155 O   0  0  0  0  0  0  0  0  0  0  0  0
   12.8436    5.2530   24.3021 H   0  0  0  0  0  0  0  0  0  0  0  0
   10.6077    4.6876   25.2165 H   0  0  0  0  0  0  0  0  0  0  0  0
   13.8313    3.8681   22.4955 H   0  0  0  0  0  0  0  0  0  0  0  0
    9.3599    2.7448   24.3315 H   0  0  0  0  0  0  0  0  0  0  0  0
   12.5916    1.9235   21.6038 H   0  0  0  0  0  0  0  0  0  0  0  0
   14.8817   -1.1237   24.0598 H   0  0  0  0  0  0  0  0  0  0  0  0
   14.2547   -1.9173   21.5033 H   0  0  0  0  0  0  0  0  0  0  0  0
    7.7518   -0.6252   19.2041 H   0  0  0  0  0  0  0  0  0  0  0  0
   12.5030   -0.1298   25.0149 H   0  0  0  0  0  0  0  0  0  0  0  0
    4.7216    1.0111   21.2385 H   0  0  0  0  0  0  0  0  0  0  0  0
    6.0876   -0.0407   21.5236 H   0  0  0  0  0  0  0  0  0  0  0  0
    6.4266    2.1579   22.6552 H   0  0  0  0  0  0  0  0  0  0  0  0
    6.2431    3.0049   21.1127 H   0  0  0  0  0  0  0  0  0  0  0  0
    9.8558   -1.1236   22.6797 H   0  0  0  0  0  0  0  0  0  0  0  0
   10.1351   -0.2379   24.1677 H   0  0  0  0  0  0  0  0  0  0  0  0
   10.3925    0.8833   21.3060 H   0  0  0  0  0  0  0  0  0  0  0  0
    5.2964    1.2554   16.6177 H   0  0  0  0  0  0  0  0  0  0  0  0
    8.1723    0.9806   23.1727 H   0  0  0  0  0  0  0  0  0  0  0  0
  1  2  1  0  0  0  0
  1  3  2  0  0  0  0
  2  4  2  0  0  0  0
  3  5  1  0  0  0  0
  4 10  1  0  0  0  0
  5 10  2  0  0  0  0
  6  7  1  0  0  0  0
  6  9  2  0  0  0  0
  7 17  2  0  0  0  0
  8 11  1  0  0  0  0
  8 18  2  0  0  0  0
  9 21  1  0  0  0  0
 10 16  1  0  0  0  0
 11 13  1  0  0  0  0
 11 19  2  0  0  0  0
 12 14  1  0  0  0  0
 12 22  1  0  0  0  0
 12 23  2  0  0  0  0
 13 14  1  0  0  0  0
 15 16  1  0  0  0  0
 15 21  1  0  0  0  0
 16 22  1  0  0  0  0
 17 21  1  0  0  0  0
 18 20  1  0  0  0  0
 19 20  1  0  0  0  0
  1 24  1  0  0  0  0
  2 25  1  0  0  0  0
  3 26  1  0  0  0  0
  4 27  1  0  0  0  0
  5 28  1  0  0  0  0
  6 29  1  0  0  0  0
  7 30  1  0  0  0  0
  8 31  1  0  0  0  0
  9 32  1  0  0  0  0
 13 33  1  0  0  0  0
 13 34  1  0  0  0  0
 14 35  1  0  0  0  0
 14 36  1  0  0  0  0
 15 37  1  0  0  0  0
 15 38  1  0  0  0  0
 16 39  1  0  0  0  0
 20 40  1  0  0  0  0
 22 41  1  0  0  0  0
M  END
> <Hybrid2>
-8.655871

> <fragments>
x0678

> <Mpro-x0678_dock>
-8.655871

> <Mpro-x0397_dock>
-8.632169

> <Mpro-x0874_dock>
-8.624984

> <Mpro-x0395_dock>
-7.543169

> <Mpro-x0749_dock>
-7.376601

> <Mpro-x0434_dock>
-7.363225

> <Mpro-x0072_dock>
-7.324743

> <Mpro-x1418_dock>
-7.231283

> <Mpro-x1386_dock>
-7.215299

> <Mpro-x0107_dock>
-7.15235

> <Mpro-x0831_dock>
-6.758186

> <Mpro-x0195_dock>
-6.683404

> <Mpro-x0161_dock>
-6.676009

> <Mpro-x0830_dock>
-6.622221

> <Mpro-x1093_dock>
-6.587286

> <Mpro-x0770_dock>
-6.368071

> <Mpro-x1385_dock>
-6.350036

> <Mpro-x1077_dock>
-6.221355

> <Mpro-x1334_dock>
-5.978673

> <Mpro-x0692_dock>
-5.767934

> <Mpro-x1412_dock>
-5.766481

> <Mpro-x0104_dock>
-5.639931

> <Mpro-x0967_dock>
-5.615781

> <Mpro-x1392_dock>
-5.535244

> <Mpro-x0759_dock>
-5.303349

> <Mpro-x1249_dock>
-5.232567

> <Mpro-x0387_dock>
-4.917407

> <Mpro-x1311_dock>
-4.458172

> <Mpro-x0946_dock>
-4.344034

> <Mpro-x0774_dock>
-4.144158

> <Mpro-x0736_dock>
-4.052927

> <Mpro-x0820_dock>
-3.965713

> <Mpro-x1348_dock>
-3.828346

> <Mpro-x1351_dock>
-3.584168

> <Mpro-x1458_dock>
-3.570269

> <Mpro-x1358_dock>
-3.172346

> <Mpro-x1375_dock>
-3.087149

> <Mpro-x1374_dock>
-3.028729

> <Mpro-x0708_dock>
-3.005113

> <Mpro-x1478_dock>
-2.999122

> <Mpro-x1380_dock>
-2.685774

> <Mpro-x0305_dock>
-2.393657

> <Mpro-x1425_dock>
-2.367203

> <Mpro-x0354_dock>
-2.275287

> <Mpro-x0426_dock>
-2.257959

> <Mpro-x0786_dock>
-2.096921

> <Mpro-x1493_dock>
-1.884888

> <Mpro-x0540_dock>
-1.856703

> <Mpro-x1187_dock>
-1.826622

> <Mpro-x0734_dock>
-1.807678

> <Mpro-x1382_dock>
-1.384632

> <Mpro-x0771_dock>
-1.284502

> <Mpro-x0705_dock>
-1.129619

> <Mpro-x1384_dock>
-1.06064

> <Mpro-x0691_dock>
-1.034475

> <Mpro-x0752_dock>
-0.856466

> <Mpro-x0769_dock>
-0.672592

> <Mpro-x0887_dock>
-0.666153

> <Mpro-x0981_dock>
-0.241921

> <Mpro-x0755_dock>
-0.188909

> <Mpro-x0978_dock>
-0.148494

> <Mpro-x1308_dock>
0.181326

> <Mpro-x1402_dock>
0.223882

> <Mpro-x0731_dock>
0.499875

> <Mpro-x0689_dock>
0.961316

> <site>
active-noncovalent

$$$$
WAR-XCH-b68-30
  -OEChem-04022003013D

 47 49  0     0  0  0  0  0  0999 V2000
   13.5511   -0.8501   23.9290 C   0  0  0  0  0  0  0  0  0  0  0  0
   13.3552   -1.4271   22.6743 C   0  0  0  0  0  0  0  0  0  0  0  0
   12.4533   -0.4661   24.6992 C   0  0  0  0  0  0  0  0  0  0  0  0
    6.0739   -5.3062   25.1156 C   0  0  0  0  0  0  0  0  0  0  0  0
    7.7081   -4.5853   26.7425 C   0  0  0  0  0  0  0  0  0  0  0  0
   12.0615   -1.6199   22.1896 C   0  0  0  0  0  0  0  0  0  0  0  0
    5.4040   -6.0237   26.1065 C   0  0  0  0  0  0  0  0  0  0  0  0
    7.0381   -5.3027   27.7334 C   0  0  0  0  0  0  0  0  0  0  0  0
   11.1596   -0.6589   24.2145 C   0  0  0  0  0  0  0  0  0  0  0  0
    7.2261   -4.5870   25.4335 C   0  0  0  0  0  0  0  0  0  0  0  0
   10.9637   -1.2358   22.9598 C   0  0  0  0  0  0  0  0  0  0  0  0
    5.8860   -6.0220   27.4154 C   0  0  0  0  0  0  0  0  0  0  0  0
    7.6407   -2.7851   22.2663 C   0  0  0  0  0  0  0  0  0  0  0  0
    9.8242   -3.8370   22.9435 C   0  0  0  0  0  0  0  0  0  0  0  0
    7.1989   -2.8049   23.7299 C   0  0  0  0  0  0  0  0  0  0  0  0
    9.3523   -3.8434   24.3997 C   0  0  0  0  0  0  0  0  0  0  0  0
    9.1635   -2.7336   22.1148 C   0  0  0  0  0  0  0  0  0  0  0  0
   10.0023   -0.2382   25.0607 C   0  0  0  0  0  0  0  0  0  0  0  0
    7.8879   -3.8786   24.4557 N   0  0  0  0  0  0  0  0  0  0  0  0
    5.8294   -8.4359   28.5443 N   0  0  0  0  0  0  0  0  0  0  0  0
    9.6892   -1.4344   22.4639 N   0  0  0  0  0  0  0  0  0  0  0  0
    5.3630   -6.3238   29.9469 O   0  0  0  0  0  0  0  0  0  0  0  0
    3.6582   -7.0801   28.2530 O   0  0  0  0  0  0  0  0  0  0  0  0
    5.0484   -6.9203   28.6563 S   0  0  0  0  0  0  0  0  0  0  0  0
   14.5584   -0.7000   24.3062 H   0  0  0  0  0  0  0  0  0  0  0  0
   14.2100   -1.7261   22.0747 H   0  0  0  0  0  0  0  0  0  0  0  0
   12.6168   -0.0174   25.6755 H   0  0  0  0  0  0  0  0  0  0  0  0
    5.6897   -5.3148   24.0988 H   0  0  0  0  0  0  0  0  0  0  0  0
    8.6045   -4.0273   27.0013 H   0  0  0  0  0  0  0  0  0  0  0  0
   11.9212   -2.0705   21.2104 H   0  0  0  0  0  0  0  0  0  0  0  0
    4.5075   -6.5805   25.8473 H   0  0  0  0  0  0  0  0  0  0  0  0
    7.4228   -5.2944   28.7498 H   0  0  0  0  0  0  0  0  0  0  0  0
    7.2654   -3.6906   21.7712 H   0  0  0  0  0  0  0  0  0  0  0  0
    7.1742   -1.9384   21.7482 H   0  0  0  0  0  0  0  0  0  0  0  0
   10.9164   -3.7421   22.9081 H   0  0  0  0  0  0  0  0  0  0  0  0
    9.5877   -4.8095   22.4917 H   0  0  0  0  0  0  0  0  0  0  0  0
    7.4049   -1.8369   24.2043 H   0  0  0  0  0  0  0  0  0  0  0  0
    6.1132   -2.9613   23.7627 H   0  0  0  0  0  0  0  0  0  0  0  0
    9.7730   -4.7266   24.8971 H   0  0  0  0  0  0  0  0  0  0  0  0
    9.7299   -2.9583   24.9274 H   0  0  0  0  0  0  0  0  0  0  0  0
    9.4118   -2.9113   21.0429 H   0  0  0  0  0  0  0  0  0  0  0  0
    9.7315    0.8013   24.8430 H   0  0  0  0  0  0  0  0  0  0  0  0
    9.1271   -0.8735   24.8783 H   0  0  0  0  0  0  0  0  0  0  0  0
   10.2414   -0.3217   26.1279 H   0  0  0  0  0  0  0  0  0  0  0  0
    6.4666   -8.7069   29.3033 H   0  0  0  0  0  0  0  0  0  0  0  0
    5.3019   -9.2216   28.1447 H   0  0  0  0  0  0  0  0  0  0  0  0
    9.0871   -0.6330   22.3346 H   0  0  0  0  0  0  0  0  0  0  0  0
  1  2  1  0  0  0  0
  1  3  2  0  0  0  0
  2  6  2  0  0  0  0
  3  9  1  0  0  0  0
  4  7  2  0  0  0  0
  4 10  1  0  0  0  0
  5  8  1  0  0  0  0
  5 10  2  0  0  0  0
  6 11  1  0  0  0  0
  7 12  1  0  0  0  0
  8 12  2  0  0  0  0
  9 11  2  0  0  0  0
  9 18  1  0  0  0  0
 10 19  1  0  0  0  0
 11 21  1  0  0  0  0
 12 24  1  0  0  0  0
 13 15  1  0  0  0  0
 13 17  1  0  0  0  0
 14 16  1  0  0  0  0
 14 17  1  0  0  0  0
 15 19  1  0  0  0  0
 16 19  1  0  0  0  0
 17 21  1  0  0  0  0
 20 24  1  0  0  0  0
 22 24  2  0  0  0  0
 23 24  2  0  0  0  0
  1 25  1  0  0  0  0
  2 26  1  0  0  0  0
  3 27  1  0  0  0  0
  4 28  1  0  0  0  0
  5 29  1  0  0  0  0
  6 30  1  0  0  0  0
  7 31  1  0  0  0  0
  8 32  1  0  0  0  0
 13 33  1  0  0  0  0
 13 34  1  0  0  0  0
 14 35  1  0  0  0  0
 14 36  1  0  0  0  0
 15 37  1  0  0  0  0
 15 38  1  0  0  0  0
 16 39  1  0  0  0  0
 16 40  1  0  0  0  0
 17 41  1  0  0  0  0
 18 42  1  0  0  0  0
 18 43  1  0  0  0  0
 18 44  1  0  0  0  0
 20 45  1  0  0  0  0
 20 46  1  0  0  0  0
 21 47  1  0  0  0  0
M  END
> <Hybrid2>
-8.649417

> <fragments>
x0072

> <Mpro-x0072_dock>
-8.649417

> <Mpro-x0104_dock>
-8.570671

> <Mpro-x0161_dock>
-8.524682

> <Mpro-x0874_dock>
-7.789684

> <Mpro-x1077_dock>
-6.98516

> <Mpro-x1093_dock>
-6.882963

> <Mpro-x0195_dock>
-6.406188

> <Mpro-x0946_dock>
-6.075558

> <Mpro-x0387_dock>
-6.040439

> <Mpro-x1311_dock>
-5.8773

> <Mpro-x0395_dock>
-5.84224

> <Mpro-x0305_dock>
-5.830015

> <Mpro-x0830_dock>
-4.924339

> <Mpro-x0397_dock>
-4.65682

> <Mpro-x0107_dock>
-4.362278

> <Mpro-x0678_dock>
-4.119889

> <Mpro-x0967_dock>
-4.116131

> <Mpro-x0434_dock>
-4.104829

> <Mpro-x0749_dock>
-4.060722

> <Mpro-x1385_dock>
-3.965246

> <Mpro-x0354_dock>
-3.232198

> <Mpro-x1392_dock>
-2.948771

> <Mpro-x1493_dock>
-2.760543

> <Mpro-x1249_dock>
-2.714286

> <Mpro-x1334_dock>
-2.317488

> <Mpro-x1374_dock>
-2.242868

> <Mpro-x1375_dock>
-2.153259

> <Mpro-x0978_dock>
-1.836719

> <Mpro-x0820_dock>
-1.789398

> <Mpro-x1187_dock>
-1.782

> <Mpro-x0692_dock>
-1.614518

> <Mpro-x1380_dock>
-1.581541

> <Mpro-x1351_dock>
-1.465922

> <Mpro-x1384_dock>
-1.165142

> <Mpro-x1458_dock>
-1.156985

> <Mpro-x0831_dock>
-1.06989

> <Mpro-x1358_dock>
-0.937072

> <Mpro-x0691_dock>
-0.785517

> <Mpro-x1348_dock>
-0.672047

> <Mpro-x1478_dock>
-0.576634

> <Mpro-x1412_dock>
-0.540371

> <Mpro-x0540_dock>
-0.506495

> <Mpro-x0734_dock>
-0.332401

> <Mpro-x0759_dock>
-0.295763

> <Mpro-x0774_dock>
-0.289839

> <Mpro-x1418_dock>
-0.24446

> <Mpro-x0769_dock>
-0.184839

> <Mpro-x1308_dock>
0.023801

> <Mpro-x0771_dock>
0.053876

> <Mpro-x0426_dock>
0.058919

> <Mpro-x0887_dock>
0.094167

> <Mpro-x0752_dock>
0.241821

> <Mpro-x1425_dock>
0.266074

> <Mpro-x0755_dock>
0.443131

> <Mpro-x0689_dock>
0.597728

> <Mpro-x0708_dock>
0.612469

> <Mpro-x0770_dock>
0.853381

> <Mpro-x0705_dock>
1.109087

> <Mpro-x1382_dock>
1.165955

> <Mpro-x0786_dock>
1.210512

> <Mpro-x1402_dock>
1.295932

> <Mpro-x1386_dock>
1.491157

> <Mpro-x0736_dock>
1.652584

> <Mpro-x0731_dock>
1.670175

> <Mpro-x0981_dock>
1.965924

> <site>
active-noncovalent

$$$$
GIA-UNK-d2d-6
  -OEChem-04022003013D

 41 43  0     1  0  0  0  0  0999 V2000
    4.5093    0.9013   18.4950 C   0  0  0  0  0  0  0  0  0  0  0  0
    4.3746    0.9586   19.8821 C   0  0  0  0  0  0  0  0  0  0  0  0
    5.7698    0.7284   17.9232 C   0  0  0  0  0  0  0  0  0  0  0  0
    5.5004    0.8432   20.6975 C   0  0  0  0  0  0  0  0  0  0  0  0
    6.8956    0.6130   18.7386 C   0  0  0  0  0  0  0  0  0  0  0  0
    6.7609    0.6703   20.1258 C   0  0  0  0  0  0  0  0  0  0  0  0
    7.9465    0.5489   20.9845 C   0  0  0  0  0  0  0  0  0  0  0  0
    9.9587   -0.3306   23.1953 C   0  0  0  0  0  0  0  0  0  0  0  0
    7.4019   -2.1222   23.5159 C   0  0  0  0  0  0  0  0  0  0  0  0
    8.7402   -2.5013   22.8859 C   0  0  0  0  0  0  0  0  0  0  0  0
    6.8117   -1.1411   22.5143 C   0  0  0  0  0  0  0  0  0  0  0  0
   12.1590    0.3730   24.0811 C   0  0  0  0  0  0  0  0  0  0  0  0
   12.1253   -1.2206   22.2070 C   0  0  0  0  0  0  0  0  0  0  0  0
   13.2478   -0.4771   24.7203 C   0  0  0  0  0  0  0  0  0  0  0  0
   13.2203   -2.0019   22.9224 C   0  0  0  0  0  0  0  0  0  0  0  0
    9.2012   -1.2054   22.2288 C   0  0  1  0  0  0  0  0  0  0  0  0
    7.9699   -0.5057   21.8868 N   0  0  0  0  0  0  0  0  0  0  0  0
   11.3476   -0.4368   23.1724 N   0  0  0  0  0  0  0  0  0  0  0  0
    8.8256    1.3975   20.8533 O   0  0  0  0  0  0  0  0  0  0  0  0
    9.3345    0.4203   23.9492 O   0  0  0  0  0  0  0  0  0  0  0  0
   14.0273   -1.1224   23.7100 O   0  0  0  0  0  0  0  0  0  0  0  0
    3.6327    0.9912   17.8601 H   0  0  0  0  0  0  0  0  0  0  0  0
    3.3931    1.0934   20.3271 H   0  0  0  0  0  0  0  0  0  0  0  0
    5.8747    0.6835   16.8431 H   0  0  0  0  0  0  0  0  0  0  0  0
    5.3840    0.8892   21.7773 H   0  0  0  0  0  0  0  0  0  0  0  0
    7.8729    0.4787   18.2821 H   0  0  0  0  0  0  0  0  0  0  0  0
    6.7586   -2.9923   23.6751 H   0  0  0  0  0  0  0  0  0  0  0  0
    7.5605   -1.6303   24.4825 H   0  0  0  0  0  0  0  0  0  0  0  0
    9.4397   -2.8895   23.6318 H   0  0  0  0  0  0  0  0  0  0  0  0
    8.5851   -3.2682   22.1183 H   0  0  0  0  0  0  0  0  0  0  0  0
    6.2469   -1.6607   21.7323 H   0  0  0  0  0  0  0  0  0  0  0  0
    6.1659   -0.3938   22.9845 H   0  0  0  0  0  0  0  0  0  0  0  0
   11.5406    0.8440   24.8508 H   0  0  0  0  0  0  0  0  0  0  0  0
   12.6074    1.1671   23.4725 H   0  0  0  0  0  0  0  0  0  0  0  0
   12.5703   -0.4984   21.5124 H   0  0  0  0  0  0  0  0  0  0  0  0
   11.4999   -1.9024   21.6285 H   0  0  0  0  0  0  0  0  0  0  0  0
   13.9218    0.1578   25.3039 H   0  0  0  0  0  0  0  0  0  0  0  0
   12.8269   -1.2285   25.3990 H   0  0  0  0  0  0  0  0  0  0  0  0
   12.8014   -2.7892   23.5603 H   0  0  0  0  0  0  0  0  0  0  0  0
   13.8745   -2.4824   22.1880 H   0  0  0  0  0  0  0  0  0  0  0  0
    9.8227   -1.3653   21.3441 H   0  0  0  0  0  0  0  0  0  0  0  0
  1  2  1  0  0  0  0
  1  3  2  0  0  0  0
  2  4  2  0  0  0  0
  3  5  1  0  0  0  0
  4  6  1  0  0  0  0
  5  6  2  0  0  0  0
  6  7  1  0  0  0  0
  7 17  1  0  0  0  0
  7 19  2  0  0  0  0
  8 16  1  0  0  0  0
  8 18  1  0  0  0  0
  8 20  2  0  0  0  0
  9 10  1  0  0  0  0
  9 11  1  0  0  0  0
 10 16  1  0  0  0  0
 11 17  1  0  0  0  0
 12 14  1  0  0  0  0
 12 18  1  0  0  0  0
 13 15  1  0  0  0  0
 13 18  1  0  0  0  0
 14 21  1  0  0  0  0
 15 21  1  0  0  0  0
 16 17  1  0  0  0  0
  1 22  1  0  0  0  0
  2 23  1  0  0  0  0
  3 24  1  0  0  0  0
  4 25  1  0  0  0  0
  5 26  1  0  0  0  0
  9 27  1  0  0  0  0
  9 28  1  0  0  0  0
 10 29  1  0  0  0  0
 10 30  1  0  0  0  0
 11 31  1  0  0  0  0
 11 32  1  0  0  0  0
 12 33  1  0  0  0  0
 12 34  1  0  0  0  0
 13 35  1  0  0  0  0
 13 36  1  0  0  0  0
 14 37  1  0  0  0  0
 14 38  1  0  0  0  0
 15 39  1  0  0  0  0
 15 40  1  0  0  0  0
 16 41  1  0  0  0  0
M  END
> <Hybrid2>
-8.646894

> <fragments>
x1093

> <Mpro-x1093_dock>
-8.646894

> <Mpro-x0434_dock>
-8.284119

> <Mpro-x0678_dock>
-8.106049

> <Mpro-x0831_dock>
-6.947254

> <Mpro-x1385_dock>
-6.669454

> <Mpro-x0072_dock>
-6.63236

> <Mpro-x1418_dock>
-6.616897

> <Mpro-x0749_dock>
-6.340582

> <Mpro-x1386_dock>
-6.335757

> <Mpro-x0161_dock>
-6.229746

> <Mpro-x1412_dock>
-6.197379

> <Mpro-x1077_dock>
-6.183824

> <Mpro-x0946_dock>
-6.168783

> <Mpro-x0770_dock>
-5.821782

> <Mpro-x0874_dock>
-5.765651

> <Mpro-x0305_dock>
-5.75674

> <Mpro-x1392_dock>
-5.725198

> <Mpro-x0736_dock>
-5.672001

> <Mpro-x0692_dock>
-5.620228

> <Mpro-x1311_dock>
-5.607023

> <Mpro-x0195_dock>
-5.507788

> <Mpro-x0104_dock>
-5.484522

> <Mpro-x0759_dock>
-5.318964

> <Mpro-x0734_dock>
-5.294185

> <Mpro-x0830_dock>
-5.193482

> <Mpro-x0395_dock>
-5.15321

> <Mpro-x0708_dock>
-5.142899

> <Mpro-x0107_dock>
-4.859755

> <Mpro-x1334_dock>
-4.788991

> <Mpro-x1374_dock>
-4.776123

> <Mpro-x1458_dock>
-4.731918

> <Mpro-x0387_dock>
-4.531297

> <Mpro-x1375_dock>
-4.420444

> <Mpro-x0397_dock>
-4.284026

> <Mpro-x1478_dock>
-4.229594

> <Mpro-x0774_dock>
-4.203584

> <Mpro-x1187_dock>
-4.188311

> <Mpro-x0967_dock>
-4.181107

> <Mpro-x1249_dock>
-4.06698

> <Mpro-x0820_dock>
-3.573295

> <Mpro-x1493_dock>
-3.490926

> <Mpro-x1382_dock>
-3.447304

> <Mpro-x1384_dock>
-3.401876

> <Mpro-x0354_dock>
-3.213186

> <Mpro-x1348_dock>
-3.015012

> <Mpro-x0752_dock>
-2.64735

> <Mpro-x1358_dock>
-2.61838

> <Mpro-x0769_dock>
-2.590584

> <Mpro-x0691_dock>
-2.303085

> <Mpro-x1402_dock>
-2.233912

> <Mpro-x0755_dock>
-2.120725

> <Mpro-x0771_dock>
-2.022322

> <Mpro-x1380_dock>
-1.821791

> <Mpro-x0786_dock>
-1.767755

> <Mpro-x1308_dock>
-1.760418

> <Mpro-x0689_dock>
-1.69863

> <Mpro-x1351_dock>
-1.627956

> <Mpro-x1425_dock>
-1.583279

> <Mpro-x0540_dock>
-1.2866

> <Mpro-x0981_dock>
-1.17551

> <Mpro-x0731_dock>
-0.948583

> <Mpro-x0426_dock>
-0.305978

> <Mpro-x0705_dock>
-0.03145

> <Mpro-x0978_dock>
-0.021785

> <Mpro-x0887_dock>
0.014361

> <site>
active-noncovalent

$$$$
MIC-IOC-304-2
  -OEChem-04022003013D

 41 43  0     0  0  0  0  0  0999 V2000
   12.2089   -2.1053   22.4652 C   0  0  0  0  0  0  0  0  0  0  0  0
    6.0783    0.1411   22.0057 C   0  0  0  0  0  0  0  0  0  0  0  0
    7.2069   -0.6287   22.3077 C   0  0  0  0  0  0  0  0  0  0  0  0
   13.5236   -1.6410   22.5043 C   0  0  0  0  0  0  0  0  0  0  0  0
    7.8426   -0.6028   19.9955 C   0  0  0  0  0  0  0  0  0  0  0  0
   12.7763    0.3838   23.5901 C   0  0  0  0  0  0  0  0  0  0  0  0
    6.7053    0.1619   19.6764 C   0  0  0  0  0  0  0  0  0  0  0  0
   11.1778   -1.3250   22.9885 C   0  0  0  0  0  0  0  0  0  0  0  0
    5.7933    0.5431   20.6884 C   0  0  0  0  0  0  0  0  0  0  0  0
    8.0873   -1.0041   21.3034 C   0  0  0  0  0  0  0  0  0  0  0  0
   13.8073   -0.3965   23.0667 C   0  0  0  0  0  0  0  0  0  0  0  0
   11.4615   -0.0805   23.5509 C   0  0  0  0  0  0  0  0  0  0  0  0
    3.5853    1.5751   21.2704 C   0  0  0  0  0  0  0  0  0  0  0  0
    6.5338    0.5835   18.2403 C   0  0  0  0  0  0  0  0  0  0  0  0
    5.0980    0.9724   17.9500 C   0  0  0  0  0  0  0  0  0  0  0  0
    4.6132    1.9446   19.0108 C   0  0  0  0  0  0  0  0  0  0  0  0
    2.8417    2.8837   21.1179 C   0  0  0  0  0  0  0  0  0  0  0  0
    9.7768   -1.8613   22.9271 C   0  0  0  0  0  0  0  0  0  0  0  0
    4.6370    1.3534   20.3617 N   0  0  0  0  0  0  0  0  0  0  0  0
    9.2272   -1.7737   21.6087 N   0  0  0  0  0  0  0  0  0  0  0  0
    3.2149    0.7980   22.1528 O   0  0  0  0  0  0  0  0  0  0  0  0
   15.0701    0.0487   23.1045 F   0  0  0  0  0  0  0  0  0  0  0  0
   10.2120    0.9115   24.2095 Cl  0  0  0  0  0  0  0  0  0  0  0  0
   11.9995   -3.0765   22.0246 H   0  0  0  0  0  0  0  0  0  0  0  0
    5.4654    0.4381   22.8492 H   0  0  0  0  0  0  0  0  0  0  0  0
    7.3911   -0.9160   23.3401 H   0  0  0  0  0  0  0  0  0  0  0  0
   14.3262   -2.2492   22.0978 H   0  0  0  0  0  0  0  0  0  0  0  0
    8.5403   -0.8823   19.2079 H   0  0  0  0  0  0  0  0  0  0  0  0
   13.0150    1.3512   24.0246 H   0  0  0  0  0  0  0  0  0  0  0  0
    7.2001    1.4330   18.0454 H   0  0  0  0  0  0  0  0  0  0  0  0
    6.8240   -0.2309   17.5658 H   0  0  0  0  0  0  0  0  0  0  0  0
    5.0315    1.4317   16.9573 H   0  0  0  0  0  0  0  0  0  0  0  0
    4.4528    0.0846   17.9375 H   0  0  0  0  0  0  0  0  0  0  0  0
    5.2334    2.8491   19.0363 H   0  0  0  0  0  0  0  0  0  0  0  0
    3.5986    2.2499   18.7420 H   0  0  0  0  0  0  0  0  0  0  0  0
    2.0144    2.7385   20.4336 H   0  0  0  0  0  0  0  0  0  0  0  0
    3.5233    3.6309   20.7284 H   0  0  0  0  0  0  0  0  0  0  0  0
    2.4746    3.1931   22.0894 H   0  0  0  0  0  0  0  0  0  0  0  0
    9.7520   -2.9127   23.2336 H   0  0  0  0  0  0  0  0  0  0  0  0
    9.1149   -1.3097   23.6030 H   0  0  0  0  0  0  0  0  0  0  0  0
    9.6564   -2.2729   20.8517 H   0  0  0  0  0  0  0  0  0  0  0  0
  1  4  2  0  0  0  0
  1  8  1  0  0  0  0
  2  3  2  0  0  0  0
  2  9  1  0  0  0  0
  3 10  1  0  0  0  0
  4 11  1  0  0  0  0
  5  7  1  0  0  0  0
  5 10  2  0  0  0  0
  6 11  2  0  0  0  0
  6 12  1  0  0  0  0
  7  9  2  0  0  0  0
  7 14  1  0  0  0  0
  8 12  2  0  0  0  0
  8 18  1  0  0  0  0
  9 19  1  0  0  0  0
 10 20  1  0  0  0  0
 11 22  1  0  0  0  0
 12 23  1  0  0  0  0
 13 17  1  0  0  0  0
 13 19  1  0  0  0  0
 13 21  2  0  0  0  0
 14 15  1  0  0  0  0
 15 16  1  0  0  0  0
 16 19  1  0  0  0  0
 18 20  1  0  0  0  0
  1 24  1  0  0  0  0
  2 25  1  0  0  0  0
  3 26  1  0  0  0  0
  4 27  1  0  0  0  0
  5 28  1  0  0  0  0
  6 29  1  0  0  0  0
 14 30  1  0  0  0  0
 14 31  1  0  0  0  0
 15 32  1  0  0  0  0
 15 33  1  0  0  0  0
 16 34  1  0  0  0  0
 16 35  1  0  0  0  0
 17 36  1  0  0  0  0
 17 37  1  0  0  0  0
 17 38  1  0  0  0  0
 18 39  1  0  0  0  0
 18 40  1  0  0  0  0
 20 41  1  0  0  0  0
M  END
> <Hybrid2>
-8.597854

> <fragments>
x1093

> <Mpro-x1093_dock>
-8.597854

> <Mpro-x0749_dock>
-8.300256

> <Mpro-x0104_dock>
-8.0491

> <Mpro-x0072_dock>
-7.943784

> <Mpro-x1077_dock>
-7.743839

> <Mpro-x0195_dock>
-7.682816

> <Mpro-x0678_dock>
-7.523378

> <Mpro-x0874_dock>
-7.083654

> <Mpro-x1392_dock>
-7.060699

> <Mpro-x0946_dock>
-7.038836

> <Mpro-x0434_dock>
-6.969446

> <Mpro-x0831_dock>
-6.966758

> <Mpro-x0107_dock>
-6.822699

> <Mpro-x1334_dock>
-6.651749

> <Mpro-x0161_dock>
-6.600293

> <Mpro-x0967_dock>
-6.598189

> <Mpro-x0397_dock>
-6.136661

> <Mpro-x0395_dock>
-5.635492

> <Mpro-x0830_dock>
-5.381041

> <Mpro-x1187_dock>
-5.353316

> <Mpro-x0708_dock>
-5.155577

> <Mpro-x1386_dock>
-4.905411

> <Mpro-x1311_dock>
-4.879373

> <Mpro-x1385_dock>
-4.801344

> <Mpro-x0387_dock>
-4.697806

> <Mpro-x1249_dock>
-4.667076

> <Mpro-x0305_dock>
-4.288026

> <Mpro-x1348_dock>
-4.211751

> <Mpro-x0770_dock>
-4.035768

> <Mpro-x1412_dock>
-3.87017

> <Mpro-x0692_dock>
-3.82091

> <Mpro-x1478_dock>
-3.800006

> <Mpro-x0354_dock>
-3.665784

> <Mpro-x0736_dock>
-3.365931

> <Mpro-x0759_dock>
-3.362259

> <Mpro-x1493_dock>
-3.358836

> <Mpro-x1458_dock>
-3.215761

> <Mpro-x0774_dock>
-3.117626

> <Mpro-x1380_dock>
-3.061851

> <Mpro-x0734_dock>
-2.911302

> <Mpro-x1418_dock>
-2.672405

> <Mpro-x1382_dock>
-2.468569

> <Mpro-x0820_dock>
-2.144809

> <Mpro-x0771_dock>
-2.076187

> <Mpro-x1375_dock>
-2.043614

> <Mpro-x1358_dock>
-2.037638

> <Mpro-x1374_dock>
-1.9351

> <Mpro-x0731_dock>
-1.876979

> <Mpro-x0978_dock>
-1.721674

> <Mpro-x1384_dock>
-1.704176

> <Mpro-x0786_dock>
-1.581403

> <Mpro-x0981_dock>
-1.497657

> <Mpro-x1308_dock>
-1.321301

> <Mpro-x0752_dock>
-1.166294

> <Mpro-x0769_dock>
-1.088498

> <Mpro-x1425_dock>
-1.018246

> <Mpro-x0755_dock>
-0.859256

> <Mpro-x0540_dock>
-0.797616

> <Mpro-x0691_dock>
-0.751751

> <Mpro-x0705_dock>
-0.604441

> <Mpro-x0689_dock>
-0.425994

> <Mpro-x1402_dock>
-0.368695

> <Mpro-x0887_dock>
0.052965

> <Mpro-x0426_dock>
0.088467

> <Mpro-x1351_dock>
0.354914

> <site>
active-noncovalent

$$$$
VIJ-CYC-1a3-5
  -OEChem-04022003013D

 38 39  0     1  0  0  0  0  0999 V2000
   11.9422    1.5429   23.5106 C   0  0  0  0  0  0  0  0  0  0  0  0
   13.8169    1.9695   22.0474 C   0  0  0  0  0  0  0  0  0  0  0  0
   11.6336    2.9032   23.5118 C   0  0  0  0  0  0  0  0  0  0  0  0
   13.5082    3.3298   22.0485 C   0  0  0  0  0  0  0  0  0  0  0  0
   13.0339    1.0761   22.7784 C   0  0  0  0  0  0  0  0  0  0  0  0
   12.4165    3.7966   22.7807 C   0  0  0  0  0  0  0  0  0  0  0  0
    8.9921   -2.4962   23.2423 C   0  0  0  0  0  0  0  0  0  0  0  0
    8.3232   -2.9456   24.2817 C   0  0  0  0  0  0  0  0  0  0  0  0
   11.2745   -1.6507   23.2187 C   0  0  0  0  0  0  0  0  0  0  0  0
    8.9351   -1.7436   22.0532 C   0  0  0  0  0  0  0  0  0  0  0  0
   10.2130   -2.4690   22.5614 C   0  0  2  0  0  0  0  0  0  0  0  0
   14.6019   -0.7182   21.9333 C   0  0  0  0  0  0  0  0  0  0  0  0
   12.3897    5.9660   25.4703 C   0  0  0  0  0  0  0  0  0  0  0  0
   13.3647   -0.3782   22.7776 C   0  0  2  0  0  0  0  0  0  0  0  0
   12.2409   -1.1940   22.3496 N   0  0  0  0  0  0  0  0  0  0  0  0
   12.9318    6.0827   24.1090 N   0  0  0  0  0  0  0  0  0  0  0  0
   11.2200   -1.4473   24.4259 O   0  0  0  0  0  0  0  0  0  0  0  0
   12.5543    6.0993   21.5607 O   0  0  0  0  0  0  0  0  0  0  0  0
   10.6110    5.6323   23.0871 O   0  0  0  0  0  0  0  0  0  0  0  0
   12.0290    5.4989   22.7803 S   0  0  0  0  0  0  0  0  0  0  0  0
   11.3268    0.8543   24.0833 H   0  0  0  0  0  0  0  0  0  0  0  0
   14.6695    1.6149   21.4744 H   0  0  0  0  0  0  0  0  0  0  0  0
   10.7812    3.2564   24.0860 H   0  0  0  0  0  0  0  0  0  0  0  0
   14.1251    4.0172   21.4758 H   0  0  0  0  0  0  0  0  0  0  0  0
    8.8022   -3.5599   25.0497 H   0  0  0  0  0  0  0  0  0  0  0  0
    7.2610   -2.7234   24.4199 H   0  0  0  0  0  0  0  0  0  0  0  0
    8.4216   -2.1877   21.2120 H   0  0  0  0  0  0  0  0  0  0  0  0
    8.8562   -0.6700   22.1513 H   0  0  0  0  0  0  0  0  0  0  0  0
   10.5504   -3.3556   22.0690 H   0  0  0  0  0  0  0  0  0  0  0  0
   14.4595   -0.4029   20.8939 H   0  0  0  0  0  0  0  0  0  0  0  0
   15.4968   -0.2179   22.3202 H   0  0  0  0  0  0  0  0  0  0  0  0
   14.8089   -1.7943   21.9347 H   0  0  0  0  0  0  0  0  0  0  0  0
   11.6890    5.1192   25.5152 H   0  0  0  0  0  0  0  0  0  0  0  0
   13.2134    5.7981   26.1797 H   0  0  0  0  0  0  0  0  0  0  0  0
   11.8610    6.8936   25.7351 H   0  0  0  0  0  0  0  0  0  0  0  0
   13.5776   -0.7217   23.8053 H   0  0  0  0  0  0  0  0  0  0  0  0
   12.1648   -1.4373   21.3702 H   0  0  0  0  0  0  0  0  0  0  0  0
   13.6012    6.8465   23.9545 H   0  0  0  0  0  0  0  0  0  0  0  0
  1  3  2  0  0  0  0
  1  5  1  0  0  0  0
  2  4  1  0  0  0  0
  2  5  2  0  0  0  0
  3  6  1  0  0  0  0
  4  6  2  0  0  0  0
  5 14  1  0  0  0  0
  6 20  1  0  0  0  0
  7  8  2  0  0  0  0
  7 10  1  0  0  0  0
  7 11  1  0  0  0  0
  9 11  1  0  0  0  0
  9 15  1  0  0  0  0
  9 17  2  0  0  0  0
 10 11  1  0  0  0  0
 12 14  1  0  0  0  0
 13 16  1  0  0  0  0
 14 15  1  0  0  0  0
 16 20  1  0  0  0  0
 18 20  2  0  0  0  0
 19 20  2  0  0  0  0
  1 21  1  0  0  0  0
  2 22  1  0  0  0  0
  3 23  1  0  0  0  0
  4 24  1  0  0  0  0
  8 25  1  0  0  0  0
  8 26  1  0  0  0  0
 10 27  1  0  0  0  0
 10 28  1  0  0  0  0
 11 29  1  0  0  0  0
 12 30  1  0  0  0  0
 12 31  1  0  0  0  0
 12 32  1  0  0  0  0
 13 33  1  0  0  0  0
 13 34  1  0  0  0  0
 13 35  1  0  0  0  0
 14 36  1  0  0  0  0
 15 37  1  0  0  0  0
 16 38  1  0  0  0  0
M  END
> <Hybrid2>
-8.562788

> <fragments>
x0195

> <Mpro-x0195_dock>
-8.562788

> <Mpro-x0946_dock>
-8.15036

> <Mpro-x0678_dock>
-7.072779

> <Mpro-x0161_dock>
-6.814998

> <Mpro-x1077_dock>
-6.77494

> <Mpro-x0072_dock>
-6.424875

> <Mpro-x0749_dock>
-6.331656

> <Mpro-x1093_dock>
-6.031295

> <Mpro-x0708_dock>
-6.016182

> <Mpro-x1311_dock>
-5.835204

> <Mpro-x0434_dock>
-5.695615

> <Mpro-x0874_dock>
-5.687559

> <Mpro-x0104_dock>
-5.618979

> <Mpro-x0830_dock>
-5.362378

> <Mpro-x1348_dock>
-5.267096

> <Mpro-x1392_dock>
-5.227133

> <Mpro-x0395_dock>
-5.154912

> <Mpro-x0397_dock>
-5.085969

> <Mpro-x0387_dock>
-5.06427

> <Mpro-x0831_dock>
-5.025914

> <Mpro-x0107_dock>
-4.553264

> <Mpro-x1478_dock>
-4.361768

> <Mpro-x0692_dock>
-4.304288

> <Mpro-x0734_dock>
-4.167769

> <Mpro-x0820_dock>
-3.972878

> <Mpro-x1380_dock>
-3.594377

> <Mpro-x0736_dock>
-3.589071

> <Mpro-x1375_dock>
-3.518339

> <Mpro-x1493_dock>
-3.513907

> <Mpro-x1458_dock>
-3.363981

> <Mpro-x0967_dock>
-3.302089

> <Mpro-x0774_dock>
-3.131869

> <Mpro-x1249_dock>
-3.095274

> <Mpro-x1386_dock>
-3.05548

> <Mpro-x1187_dock>
-2.97954

> <Mpro-x1385_dock>
-2.891572

> <Mpro-x0759_dock>
-2.651749

> <Mpro-x0770_dock>
-2.601482

> <Mpro-x0354_dock>
-2.597177

> <Mpro-x1334_dock>
-2.577105

> <Mpro-x1418_dock>
-2.386406

> <Mpro-x1384_dock>
-2.348346

> <Mpro-x1382_dock>
-2.141431

> <Mpro-x1412_dock>
-2.073938

> <Mpro-x0978_dock>
-2.038319

> <Mpro-x1374_dock>
-2.010187

> <Mpro-x0305_dock>
-1.887074

> <Mpro-x0771_dock>
-1.706427

> <Mpro-x1425_dock>
-1.508381

> <Mpro-x1358_dock>
-1.433862

> <Mpro-x0689_dock>
-1.188458

> <Mpro-x0752_dock>
-1.106192

> <Mpro-x1308_dock>
-1.087172

> <Mpro-x0691_dock>
-0.948874

> <Mpro-x1351_dock>
-0.943986

> <Mpro-x0731_dock>
-0.871668

> <Mpro-x0705_dock>
-0.741857

> <Mpro-x0426_dock>
-0.525735

> <Mpro-x0769_dock>
-0.508882

> <Mpro-x0755_dock>
-0.308791

> <Mpro-x0540_dock>
-0.100144

> <Mpro-x0887_dock>
-0.080114

> <Mpro-x0981_dock>
0.113197

> <Mpro-x1402_dock>
0.22191

> <Mpro-x0786_dock>
0.366719

> <site>
active-noncovalent

$$$$
WAR-XCH-b72-11
  -OEChem-04022003013D

 51 53  0     0  0  0  0  0  0999 V2000
   10.3450   -1.5155   25.0188 C   0  0  0  0  0  0  0  0  0  0  0  0
   10.3074   -1.2405   22.6188 C   0  0  0  0  0  0  0  0  0  0  0  0
    9.4899   -2.6117   24.9066 C   0  0  0  0  0  0  0  0  0  0  0  0
    9.4523   -2.3368   22.5066 C   0  0  0  0  0  0  0  0  0  0  0  0
   10.7538   -0.8299   23.8749 C   0  0  0  0  0  0  0  0  0  0  0  0
    9.0435   -3.0224   23.6506 C   0  0  0  0  0  0  0  0  0  0  0  0
    7.8074    6.1381   23.1140 C   0  0  0  0  0  0  0  0  0  0  0  0
    8.7853    6.8183   24.0647 C   0  0  0  0  0  0  0  0  0  0  0  0
    8.2667    4.8416   22.4546 C   0  0  0  0  0  0  0  0  0  0  0  0
   10.2468    6.7601   23.6354 C   0  0  0  0  0  0  0  0  0  0  0  0
   10.8235    2.4039   24.8660 C   0  0  0  0  0  0  0  0  0  0  0  0
   11.5031    2.1550   22.4356 C   0  0  0  0  0  0  0  0  0  0  0  0
   11.5844    1.1117   25.1844 C   0  0  0  0  0  0  0  0  0  0  0  0
   12.2482    0.8747   22.8177 C   0  0  0  0  0  0  0  0  0  0  0  0
    9.0868    3.9160   23.3412 C   0  0  0  0  0  0  0  0  0  0  0  0
   10.9508    5.4879   24.0918 C   0  0  0  0  0  0  0  0  0  0  0  0
   11.4191    3.0983   23.6385 C   0  0  0  0  0  0  0  0  0  0  0  0
   11.6066    0.2635   23.9862 N   0  0  0  0  0  0  0  0  0  0  0  0
    6.4484   -3.6299   23.6200 N   0  0  0  0  0  0  0  0  0  0  0  0
   10.5547    4.2839   23.2755 N   0  3  0  0  0  0  0  0  0  0  0  0
    8.1202   -4.9566   22.1741 O   0  0  0  0  0  0  0  0  0  0  0  0
    8.1545   -5.2452   24.6768 O   0  0  0  0  0  0  0  0  0  0  0  0
    7.9726   -4.3941   23.5092 S   0  0  0  0  0  0  0  0  0  0  0  0
   10.6865   -1.2039   26.0026 H   0  0  0  0  0  0  0  0  0  0  0  0
   10.6207   -0.7140   21.7208 H   0  0  0  0  0  0  0  0  0  0  0  0
    9.1778   -3.1383   25.8045 H   0  0  0  0  0  0  0  0  0  0  0  0
    9.1106   -2.6478   21.5229 H   0  0  0  0  0  0  0  0  0  0  0  0
    6.8552    5.9511   23.6436 H   0  0  0  0  0  0  0  0  0  0  0  0
    7.5502    6.8518   22.3105 H   0  0  0  0  0  0  0  0  0  0  0  0
    8.4735    7.8624   24.2691 H   0  0  0  0  0  0  0  0  0  0  0  0
    8.7024    6.3018   25.0416 H   0  0  0  0  0  0  0  0  0  0  0  0
    7.3725    4.2980   22.1254 H   0  0  0  0  0  0  0  0  0  0  0  0
    8.8265    5.0747   21.5404 H   0  0  0  0  0  0  0  0  0  0  0  0
   10.2920    6.7864   22.5511 H   0  0  0  0  0  0  0  0  0  0  0  0
   10.7808    7.6296   24.0007 H   0  0  0  0  0  0  0  0  0  0  0  0
    9.7719    2.1846   24.7095 H   0  0  0  0  0  0  0  0  0  0  0  0
   10.8971    3.0745   25.7189 H   0  0  0  0  0  0  0  0  0  0  0  0
   12.0428    2.6528   21.6356 H   0  0  0  0  0  0  0  0  0  0  0  0
   10.5127    1.9130   22.0687 H   0  0  0  0  0  0  0  0  0  0  0  0
   12.6000    1.3723   25.4830 H   0  0  0  0  0  0  0  0  0  0  0  0
   11.1104    0.5842   26.0115 H   0  0  0  0  0  0  0  0  0  0  0  0
   12.2556    0.1721   21.9807 H   0  0  0  0  0  0  0  0  0  0  0  0
   13.2856    1.1326   23.0470 H   0  0  0  0  0  0  0  0  0  0  0  0
    8.7708    3.9213   24.3922 H   0  0  0  0  0  0  0  0  0  0  0  0
    8.9891    2.8899   22.9629 H   0  0  0  0  0  0  0  0  0  0  0  0
   12.0281    5.5932   23.9713 H   0  0  0  0  0  0  0  0  0  0  0  0
   10.7192    5.2798   25.1350 H   0  0  0  0  0  0  0  0  0  0  0  0
   12.4094    3.5056   23.8735 H   0  0  0  0  0  0  0  0  0  0  0  0
    5.8761   -3.5704   22.7689 H   0  0  0  0  0  0  0  0  0  0  0  0
    5.9018   -3.7668   24.4790 H   0  0  0  0  0  0  0  0  0  0  0  0
   10.7852    4.4840   22.3029 H   0  0  0  0  0  0  0  0  0  0  0  0
  1  3  2  0  0  0  0
  1  5  1  0  0  0  0
  2  4  1  0  0  0  0
  2  5  2  0  0  0  0
  3  6  1  0  0  0  0
  4  6  2  0  0  0  0
  5 18  1  0  0  0  0
  6 23  1  0  0  0  0
  7  8  1  0  0  0  0
  7  9  1  0  0  0  0
  8 10  1  0  0  0  0
  9 15  1  0  0  0  0
 10 16  1  0  0  0  0
 11 13  1  0  0  0  0
 11 17  1  0  0  0  0
 12 14  1  0  0  0  0
 12 17  1  0  0  0  0
 13 18  1  0  0  0  0
 14 18  1  0  0  0  0
 15 20  1  0  0  0  0
 16 20  1  0  0  0  0
 17 20  1  0  0  0  0
 19 23  1  0  0  0  0
 21 23  2  0  0  0  0
 22 23  2  0  0  0  0
  1 24  1  0  0  0  0
  2 25  1  0  0  0  0
  3 26  1  0  0  0  0
  4 27  1  0  0  0  0
  7 28  1  0  0  0  0
  7 29  1  0  0  0  0
  8 30  1  0  0  0  0
  8 31  1  0  0  0  0
  9 32  1  0  0  0  0
  9 33  1  0  0  0  0
 10 34  1  0  0  0  0
 10 35  1  0  0  0  0
 11 36  1  0  0  0  0
 11 37  1  0  0  0  0
 12 38  1  0  0  0  0
 12 39  1  0  0  0  0
 13 40  1  0  0  0  0
 13 41  1  0  0  0  0
 14 42  1  0  0  0  0
 14 43  1  0  0  0  0
 15 44  1  0  0  0  0
 15 45  1  0  0  0  0
 16 46  1  0  0  0  0
 16 47  1  0  0  0  0
 17 48  1  0  0  0  0
 19 49  1  0  0  0  0
 19 50  1  0  0  0  0
 20 51  1  0  0  0  0
M  CHG  1  20   1
M  END
> <Hybrid2>
-8.529231

> <fragments>
x0104

> <Mpro-x0104_dock>
-8.529231

> <Mpro-x0072_dock>
-8.353701

> <Mpro-x0874_dock>
-8.31611

> <Mpro-x0195_dock>
-8.051391

> <Mpro-x0946_dock>
-7.037095

> <Mpro-x1077_dock>
-6.871882

> <Mpro-x0161_dock>
-5.83661

> <Mpro-x0830_dock>
-5.741138

> <Mpro-x1311_dock>
-5.294075

> <Mpro-x1392_dock>
-5.174373

> <Mpro-x0395_dock>
-4.850949

> <Mpro-x1093_dock>
-4.805835

> <Mpro-x0749_dock>
-4.763224

> <Mpro-x1375_dock>
-4.716783

> <Mpro-x0387_dock>
-4.460347

> <Mpro-x0678_dock>
-3.932032

> <Mpro-x0354_dock>
-3.81778

> <Mpro-x1334_dock>
-3.573232

> <Mpro-x0107_dock>
-3.513204

> <Mpro-x0692_dock>
-3.447671

> <Mpro-x0305_dock>
-3.241363

> <Mpro-x1249_dock>
-3.184134

> <Mpro-x0967_dock>
-3.065883

> <Mpro-x1187_dock>
-2.970912

> <Mpro-x1385_dock>
-2.777078

> <Mpro-x0397_dock>
-2.708335

> <Mpro-x1374_dock>
-2.455258

> <Mpro-x1348_dock>
-2.305297

> <Mpro-x0736_dock>
-1.813256

> <Mpro-x0831_dock>
-1.761084

> <Mpro-x1358_dock>
-1.689243

> <Mpro-x0434_dock>
-1.484838

> <Mpro-x0708_dock>
-0.858476

> <Mpro-x0771_dock>
-0.834993

> <Mpro-x1380_dock>
-0.756195

> <Mpro-x1351_dock>
-0.741863

> <Mpro-x0540_dock>
-0.691037

> <Mpro-x0691_dock>
-0.646315

> <Mpro-x0769_dock>
-0.638624

> <Mpro-x0887_dock>
-0.609317

> <Mpro-x0734_dock>
-0.43931

> <Mpro-x1412_dock>
-0.426843

> <Mpro-x0759_dock>
-0.339769

> <Mpro-x0770_dock>
-0.331761

> <Mpro-x0752_dock>
-0.322036

> <Mpro-x0774_dock>
-0.27814

> <Mpro-x1493_dock>
-0.261007

> <Mpro-x0755_dock>
-0.238492

> <Mpro-x1418_dock>
-0.12312

> <Mpro-x1308_dock>
0.233596

> <Mpro-x0978_dock>
0.276204

> <Mpro-x1425_dock>
0.278993

> <Mpro-x1384_dock>
0.338577

> <Mpro-x0689_dock>
0.33928

> <Mpro-x1458_dock>
0.41627

> <Mpro-x1386_dock>
0.520625

> <Mpro-x1478_dock>
0.676552

> <Mpro-x0426_dock>
0.726229

> <Mpro-x0820_dock>
1.009979

> <Mpro-x0705_dock>
1.364848

> <Mpro-x0731_dock>
1.38698

> <Mpro-x1402_dock>
1.90457

> <Mpro-x0786_dock>
1.938161

> <Mpro-x0981_dock>
3.137749

> <Mpro-x1382_dock>
3.953625

> <site>
active-noncovalent

$$$$
JON-UIO-066-9
  -OEChem-04022003013D

 47 48  0     1  0  0  0  0  0999 V2000
    5.4046    1.3167   18.1125 C   0  0  0  0  0  0  0  0  0  0  0  0
    6.2807    0.2482   17.9219 C   0  0  0  0  0  0  0  0  0  0  0  0
    4.9856    1.6540   19.3995 C   0  0  0  0  0  0  0  0  0  0  0  0
    6.7378   -0.4830   19.0182 C   0  0  0  0  0  0  0  0  0  0  0  0
    5.4427    0.9228   20.4958 C   0  0  0  0  0  0  0  0  0  0  0  0
    6.3188   -0.1457   20.3052 C   0  0  0  0  0  0  0  0  0  0  0  0
   11.8736    0.5070   23.2215 C   0  0  0  0  0  0  0  0  0  0  0  0
    9.7585    1.3668   22.2684 C   0  0  0  0  0  0  0  0  0  0  0  0
    9.6208   -0.3695   24.0118 C   0  0  0  0  0  0  0  0  0  0  0  0
    8.7896    0.5898   21.3891 C   0  0  0  0  0  0  0  0  0  0  0  0
    8.6477   -1.1722   23.1590 C   0  0  0  0  0  0  0  0  0  0  0  0
    4.9816    1.3028   21.8647 C   0  0  0  0  0  0  0  0  0  0  0  0
   14.6303   -2.1707   23.2931 C   0  0  0  0  0  0  0  0  0  0  0  0
   13.8284   -0.7999   21.3615 C   0  0  0  0  0  0  0  0  0  0  0  0
    6.8233   -0.9473   21.4688 C   0  0  0  0  0  0  0  0  0  0  0  0
   12.5697   -0.7853   23.5666 C   0  0  2  0  0  0  0  0  0  0  0  0
   13.9359   -0.8690   22.8873 C   0  0  0  0  0  0  0  0  0  0  0  0
   10.4807    0.4721   23.1729 N   0  0  0  0  0  0  0  0  0  0  0  0
    7.8709   -0.2268   22.2702 N   0  3  0  0  0  0  0  0  0  0  0  0
   12.5491    1.5151   22.9995 O   0  0  0  0  0  0  0  0  0  0  0  0
   11.8018   -1.8397   23.2009 F   0  0  0  0  0  0  0  0  0  0  0  0
    5.0484    1.8852   17.2586 H   0  0  0  0  0  0  0  0  0  0  0  0
    6.6063   -0.0141   16.9194 H   0  0  0  0  0  0  0  0  0  0  0  0
    4.3015    2.4873   19.5372 H   0  0  0  0  0  0  0  0  0  0  0  0
    7.4207   -1.3136   18.8595 H   0  0  0  0  0  0  0  0  0  0  0  0
   10.4559    1.9268   21.6375 H   0  0  0  0  0  0  0  0  0  0  0  0
    9.2219    2.0969   22.8864 H   0  0  0  0  0  0  0  0  0  0  0  0
    9.0776    0.2973   24.6924 H   0  0  0  0  0  0  0  0  0  0  0  0
   10.2014   -1.0545   24.6320 H   0  0  0  0  0  0  0  0  0  0  0  0
    8.1621    1.2731   20.8078 H   0  0  0  0  0  0  0  0  0  0  0  0
    9.3093   -0.0994   20.7140 H   0  0  0  0  0  0  0  0  0  0  0  0
    9.1643   -1.8923   22.5145 H   0  0  0  0  0  0  0  0  0  0  0  0
    7.9226   -1.6959   23.7904 H   0  0  0  0  0  0  0  0  0  0  0  0
    4.0639    0.7606   22.1205 H   0  0  0  0  0  0  0  0  0  0  0  0
    5.7451    1.0729   22.6181 H   0  0  0  0  0  0  0  0  0  0  0  0
    4.7818    2.3794   21.9308 H   0  0  0  0  0  0  0  0  0  0  0  0
   14.0419   -3.0391   22.9784 H   0  0  0  0  0  0  0  0  0  0  0  0
   15.6238   -2.2517   22.8393 H   0  0  0  0  0  0  0  0  0  0  0  0
   14.7489   -2.2260   24.3804 H   0  0  0  0  0  0  0  0  0  0  0  0
   13.2137   -1.6165   20.9697 H   0  0  0  0  0  0  0  0  0  0  0  0
   14.8144   -0.8597   20.8883 H   0  0  0  0  0  0  0  0  0  0  0  0
   13.3619    0.1405   21.0489 H   0  0  0  0  0  0  0  0  0  0  0  0
    6.0116   -1.1936   22.1617 H   0  0  0  0  0  0  0  0  0  0  0  0
    7.2743   -1.8881   21.1352 H   0  0  0  0  0  0  0  0  0  0  0  0
   12.6724   -0.7991   24.6525 H   0  0  0  0  0  0  0  0  0  0  0  0
   14.5602   -0.0306   23.2225 H   0  0  0  0  0  0  0  0  0  0  0  0
    7.3694    0.4297   22.8844 H   0  0  0  0  0  0  0  0  0  0  0  0
  1  2  1  0  0  0  0
  1  3  2  0  0  0  0
  2  4  2  0  0  0  0
  3  5  1  0  0  0  0
  4  6  1  0  0  0  0
  5  6  2  0  0  0  0
  5 12  1  0  0  0  0
  6 15  1  0  0  0  0
  7 16  1  0  0  0  0
  7 18  1  0  0  0  0
  7 20  2  0  0  0  0
  8 10  1  0  0  0  0
  8 18  1  0  0  0  0
  9 11  1  0  0  0  0
  9 18  1  0  0  0  0
 10 19  1  0  0  0  0
 11 19  1  0  0  0  0
 13 17  1  0  0  0  0
 14 17  1  0  0  0  0
 15 19  1  0  0  0  0
 16 17  1  0  0  0  0
 16 21  1  0  0  0  0
  1 22  1  0  0  0  0
  2 23  1  0  0  0  0
  3 24  1  0  0  0  0
  4 25  1  0  0  0  0
  8 26  1  0  0  0  0
  8 27  1  0  0  0  0
  9 28  1  0  0  0  0
  9 29  1  0  0  0  0
 10 30  1  0  0  0  0
 10 31  1  0  0  0  0
 11 32  1  0  0  0  0
 11 33  1  0  0  0  0
 12 34  1  0  0  0  0
 12 35  1  0  0  0  0
 12 36  1  0  0  0  0
 13 37  1  0  0  0  0
 13 38  1  0  0  0  0
 13 39  1  0  0  0  0
 14 40  1  0  0  0  0
 14 41  1  0  0  0  0
 14 42  1  0  0  0  0
 15 43  1  0  0  0  0
 15 44  1  0  0  0  0
 16 45  1  0  0  0  0
 17 46  1  0  0  0  0
 19 47  1  0  0  0  0
M  CHG  1  19   1
M  END
> <Hybrid2>
-8.529145

> <fragments>
x1093

> <Mpro-x1093_dock>
-8.529145

> <Mpro-x0749_dock>
-8.414555

> <Mpro-x0946_dock>
-8.21668

> <Mpro-x0072_dock>
-7.862219

> <Mpro-x0104_dock>
-7.543169

> <Mpro-x0831_dock>
-7.397636

> <Mpro-x0161_dock>
-7.263208

> <Mpro-x1077_dock>
-7.23493

> <Mpro-x0678_dock>
-7.138218

> <Mpro-x0874_dock>
-7.137389

> <Mpro-x0195_dock>
-6.672492

> <Mpro-x0434_dock>
-6.438251

> <Mpro-x1392_dock>
-6.239195

> <Mpro-x1385_dock>
-6.216304

> <Mpro-x0708_dock>
-5.93907

> <Mpro-x0759_dock>
-5.908833

> <Mpro-x1334_dock>
-5.892258

> <Mpro-x1386_dock>
-5.661841

> <Mpro-x0967_dock>
-5.566697

> <Mpro-x0830_dock>
-5.564056

> <Mpro-x0395_dock>
-5.471784

> <Mpro-x1418_dock>
-5.079658

> <Mpro-x1412_dock>
-5.049382

> <Mpro-x1311_dock>
-4.970886

> <Mpro-x1249_dock>
-4.962312

> <Mpro-x0397_dock>
-4.878397

> <Mpro-x0692_dock>
-4.870996

> <Mpro-x0387_dock>
-4.751871

> <Mpro-x0354_dock>
-4.685529

> <Mpro-x1348_dock>
-4.328459

> <Mpro-x1382_dock>
-4.29218

> <Mpro-x0774_dock>
-4.180413

> <Mpro-x0107_dock>
-3.724529

> <Mpro-x0734_dock>
-3.635344

> <Mpro-x0770_dock>
-3.481213

> <Mpro-x1187_dock>
-3.412402

> <Mpro-x1375_dock>
-2.948352

> <Mpro-x1478_dock>
-2.809461

> <Mpro-x0736_dock>
-2.710132

> <Mpro-x1384_dock>
-2.600951

> <Mpro-x1380_dock>
-2.555044

> <Mpro-x0305_dock>
-2.072924

> <Mpro-x0981_dock>
-2.032028

> <Mpro-x0771_dock>
-1.992754

> <Mpro-x0540_dock>
-1.885294

> <Mpro-x1425_dock>
-1.875315

> <Mpro-x1358_dock>
-1.721095

> <Mpro-x0705_dock>
-1.64624

> <Mpro-x0786_dock>
-1.58071

> <Mpro-x1374_dock>
-1.541513

> <Mpro-x0978_dock>
-1.304181

> <Mpro-x1458_dock>
-1.295465

> <Mpro-x1351_dock>
-1.132021

> <Mpro-x0731_dock>
-1.026945

> <Mpro-x1308_dock>
-0.991229

> <Mpro-x0752_dock>
-0.965384

> <Mpro-x0691_dock>
-0.893871

> <Mpro-x1493_dock>
-0.890227

> <Mpro-x0820_dock>
-0.783962

> <Mpro-x0769_dock>
-0.675928

> <Mpro-x0755_dock>
-0.510006

> <Mpro-x0689_dock>
-0.393542

> <Mpro-x1402_dock>
-0.098989

> <Mpro-x0887_dock>
0.135165

> <Mpro-x0426_dock>
0.858974

> <site>
active-noncovalent

$$$$
CHR-SOS-709-5
  -OEChem-04022003013D

 29 30  0     0  0  0  0  0  0999 V2000
   13.0404    0.2352   24.2976 C   0  0  0  0  0  0  0  0  0  0  0  0
   13.6664   -0.7865   23.5835 C   0  0  0  0  0  0  0  0  0  0  0  0
   11.7245    0.5893   23.9996 C   0  0  0  0  0  0  0  0  0  0  0  0
    7.2579    1.4952   21.2457 C   0  0  0  0  0  0  0  0  0  0  0  0
    7.5587   -0.3212   19.6814 C   0  0  0  0  0  0  0  0  0  0  0  0
    6.0317    1.8007   20.6553 C   0  0  0  0  0  0  0  0  0  0  0  0
    6.3324   -0.0159   19.0910 C   0  0  0  0  0  0  0  0  0  0  0  0
   12.9766   -1.4540   22.5714 C   0  0  0  0  0  0  0  0  0  0  0  0
   11.0347   -0.0781   22.9875 C   0  0  0  0  0  0  0  0  0  0  0  0
    8.0215    0.4343   20.7587 C   0  0  0  0  0  0  0  0  0  0  0  0
    5.5689    1.0451   19.5779 C   0  0  0  0  0  0  0  0  0  0  0  0
   11.6608   -1.0998   22.2734 C   0  0  0  0  0  0  0  0  0  0  0  0
    9.6618    0.3074   22.6924 C   0  0  0  0  0  0  0  0  0  0  0  0
    9.2679    0.1240   21.3587 N   0  0  0  0  0  0  0  0  0  0  0  0
    4.3205    1.3559   18.9770 N   0  0  0  0  0  0  0  0  0  0  0  0
    8.9230    0.7923   23.5592 O   0  0  0  0  0  0  0  0  0  0  0  0
    3.6492    2.3143   19.4304 O   0  0  0  0  0  0  0  0  0  0  0  0
    3.9227    0.6640   18.0087 O   0  0  0  0  0  0  0  0  0  0  0  0
   11.0028   -1.7650   21.2823 O   0  0  0  0  0  0  0  0  0  0  0  0
   13.5779    0.7548   25.0857 H   0  0  0  0  0  0  0  0  0  0  0  0
   14.6911   -1.0614   23.8157 H   0  0  0  0  0  0  0  0  0  0  0  0
   11.2466    1.3868   24.5629 H   0  0  0  0  0  0  0  0  0  0  0  0
    7.6087    2.0908   22.0847 H   0  0  0  0  0  0  0  0  0  0  0  0
    8.1454   -1.1502   19.2937 H   0  0  0  0  0  0  0  0  0  0  0  0
    5.4465    2.6302   21.0446 H   0  0  0  0  0  0  0  0  0  0  0  0
    5.9834   -0.6128   18.2519 H   0  0  0  0  0  0  0  0  0  0  0  0
   13.4701   -2.2491   22.0191 H   0  0  0  0  0  0  0  0  0  0  0  0
    9.9666   -0.2844   20.7428 H   0  0  0  0  0  0  0  0  0  0  0  0
   11.5795   -2.4405   20.8928 H   0  0  0  0  0  0  0  0  0  0  0  0
  1  2  1  0  0  0  0
  1  3  2  0  0  0  0
  2  8  2  0  0  0  0
  3  9  1  0  0  0  0
  4  6  2  0  0  0  0
  4 10  1  0  0  0  0
  5  7  1  0  0  0  0
  5 10  2  0  0  0  0
  6 11  1  0  0  0  0
  7 11  2  0  0  0  0
  8 12  1  0  0  0  0
  9 12  2  0  0  0  0
  9 13  1  0  0  0  0
 10 14  1  0  0  0  0
 11 15  1  0  0  0  0
 12 19  1  0  0  0  0
 13 14  1  0  0  0  0
 13 16  2  0  0  0  0
 15 17  2  0  0  0  0
 15 18  2  0  0  0  0
  1 20  1  0  0  0  0
  2 21  1  0  0  0  0
  3 22  1  0  0  0  0
  4 23  1  0  0  0  0
  5 24  1  0  0  0  0
  6 25  1  0  0  0  0
  7 26  1  0  0  0  0
  8 27  1  0  0  0  0
 14 28  1  0  0  0  0
 19 29  1  0  0  0  0
M  END
> <Hybrid2>
-8.473451

> <fragments>
x1093

> <Mpro-x1093_dock>
-8.473451

> <Mpro-x0678_dock>
-8.030981

> <Mpro-x0749_dock>
-7.62396

> <Mpro-x0161_dock>
-7.22956

> <Mpro-x0072_dock>
-7.226132

> <Mpro-x0195_dock>
-7.180229

> <Mpro-x0104_dock>
-7.169662

> <Mpro-x0107_dock>
-6.33361

> <Mpro-x0395_dock>
-6.279776

> <Mpro-x0967_dock>
-6.005198

> <Mpro-x1385_dock>
-5.954879

> <Mpro-x0874_dock>
-5.927259

> <Mpro-x1334_dock>
-5.562542

> <Mpro-x0397_dock>
-5.516203

> <Mpro-x0946_dock>
-5.514538

> <Mpro-x1392_dock>
-5.411499

> <Mpro-x0830_dock>
-5.297036

> <Mpro-x0434_dock>
-5.135202

> <Mpro-x0770_dock>
-4.892979

> <Mpro-x1187_dock>
-4.855234

> <Mpro-x0305_dock>
-4.837795

> <Mpro-x0387_dock>
-4.83291

> <Mpro-x0759_dock>
-4.825868

> <Mpro-x1412_dock>
-4.743006

> <Mpro-x1348_dock>
-4.665234

> <Mpro-x1311_dock>
-4.592201

> <Mpro-x1077_dock>
-4.542573

> <Mpro-x1375_dock>
-4.523004

> <Mpro-x0692_dock>
-4.411862

> <Mpro-x0354_dock>
-4.255455

> <Mpro-x1418_dock>
-3.781232

> <Mpro-x1249_dock>
-3.696713

> <Mpro-x1386_dock>
-3.682611

> <Mpro-x0774_dock>
-3.660903

> <Mpro-x0978_dock>
-3.64651

> <Mpro-x0708_dock>
-3.630147

> <Mpro-x1374_dock>
-3.4358

> <Mpro-x0831_dock>
-3.127088

> <Mpro-x1478_dock>
-3.125656

> <Mpro-x0786_dock>
-2.476476

> <Mpro-x1351_dock>
-2.246671

> <Mpro-x1380_dock>
-2.177029

> <Mpro-x0981_dock>
-2.148691

> <Mpro-x0540_dock>
-1.96722

> <Mpro-x0820_dock>
-1.737424

> <Mpro-x0426_dock>
-1.722088

> <Mpro-x1358_dock>
-1.492682

> <Mpro-x0736_dock>
-1.298835

> <Mpro-x0705_dock>
-1.272559

> <Mpro-x0771_dock>
-1.256819

> <Mpro-x0734_dock>
-1.198898

> <Mpro-x0731_dock>
-1.079855

> <Mpro-x1493_dock>
-1.078438

> <Mpro-x1382_dock>
-1.066828

> <Mpro-x1308_dock>
-0.882897

> <Mpro-x1384_dock>
-0.585519

> <Mpro-x0691_dock>
-0.579491

> <Mpro-x0769_dock>
-0.466184

> <Mpro-x0752_dock>
-0.457669

> <Mpro-x1458_dock>
-0.457347

> <Mpro-x0755_dock>
-0.371155

> <Mpro-x1425_dock>
-0.367727

> <Mpro-x0689_dock>
-0.132221

> <Mpro-x0887_dock>
0.086736

> <Mpro-x1402_dock>
0.100067

> <site>
active-noncovalent

$$$$
WAR-XCH-b72-23
  -OEChem-04022003013D

 39 40  0     0  0  0  0  0  0999 V2000
   10.3143   -2.7363   23.6316 C   0  0  0  0  0  0  0  0  0  0  0  0
   10.7899   -4.3086   25.4032 C   0  0  0  0  0  0  0  0  0  0  0  0
   11.5398   -2.1101   23.8583 C   0  0  0  0  0  0  0  0  0  0  0  0
   12.0155   -3.6824   25.6299 C   0  0  0  0  0  0  0  0  0  0  0  0
    9.9393   -3.8356   24.4041 C   0  0  0  0  0  0  0  0  0  0  0  0
   12.3904   -2.5831   24.8575 C   0  0  0  0  0  0  0  0  0  0  0  0
    7.3542   -4.0458   22.1895 C   0  0  0  0  0  0  0  0  0  0  0  0
    8.4594   -6.2903   22.5821 C   0  0  0  0  0  0  0  0  0  0  0  0
    7.5507   -3.7330   23.6738 C   0  0  0  0  0  0  0  0  0  0  0  0
    8.6323   -5.9192   24.0597 C   0  0  0  0  0  0  0  0  0  0  0  0
    7.2807   -5.5591   21.9139 C   0  0  0  0  0  0  0  0  0  0  0  0
    4.5435   -6.4609   24.2138 C   0  0  0  0  0  0  0  0  0  0  0  0
    5.9352   -6.1481   22.3460 C   0  0  0  0  0  0  0  0  0  0  0  0
    8.7175   -4.4602   24.1785 N   0  0  0  0  0  0  0  0  0  0  0  0
   14.9406   -2.6798   24.0879 N   0  0  0  0  0  0  0  0  0  0  0  0
   13.8334   -0.4254   24.6688 O   0  0  0  0  0  0  0  0  0  0  0  0
   14.3321   -2.0659   26.5148 O   0  0  0  0  0  0  0  0  0  0  0  0
    5.7781   -5.9372   23.7369 O   0  0  0  0  0  0  0  0  0  0  0  0
   13.9244   -1.7995   25.1424 S   0  0  0  0  0  0  0  0  0  0  0  0
    9.6590   -2.3592   22.8506 H   0  0  0  0  0  0  0  0  0  0  0  0
   10.5079   -5.1652   26.0104 H   0  0  0  0  0  0  0  0  0  0  0  0
   11.8215   -1.2544   23.2506 H   0  0  0  0  0  0  0  0  0  0  0  0
   12.6703   -4.0593   26.4112 H   0  0  0  0  0  0  0  0  0  0  0  0
    6.4358   -3.5559   21.8336 H   0  0  0  0  0  0  0  0  0  0  0  0
    8.1821   -3.6059   21.6162 H   0  0  0  0  0  0  0  0  0  0  0  0
    9.3922   -6.0587   22.0437 H   0  0  0  0  0  0  0  0  0  0  0  0
    8.3217   -7.3813   22.4970 H   0  0  0  0  0  0  0  0  0  0  0  0
    7.6915   -2.6572   23.8111 H   0  0  0  0  0  0  0  0  0  0  0  0
    6.6498   -4.0305   24.2170 H   0  0  0  0  0  0  0  0  0  0  0  0
    7.7759   -6.2999   24.6172 H   0  0  0  0  0  0  0  0  0  0  0  0
    9.5375   -6.3823   24.4547 H   0  0  0  0  0  0  0  0  0  0  0  0
    7.3667   -5.7095   20.8129 H   0  0  0  0  0  0  0  0  0  0  0  0
    4.4603   -6.2788   25.2880 H   0  0  0  0  0  0  0  0  0  0  0  0
    4.4991   -7.5339   24.0107 H   0  0  0  0  0  0  0  0  0  0  0  0
    3.7216   -5.9600   23.6968 H   0  0  0  0  0  0  0  0  0  0  0  0
    5.9146   -7.2176   22.1384 H   0  0  0  0  0  0  0  0  0  0  0  0
    5.1246   -5.6531   21.8119 H   0  0  0  0  0  0  0  0  0  0  0  0
   15.2815   -2.2078   23.2415 H   0  0  0  0  0  0  0  0  0  0  0  0
   15.6198   -3.3289   24.5034 H   0  0  0  0  0  0  0  0  0  0  0  0
  1  3  2  0  0  0  0
  1  5  1  0  0  0  0
  2  4  1  0  0  0  0
  2  5  2  0  0  0  0
  3  6  1  0  0  0  0
  4  6  2  0  0  0  0
  5 14  1  0  0  0  0
  6 19  1  0  0  0  0
  7  9  1  0  0  0  0
  7 11  1  0  0  0  0
  8 10  1  0  0  0  0
  8 11  1  0  0  0  0
  9 14  1  0  0  0  0
 10 14  1  0  0  0  0
 11 13  1  0  0  0  0
 12 18  1  0  0  0  0
 13 18  1  0  0  0  0
 15 19  1  0  0  0  0
 16 19  2  0  0  0  0
 17 19  2  0  0  0  0
  1 20  1  0  0  0  0
  2 21  1  0  0  0  0
  3 22  1  0  0  0  0
  4 23  1  0  0  0  0
  7 24  1  0  0  0  0
  7 25  1  0  0  0  0
  8 26  1  0  0  0  0
  8 27  1  0  0  0  0
  9 28  1  0  0  0  0
  9 29  1  0  0  0  0
 10 30  1  0  0  0  0
 10 31  1  0  0  0  0
 11 32  1  0  0  0  0
 12 33  1  0  0  0  0
 12 34  1  0  0  0  0
 12 35  1  0  0  0  0
 13 36  1  0  0  0  0
 13 37  1  0  0  0  0
 15 38  1  0  0  0  0
 15 39  1  0  0  0  0
M  END
> <Hybrid2>
-8.468962

> <fragments>
x0749

> <Mpro-x0749_dock>
-8.468962

> <Mpro-x0161_dock>
-8.294393

> <Mpro-x0195_dock>
-7.7815

> <Mpro-x1077_dock>
-7.392888

> <Mpro-x0678_dock>
-7.323726

> <Mpro-x0072_dock>
-6.765018

> <Mpro-x0946_dock>
-6.708557

> <Mpro-x0830_dock>
-6.707324

> <Mpro-x0831_dock>
-6.443858

> <Mpro-x0692_dock>
-6.418587

> <Mpro-x0395_dock>
-6.216175

> <Mpro-x0104_dock>
-5.960688

> <Mpro-x1093_dock>
-5.851641

> <Mpro-x0874_dock>
-5.603236

> <Mpro-x1386_dock>
-5.385299

> <Mpro-x1311_dock>
-5.384069

> <Mpro-x0708_dock>
-5.362943

> <Mpro-x0397_dock>
-5.313821

> <Mpro-x1385_dock>
-5.185875

> <Mpro-x1392_dock>
-5.086017

> <Mpro-x0967_dock>
-5.077958

> <Mpro-x0759_dock>
-4.797343

> <Mpro-x0434_dock>
-4.688326

> <Mpro-x0770_dock>
-4.658085

> <Mpro-x0387_dock>
-4.42539

> <Mpro-x0107_dock>
-4.414824

> <Mpro-x1412_dock>
-4.085676

> <Mpro-x1418_dock>
-4.063401

> <Mpro-x1187_dock>
-3.997866

> <Mpro-x0305_dock>
-3.844456

> <Mpro-x1249_dock>
-3.806365

> <Mpro-x1334_dock>
-3.754702

> <Mpro-x0354_dock>
-2.998296

> <Mpro-x1380_dock>
-2.92737

> <Mpro-x1375_dock>
-2.734936

> <Mpro-x0736_dock>
-2.716897

> <Mpro-x0774_dock>
-2.673778

> <Mpro-x1348_dock>
-2.527832

> <Mpro-x1478_dock>
-2.265591

> <Mpro-x1358_dock>
-2.245951

> <Mpro-x1374_dock>
-2.188451

> <Mpro-x1382_dock>
-2.069878

> <Mpro-x0771_dock>
-1.990742

> <Mpro-x0426_dock>
-1.832258

> <Mpro-x1493_dock>
-1.764649

> <Mpro-x1384_dock>
-1.567318

> <Mpro-x1458_dock>
-1.497056

> <Mpro-x1351_dock>
-1.479414

> <Mpro-x0691_dock>
-1.429598

> <Mpro-x0540_dock>
-1.389534

> <Mpro-x0734_dock>
-1.131071

> <Mpro-x0820_dock>
-1.119155

> <Mpro-x0705_dock>
-1.056887

> <Mpro-x1308_dock>
-0.910183

> <Mpro-x0786_dock>
-0.880087

> <Mpro-x0689_dock>
-0.797738

> <Mpro-x0752_dock>
-0.787032

> <Mpro-x1425_dock>
-0.67044

> <Mpro-x0978_dock>
-0.41039

> <Mpro-x0887_dock>
-0.197766

> <Mpro-x0769_dock>
-0.186032

> <Mpro-x0755_dock>
0.07532

> <Mpro-x1402_dock>
0.289509

> <Mpro-x0731_dock>
0.760584

> <Mpro-x0981_dock>
2.068261

> <site>
active-covalent

$$$$
GIA-UNK-d2d-2
  -OEChem-04022003013D

 45 47  0     1  0  0  0  0  0999 V2000
   10.4338    5.6686   23.6549 C   0  0  0  0  0  0  0  0  0  0  0  0
   11.5958    4.8989   23.7089 C   0  0  0  0  0  0  0  0  0  0  0  0
    9.1855    5.0554   23.7616 C   0  0  0  0  0  0  0  0  0  0  0  0
   11.5095    3.5160   23.8695 C   0  0  0  0  0  0  0  0  0  0  0  0
    9.0991    3.6725   23.9221 C   0  0  0  0  0  0  0  0  0  0  0  0
    5.8965    0.2741   19.8938 C   0  0  0  0  0  0  0  0  0  0  0  0
    8.2257   -0.2280   20.2214 C   0  0  0  0  0  0  0  0  0  0  0  0
    6.1444    0.2771   18.5306 C   0  0  0  0  0  0  0  0  0  0  0  0
    8.3692   -0.2027   18.8435 C   0  0  0  0  0  0  0  0  0  0  0  0
   10.2611    2.9028   23.9761 C   0  0  0  0  0  0  0  0  0  0  0  0
    6.9623    0.0158   20.7485 C   0  0  0  0  0  0  0  0  0  0  0  0
   10.1693    1.4298   24.1470 C   0  0  0  0  0  0  0  0  0  0  0  0
    6.7520    0.0001   22.2191 C   0  0  0  0  0  0  0  0  0  0  0  0
    8.4715   -2.1350   26.9136 C   0  0  0  0  0  0  0  0  0  0  0  0
    7.1861   -2.6074   26.2444 C   0  0  0  0  0  0  0  0  0  0  0  0
    8.7703   -0.6774   26.5795 C   0  0  0  0  0  0  0  0  0  0  0  0
    7.2311   -2.3881   24.7361 C   0  0  0  0  0  0  0  0  0  0  0  0
    8.8185   -0.4333   25.0670 C   0  0  1  0  0  0  0  0  0  0  0  0
    7.5351   -0.9302   24.3778 C   0  0  1  0  0  0  0  0  0  0  0  0
    7.3576    0.0445   17.9814 N   0  0  0  0  0  0  0  0  0  0  0  0
    9.0405    0.9718   24.8022 N   0  0  0  0  0  0  0  0  0  0  0  0
    7.6266   -0.7917   22.9410 N   0  0  0  0  0  0  0  0  0  0  0  0
   11.0802    0.7194   23.7299 O   0  0  0  0  0  0  0  0  0  0  0  0
    5.8298    0.6532   22.7003 O   0  0  0  0  0  0  0  0  0  0  0  0
   10.5011    6.7453   23.5299 H   0  0  0  0  0  0  0  0  0  0  0  0
   12.5677    5.3764   23.6257 H   0  0  0  0  0  0  0  0  0  0  0  0
    8.2807    5.6548   23.7199 H   0  0  0  0  0  0  0  0  0  0  0  0
   12.4214    2.9257   23.9103 H   0  0  0  0  0  0  0  0  0  0  0  0
    8.1210    3.2054   24.0040 H   0  0  0  0  0  0  0  0  0  0  0  0
    4.8979    0.4670   20.2715 H   0  0  0  0  0  0  0  0  0  0  0  0
    9.0781   -0.4334   20.8601 H   0  0  0  0  0  0  0  0  0  0  0  0
    5.3468    0.4721   17.8216 H   0  0  0  0  0  0  0  0  0  0  0  0
    9.3339   -0.3862   18.3824 H   0  0  0  0  0  0  0  0  0  0  0  0
    8.3858   -2.2576   27.9992 H   0  0  0  0  0  0  0  0  0  0  0  0
    9.3065   -2.7648   26.5882 H   0  0  0  0  0  0  0  0  0  0  0  0
    7.0291   -3.6701   26.4614 H   0  0  0  0  0  0  0  0  0  0  0  0
    6.3329   -2.0675   26.6686 H   0  0  0  0  0  0  0  0  0  0  0  0
    8.0246   -0.0278   27.0490 H   0  0  0  0  0  0  0  0  0  0  0  0
    9.7367   -0.4033   27.0166 H   0  0  0  0  0  0  0  0  0  0  0  0
    7.9713   -3.0561   24.2852 H   0  0  0  0  0  0  0  0  0  0  0  0
    6.2625   -2.6664   24.3076 H   0  0  0  0  0  0  0  0  0  0  0  0
    9.6924   -0.9471   24.6496 H   0  0  0  0  0  0  0  0  0  0  0  0
    6.6832   -0.3051   24.6733 H   0  0  0  0  0  0  0  0  0  0  0  0
    8.3583    1.6202   25.1757 H   0  0  0  0  0  0  0  0  0  0  0  0
    8.3260   -1.3537   22.4718 H   0  0  0  0  0  0  0  0  0  0  0  0
  1  2  1  0  0  0  0
  1  3  2  0  0  0  0
  2  4  2  0  0  0  0
  3  5  1  0  0  0  0
  4 10  1  0  0  0  0
  5 10  2  0  0  0  0
  6  8  2  0  0  0  0
  6 11  1  0  0  0  0
  7  9  1  0  0  0  0
  7 11  2  0  0  0  0
  8 20  1  0  0  0  0
  9 20  2  0  0  0  0
 10 12  1  0  0  0  0
 11 13  1  0  0  0  0
 12 21  1  0  0  0  0
 12 23  2  0  0  0  0
 13 22  1  0  0  0  0
 13 24  2  0  0  0  0
 14 15  1  0  0  0  0
 14 16  1  0  0  0  0
 15 17  1  0  0  0  0
 16 18  1  0  0  0  0
 17 19  1  0  0  0  0
 18 19  1  0  0  0  0
 18 21  1  0  0  0  0
 19 22  1  0  0  0  0
  1 25  1  0  0  0  0
  2 26  1  0  0  0  0
  3 27  1  0  0  0  0
  4 28  1  0  0  0  0
  5 29  1  0  0  0  0
  6 30  1  0  0  0  0
  7 31  1  0  0  0  0
  8 32  1  0  0  0  0
  9 33  1  0  0  0  0
 14 34  1  0  0  0  0
 14 35  1  0  0  0  0
 15 36  1  0  0  0  0
 15 37  1  0  0  0  0
 16 38  1  0  0  0  0
 16 39  1  0  0  0  0
 17 40  1  0  0  0  0
 17 41  1  0  0  0  0
 18 42  1  0  0  0  0
 19 43  1  0  0  0  0
 21 44  1  0  0  0  0
 22 45  1  0  0  0  0
M  END
> <Hybrid2>
-8.447964

> <fragments>
x0107

> <Mpro-x0107_dock>
-8.447964

> <Mpro-x0678_dock>
-7.45767

> <Mpro-x0195_dock>
-6.949962

> <Mpro-x0831_dock>
-6.923767

> <Mpro-x1418_dock>
-6.605606

> <Mpro-x1386_dock>
-6.598416

> <Mpro-x0434_dock>
-6.523699

> <Mpro-x0708_dock>
-6.50702

> <Mpro-x0967_dock>
-6.463232

> <Mpro-x0692_dock>
-6.342635

> <Mpro-x0830_dock>
-6.231342

> <Mpro-x0161_dock>
-6.104573

> <Mpro-x0770_dock>
-6.018758

> <Mpro-x0759_dock>
-6.000889

> <Mpro-x1392_dock>
-5.743954

> <Mpro-x0395_dock>
-5.565545

> <Mpro-x0874_dock>
-5.447129

> <Mpro-x0749_dock>
-4.924148

> <Mpro-x0305_dock>
-4.891338

> <Mpro-x0946_dock>
-4.87281

> <Mpro-x0736_dock>
-4.84222

> <Mpro-x1077_dock>
-4.812699

> <Mpro-x0426_dock>
-4.647375

> <Mpro-x0387_dock>
-4.603311

> <Mpro-x0072_dock>
-4.554741

> <Mpro-x0397_dock>
-4.00496

> <Mpro-x0540_dock>
-3.924819

> <Mpro-x0104_dock>
-3.50973

> <Mpro-x0981_dock>
-3.420691

> <Mpro-x1458_dock>
-3.300851

> <Mpro-x1382_dock>
-3.064548

> <Mpro-x1093_dock>
-2.967517

> <Mpro-x1334_dock>
-2.480351

> <Mpro-x1187_dock>
-2.333881

> <Mpro-x1358_dock>
-2.161722

> <Mpro-x0734_dock>
-2.017321

> <Mpro-x1384_dock>
-1.988742

> <Mpro-x1478_dock>
-1.850393

> <Mpro-x0774_dock>
-1.7658

> <Mpro-x1348_dock>
-1.703283

> <Mpro-x1374_dock>
-1.666713

> <Mpro-x1385_dock>
-1.520953

> <Mpro-x0731_dock>
-1.227648

> <Mpro-x0354_dock>
-1.123376

> <Mpro-x1249_dock>
-0.865182

> <Mpro-x0769_dock>
-0.788377

> <Mpro-x1380_dock>
-0.466293

> <Mpro-x0820_dock>
-0.43028

> <Mpro-x1402_dock>
-0.344545

> <Mpro-x1351_dock>
-0.28279

> <Mpro-x0691_dock>
-0.26545

> <Mpro-x0786_dock>
-0.260807

> <Mpro-x1308_dock>
-0.204799

> <Mpro-x1412_dock>
-0.072615

> <Mpro-x0752_dock>
0.030522

> <Mpro-x0771_dock>
0.031319

> <Mpro-x1311_dock>
0.373908

> <Mpro-x1375_dock>
0.49394

> <Mpro-x0755_dock>
0.571303

> <Mpro-x0689_dock>
0.789877

> <Mpro-x0887_dock>
0.992854

> <Mpro-x1425_dock>
1.009857

> <Mpro-x0705_dock>
1.628836

> <Mpro-x0978_dock>
1.708763

> <Mpro-x1493_dock>
2.090658

> <site>
active-noncovalent

$$$$
GIA-UNK-30c-2
  -OEChem-04022003013D

 42 44  0     0  0  0  0  0  0999 V2000
   12.0243   -2.0986   22.9321 C   0  0  0  0  0  0  0  0  0  0  0  0
   11.8667   -0.0532   24.1949 C   0  0  0  0  0  0  0  0  0  0  0  0
   13.4064   -1.9832   22.9759 C   0  0  0  0  0  0  0  0  0  0  0  0
   13.2528    0.0104   24.2069 C   0  0  0  0  0  0  0  0  0  0  0  0
   11.2501   -1.1210   23.5495 C   0  0  0  0  0  0  0  0  0  0  0  0
    7.8866   -3.5120   25.3804 C   0  0  0  0  0  0  0  0  0  0  0  0
    8.3399   -3.0286   22.9690 C   0  0  0  0  0  0  0  0  0  0  0  0
    7.6120   -1.1810   24.5816 C   0  0  0  0  0  0  0  0  0  0  0  0
    9.1284   -1.8389   22.4238 C   0  0  0  0  0  0  0  0  0  0  0  0
    9.0666   -0.6960   24.6418 C   0  0  0  0  0  0  0  0  0  0  0  0
    7.0020   -5.2980   26.8463 C   0  0  0  0  0  0  0  0  0  0  0  0
    6.8056   -5.5996   24.4125 C   0  0  0  0  0  0  0  0  0  0  0  0
    5.5739   -5.8082   26.9755 C   0  0  0  0  0  0  0  0  0  0  0  0
    5.3863   -6.1027   24.6439 C   0  0  0  0  0  0  0  0  0  0  0  0
    7.4953   -2.6605   24.1992 C   0  0  0  0  0  0  0  0  0  0  0  0
   13.9741   -0.9447   23.6043 N   0  3  0  0  0  0  0  0  0  0  0  0
    9.8615   -1.2096   23.5195 N   0  0  0  0  0  0  0  0  0  0  0  0
    7.2217   -4.7287   25.5168 N   0  0  0  0  0  0  0  0  0  0  0  0
    8.7531   -3.1059   26.1588 O   0  0  0  0  0  0  0  0  0  0  0  0
    5.2826   -6.7323   25.9237 O   0  0  0  0  0  0  0  0  0  0  0  0
   11.5657   -2.9401   22.4219 H   0  0  0  0  0  0  0  0  0  0  0  0
   11.2836    0.7221   24.6822 H   0  0  0  0  0  0  0  0  0  0  0  0
   14.0849   -2.6927   22.5233 H   0  0  0  0  0  0  0  0  0  0  0  0
   13.8159    0.8011   24.6834 H   0  0  0  0  0  0  0  0  0  0  0  0
    7.6680   -3.3942   22.1890 H   0  0  0  0  0  0  0  0  0  0  0  0
    9.0291   -3.8391   23.2109 H   0  0  0  0  0  0  0  0  0  0  0  0
    7.1353   -0.9993   25.5501 H   0  0  0  0  0  0  0  0  0  0  0  0
    7.0703   -0.5829   23.8405 H   0  0  0  0  0  0  0  0  0  0  0  0
    9.8225   -2.1719   21.6501 H   0  0  0  0  0  0  0  0  0  0  0  0
    8.4289   -1.1324   21.9737 H   0  0  0  0  0  0  0  0  0  0  0  0
    9.0614    0.4066   24.6284 H   0  0  0  0  0  0  0  0  0  0  0  0
    9.5287   -0.9947   25.5971 H   0  0  0  0  0  0  0  0  0  0  0  0
    7.2192   -4.5671   27.6307 H   0  0  0  0  0  0  0  0  0  0  0  0
    7.7110   -6.1279   26.9494 H   0  0  0  0  0  0  0  0  0  0  0  0
    7.5072   -6.4420   24.4043 H   0  0  0  0  0  0  0  0  0  0  0  0
    6.8692   -5.0993   23.4448 H   0  0  0  0  0  0  0  0  0  0  0  0
    5.4519   -6.3380   27.9254 H   0  0  0  0  0  0  0  0  0  0  0  0
    4.8484   -4.9861   26.9569 H   0  0  0  0  0  0  0  0  0  0  0  0
    4.6545   -5.2894   24.5721 H   0  0  0  0  0  0  0  0  0  0  0  0
    5.1284   -6.8494   23.8862 H   0  0  0  0  0  0  0  0  0  0  0  0
    6.4487   -2.8961   24.0042 H   0  0  0  0  0  0  0  0  0  0  0  0
   14.9914   -0.8785   23.6243 H   0  0  0  0  0  0  0  0  0  0  0  0
  1  3  2  0  0  0  0
  1  5  1  0  0  0  0
  2  4  1  0  0  0  0
  2  5  2  0  0  0  0
  3 16  1  0  0  0  0
  4 16  2  0  0  0  0
  5 17  1  0  0  0  0
  6 15  1  0  0  0  0
  6 18  1  0  0  0  0
  6 19  2  0  0  0  0
  7  9  1  0  0  0  0
  7 15  1  0  0  0  0
  8 10  1  0  0  0  0
  8 15  1  0  0  0  0
  9 17  1  0  0  0  0
 10 17  1  0  0  0  0
 11 13  1  0  0  0  0
 11 18  1  0  0  0  0
 12 14  1  0  0  0  0
 12 18  1  0  0  0  0
 13 20  1  0  0  0  0
 14 20  1  0  0  0  0
  1 21  1  0  0  0  0
  2 22  1  0  0  0  0
  3 23  1  0  0  0  0
  4 24  1  0  0  0  0
  7 25  1  0  0  0  0
  7 26  1  0  0  0  0
  8 27  1  0  0  0  0
  8 28  1  0  0  0  0
  9 29  1  0  0  0  0
  9 30  1  0  0  0  0
 10 31  1  0  0  0  0
 10 32  1  0  0  0  0
 11 33  1  0  0  0  0
 11 34  1  0  0  0  0
 12 35  1  0  0  0  0
 12 36  1  0  0  0  0
 13 37  1  0  0  0  0
 13 38  1  0  0  0  0
 14 39  1  0  0  0  0
 14 40  1  0  0  0  0
 15 41  1  0  0  0  0
 16 42  1  0  0  0  0
M  CHG  1  16   1
M  END
> <Hybrid2>
-8.439287

> <fragments>
x0072

> <Mpro-x0072_dock>
-8.439287

> <Mpro-x0678_dock>
-8.225849

> <Mpro-x1093_dock>
-8.029255

> <Mpro-x0749_dock>
-7.860071

> <Mpro-x0161_dock>
-7.685165

> <Mpro-x0195_dock>
-7.276718

> <Mpro-x0946_dock>
-7.022766

> <Mpro-x1392_dock>
-6.946572

> <Mpro-x0831_dock>
-6.868875

> <Mpro-x0104_dock>
-6.830568

> <Mpro-x1077_dock>
-6.818755

> <Mpro-x0397_dock>
-6.482758

> <Mpro-x0434_dock>
-6.363428

> <Mpro-x0830_dock>
-6.298617

> <Mpro-x1311_dock>
-6.205021

> <Mpro-x0874_dock>
-6.188092

> <Mpro-x0692_dock>
-6.081765

> <Mpro-x0395_dock>
-5.959095

> <Mpro-x0708_dock>
-5.38376

> <Mpro-x1418_dock>
-5.261117

> <Mpro-x0770_dock>
-5.221395

> <Mpro-x1348_dock>
-5.213724

> <Mpro-x1385_dock>
-5.210853

> <Mpro-x1386_dock>
-5.135475

> <Mpro-x0387_dock>
-5.077089

> <Mpro-x1382_dock>
-4.852413

> <Mpro-x0967_dock>
-4.824821

> <Mpro-x0107_dock>
-4.794187

> <Mpro-x1334_dock>
-4.750042

> <Mpro-x1412_dock>
-4.703131

> <Mpro-x1249_dock>
-4.533842

> <Mpro-x0759_dock>
-4.429046

> <Mpro-x1478_dock>
-4.306324

> <Mpro-x1374_dock>
-4.163131

> <Mpro-x0354_dock>
-4.153311

> <Mpro-x1187_dock>
-4.141309

> <Mpro-x0734_dock>
-4.066016

> <Mpro-x1493_dock>
-4.018596

> <Mpro-x0774_dock>
-3.999402

> <Mpro-x1384_dock>
-3.970977

> <Mpro-x1375_dock>
-3.552454

> <Mpro-x0305_dock>
-3.045878

> <Mpro-x1458_dock>
-3.005251

> <Mpro-x1380_dock>
-2.983552

> <Mpro-x0752_dock>
-2.917018

> <Mpro-x0771_dock>
-2.909198

> <Mpro-x0820_dock>
-2.827987

> <Mpro-x0736_dock>
-2.66362

> <Mpro-x1308_dock>
-2.552379

> <Mpro-x1425_dock>
-2.476442

> <Mpro-x0769_dock>
-2.3974

> <Mpro-x0689_dock>
-2.306315

> <Mpro-x1358_dock>
-2.268348

> <Mpro-x1351_dock>
-2.0301

> <Mpro-x0786_dock>
-1.936973

> <Mpro-x0755_dock>
-1.920274

> <Mpro-x0691_dock>
-1.908627

> <Mpro-x1402_dock>
-1.383558

> <Mpro-x0981_dock>
-1.195232

> <Mpro-x0540_dock>
-1.144083

> <Mpro-x0731_dock>
-1.046776

> <Mpro-x0705_dock>
-0.697024

> <Mpro-x0426_dock>
-0.625777

> <Mpro-x0887_dock>
-0.387592

> <Mpro-x0978_dock>
0.110055

> <site>
active-noncovalent

$$$$
BAR-COM-4e0-31
  -OEChem-04022003013D

 55 57  0     1  0  0  0  0  0999 V2000
   14.0033   -1.9636   22.3955 C   0  0  0  0  0  0  0  0  0  0  0  0
   14.3203   -0.6087   22.2995 C   0  0  0  0  0  0  0  0  0  0  0  0
   12.8192   -2.3606   23.0168 C   0  0  0  0  0  0  0  0  0  0  0  0
   13.4532    0.3493   22.8249 C   0  0  0  0  0  0  0  0  0  0  0  0
    8.0709    2.0153   21.2528 C   0  0  0  0  0  0  0  0  0  0  0  0
    8.9452    0.3225   20.3999 C   0  0  0  0  0  0  0  0  0  0  0  0
   11.9521   -1.4026   23.5422 C   0  0  0  0  0  0  0  0  0  0  0  0
   12.2691   -0.0476   23.4462 C   0  0  0  0  0  0  0  0  0  0  0  0
   10.7752    3.1540   24.4319 C   0  0  0  0  0  0  0  0  0  0  0  0
    8.9695   -2.1054   22.4219 C   0  0  0  0  0  0  0  0  0  0  0  0
   10.9224    6.7980   24.9012 C   0  0  0  0  0  0  0  0  0  0  0  0
   11.8527    6.6225   23.7076 C   0  0  0  0  0  0  0  0  0  0  0  0
   10.1194    5.5065   24.8965 C   0  0  0  0  0  0  0  0  0  0  0  0
   12.2087    5.1438   23.7668 C   0  0  0  0  0  0  0  0  0  0  0  0
    9.3171   -1.8199   26.3709 C   0  0  0  0  0  0  0  0  0  0  0  0
    7.1033   -2.2217   20.7094 C   0  0  0  0  0  0  0  0  0  0  0  0
   11.8227    2.2581   23.8208 C   0  0  0  0  0  0  0  0  0  0  0  0
   10.6128   -1.4049   25.6845 C   0  0  0  0  0  0  0  0  0  0  0  0
   10.6894   -1.8457   24.2040 C   0  0  1  0  0  0  0  0  0  0  0  0
    7.7470   -1.4061   21.8310 C   0  0  2  0  0  0  0  0  0  0  0  0
    8.9647    1.6310   20.2947 N   0  0  0  0  0  0  0  0  0  0  0  0
    7.4995    1.0269   21.9442 N   0  0  0  0  0  0  0  0  0  0  0  0
    8.0758   -0.0449   21.3792 N   0  0  0  0  0  0  0  0  0  0  0  0
   11.0347    4.5104   24.3593 N   0  0  0  0  0  0  0  0  0  0  0  0
    9.5190   -1.3913   23.4709 N   0  0  0  0  0  0  0  0  0  0  0  0
    9.7655    2.6718   24.9476 O   0  0  0  0  0  0  0  0  0  0  0  0
    9.3913   -3.1782   21.9953 O   0  0  0  0  0  0  0  0  0  0  0  0
   11.4263    0.9092   23.9593 O   0  0  0  0  0  0  0  0  0  0  0  0
   14.6785   -2.7101   21.9870 H   0  0  0  0  0  0  0  0  0  0  0  0
   15.2427   -0.3002   21.8165 H   0  0  0  0  0  0  0  0  0  0  0  0
   12.5820   -3.4188   23.0878 H   0  0  0  0  0  0  0  0  0  0  0  0
   13.7057    1.4034   22.7471 H   0  0  0  0  0  0  0  0  0  0  0  0
    7.8267    3.0479   21.4524 H   0  0  0  0  0  0  0  0  0  0  0  0
    9.5174   -0.3810   19.8119 H   0  0  0  0  0  0  0  0  0  0  0  0
   11.5053    6.8799   25.8262 H   0  0  0  0  0  0  0  0  0  0  0  0
   10.2897    7.6851   24.8090 H   0  0  0  0  0  0  0  0  0  0  0  0
   11.3190    6.8473   22.7766 H   0  0  0  0  0  0  0  0  0  0  0  0
   12.7336    7.2676   23.7679 H   0  0  0  0  0  0  0  0  0  0  0  0
    9.7650    5.2160   25.8900 H   0  0  0  0  0  0  0  0  0  0  0  0
    9.2604    5.5686   24.2192 H   0  0  0  0  0  0  0  0  0  0  0  0
   12.4296    4.7238   22.7819 H   0  0  0  0  0  0  0  0  0  0  0  0
   13.0589    4.9632   24.4335 H   0  0  0  0  0  0  0  0  0  0  0  0
    9.1719   -2.9033   26.3124 H   0  0  0  0  0  0  0  0  0  0  0  0
    9.3452   -1.5391   27.4286 H   0  0  0  0  0  0  0  0  0  0  0  0
    8.4500   -1.3302   25.9170 H   0  0  0  0  0  0  0  0  0  0  0  0
    7.7833   -2.3613   19.8617 H   0  0  0  0  0  0  0  0  0  0  0  0
    6.8215   -3.2170   21.0700 H   0  0  0  0  0  0  0  0  0  0  0  0
    6.2004   -1.7274   20.3344 H   0  0  0  0  0  0  0  0  0  0  0  0
   12.7739    2.4125   24.3220 H   0  0  0  0  0  0  0  0  0  0  0  0
   11.9205    2.4960   22.7656 H   0  0  0  0  0  0  0  0  0  0  0  0
   10.7189   -0.3159   25.7662 H   0  0  0  0  0  0  0  0  0  0  0  0
   11.4521   -1.8475   26.2362 H   0  0  0  0  0  0  0  0  0  0  0  0
   10.6159   -2.9477   24.1821 H   0  0  0  0  0  0  0  0  0  0  0  0
    7.0072   -1.3113   22.6373 H   0  0  0  0  0  0  0  0  0  0  0  0
    9.0886   -0.5161   23.7394 H   0  0  0  0  0  0  0  0  0  0  0  0
  1  2  1  0  0  0  0
  1  3  2  0  0  0  0
  2  4  2  0  0  0  0
  3  7  1  0  0  0  0
  4  8  1  0  0  0  0
  5 21  1  0  0  0  0
  5 22  2  0  0  0  0
  6 21  2  0  0  0  0
  6 23  1  0  0  0  0
  7  8  2  0  0  0  0
  7 19  1  0  0  0  0
  8 28  1  0  0  0  0
  9 17  1  0  0  0  0
  9 24  1  0  0  0  0
  9 26  2  0  0  0  0
 10 20  1  0  0  0  0
 10 25  1  0  0  0  0
 10 27  2  0  0  0  0
 11 12  1  0  0  0  0
 11 13  1  0  0  0  0
 12 14  1  0  0  0  0
 13 24  1  0  0  0  0
 14 24  1  0  0  0  0
 15 18  1  0  0  0  0
 16 20  1  0  0  0  0
 17 28  1  0  0  0  0
 18 19  1  0  0  0  0
 19 25  1  0  0  0  0
 20 23  1  0  0  0  0
 22 23  1  0  0  0  0
  1 29  1  0  0  0  0
  2 30  1  0  0  0  0
  3 31  1  0  0  0  0
  4 32  1  0  0  0  0
  5 33  1  0  0  0  0
  6 34  1  0  0  0  0
 11 35  1  0  0  0  0
 11 36  1  0  0  0  0
 12 37  1  0  0  0  0
 12 38  1  0  0  0  0
 13 39  1  0  0  0  0
 13 40  1  0  0  0  0
 14 41  1  0  0  0  0
 14 42  1  0  0  0  0
 15 43  1  0  0  0  0
 15 44  1  0  0  0  0
 15 45  1  0  0  0  0
 16 46  1  0  0  0  0
 16 47  1  0  0  0  0
 16 48  1  0  0  0  0
 17 49  1  0  0  0  0
 17 50  1  0  0  0  0
 18 51  1  0  0  0  0
 18 52  1  0  0  0  0
 19 53  1  0  0  0  0
 20 54  1  0  0  0  0
 25 55  1  0  0  0  0
M  END
> <Hybrid2>
-8.428527

> <fragments>
x0195

> <Mpro-x0195_dock>
-8.428527

> <Mpro-x0678_dock>
-8.394213

> <Mpro-x0072_dock>
-8.228751

> <Mpro-x0708_dock>
-6.227884

> <Mpro-x0749_dock>
-6.010571

> <Mpro-x1077_dock>
-5.894522

> <Mpro-x0434_dock>
-5.800429

> <Mpro-x0874_dock>
-5.540174

> <Mpro-x0107_dock>
-5.374433

> <Mpro-x0946_dock>
-5.262337

> <Mpro-x0692_dock>
-4.790736

> <Mpro-x0161_dock>
-4.648921

> <Mpro-x0831_dock>
-4.549562

> <Mpro-x1392_dock>
-4.073844

> <Mpro-x0759_dock>
-3.797269

> <Mpro-x0104_dock>
-3.695286

> <Mpro-x0395_dock>
-3.629331

> <Mpro-x0967_dock>
-3.583078

> <Mpro-x1418_dock>
-3.474428

> <Mpro-x0397_dock>
-3.411555

> <Mpro-x1386_dock>
-3.409547

> <Mpro-x1093_dock>
-3.291295

> <Mpro-x0387_dock>
-2.968656

> <Mpro-x1249_dock>
-2.784047

> <Mpro-x0305_dock>
-2.42495

> <Mpro-x0774_dock>
-2.297782

> <Mpro-x1458_dock>
-2.198872

> <Mpro-x1412_dock>
-2.158558

> <Mpro-x0830_dock>
-2.149251

> <Mpro-x0770_dock>
-2.011937

> <Mpro-x1493_dock>
-1.998716

> <Mpro-x0734_dock>
-1.952513

> <Mpro-x0769_dock>
-1.940468

> <Mpro-x1348_dock>
-1.668314

> <Mpro-x0771_dock>
-1.619492

> <Mpro-x1334_dock>
-1.467356

> <Mpro-x1187_dock>
-1.459842

> <Mpro-x1385_dock>
-1.274631

> <Mpro-x1380_dock>
-1.231855

> <Mpro-x0691_dock>
-1.193625

> <Mpro-x1425_dock>
-1.133531

> <Mpro-x0736_dock>
-0.948482

> <Mpro-x1358_dock>
-0.895842

> <Mpro-x0755_dock>
-0.684911

> <Mpro-x0689_dock>
-0.275426

> <Mpro-x0354_dock>
-0.264723

> <Mpro-x1402_dock>
-0.215541

> <Mpro-x1384_dock>
-0.172448

> <Mpro-x1308_dock>
-0.165979

> <Mpro-x1382_dock>
0.046446

> <Mpro-x0820_dock>
0.151929

> <Mpro-x1478_dock>
0.182586

> <Mpro-x0731_dock>
0.216591

> <Mpro-x1351_dock>
0.221443

> <Mpro-x1311_dock>
0.233007

> <Mpro-x0540_dock>
0.305554

> <Mpro-x0426_dock>
0.672172

> <Mpro-x0887_dock>
0.851544

> <Mpro-x1374_dock>
0.967052

> <Mpro-x1375_dock>
1.19485

> <Mpro-x0786_dock>
1.668111

> <Mpro-x0705_dock>
1.681536

> <Mpro-x0752_dock>
2.654236

> <Mpro-x0981_dock>
2.675994

> <Mpro-x0978_dock>
3.627711

> <site>
active-noncovalent

$$$$
TRI-UNI-974-1
  -OEChem-04022003013D

 51 53  0     0  0  0  0  0  0999 V2000
   10.3688    7.1862   24.1075 C   0  0  0  0  0  0  0  0  0  0  0  0
   11.5934    6.6185   24.4590 C   0  0  0  0  0  0  0  0  0  0  0  0
    9.3436    6.3810   23.6111 C   0  0  0  0  0  0  0  0  0  0  0  0
    5.6391    0.9700   19.7444 C   0  0  0  0  0  0  0  0  0  0  0  0
    5.7171    1.7165   18.5739 C   0  0  0  0  0  0  0  0  0  0  0  0
   11.7929    5.2456   24.3141 C   0  0  0  0  0  0  0  0  0  0  0  0
    9.5431    5.0081   23.4663 C   0  0  0  0  0  0  0  0  0  0  0  0
    6.3433   -0.2243   19.8488 C   0  0  0  0  0  0  0  0  0  0  0  0
    6.5070    1.2291   17.5452 C   0  0  0  0  0  0  0  0  0  0  0  0
   10.7678    4.4404   23.8178 C   0  0  0  0  0  0  0  0  0  0  0  0
    7.1050   -0.6251   18.7629 C   0  0  0  0  0  0  0  0  0  0  0  0
    9.0805   -2.0633   21.0219 C   0  0  0  0  0  0  0  0  0  0  0  0
   12.0487    2.6220   22.7811 C   0  0  0  0  0  0  0  0  0  0  0  0
    9.8287    2.1481   23.8019 C   0  0  0  0  0  0  0  0  0  0  0  0
   12.5185    1.2235   23.1577 C   0  0  0  0  0  0  0  0  0  0  0  0
   10.3019    0.7481   24.1718 C   0  0  0  0  0  0  0  0  0  0  0  0
    7.8784   -1.9096   18.8406 C   0  0  0  0  0  0  0  0  0  0  0  0
   10.6459   -2.0723   22.9593 C   0  0  0  0  0  0  0  0  0  0  0  0
   11.7496   -1.1354   23.4126 C   0  0  0  0  0  0  0  0  0  0  0  0
    7.2054    0.0734   17.6098 N   0  0  0  0  0  0  0  0  0  0  0  0
   10.9676    3.0626   23.6724 N   0  0  0  0  0  0  0  0  0  0  0  0
    9.0618   -1.7795   19.6590 N   0  0  0  0  0  0  0  0  0  0  0  0
   10.3386   -1.8481   21.5290 N   0  0  0  0  0  0  0  0  0  0  0  0
   11.3352    0.2895   23.1750 N   0  3  0  0  0  0  0  0  0  0  0  0
    8.1061   -2.4500   21.6659 O   0  0  0  0  0  0  0  0  0  0  0  0
   10.2136    8.2554   24.2201 H   0  0  0  0  0  0  0  0  0  0  0  0
   12.3914    7.2455   24.8453 H   0  0  0  0  0  0  0  0  0  0  0  0
    8.3900    6.8233   23.3374 H   0  0  0  0  0  0  0  0  0  0  0  0
    5.0306    1.3185   20.5735 H   0  0  0  0  0  0  0  0  0  0  0  0
    5.1768    2.6505   18.4703 H   0  0  0  0  0  0  0  0  0  0  0  0
   12.7509    4.8131   24.5908 H   0  0  0  0  0  0  0  0  0  0  0  0
    8.7368    4.3905   23.0787 H   0  0  0  0  0  0  0  0  0  0  0  0
    6.2909   -0.8160   20.7564 H   0  0  0  0  0  0  0  0  0  0  0  0
    6.6014    1.7738   16.6116 H   0  0  0  0  0  0  0  0  0  0  0  0
   12.9014    3.3084   22.8553 H   0  0  0  0  0  0  0  0  0  0  0  0
   11.7038    2.6363   21.7388 H   0  0  0  0  0  0  0  0  0  0  0  0
    9.2638    2.1172   22.8609 H   0  0  0  0  0  0  0  0  0  0  0  0
    9.1462    2.5035   24.5840 H   0  0  0  0  0  0  0  0  0  0  0  0
   13.2261    0.8433   22.4134 H   0  0  0  0  0  0  0  0  0  0  0  0
   12.9841    1.1987   24.1496 H   0  0  0  0  0  0  0  0  0  0  0  0
   10.7570    0.7186   25.1684 H   0  0  0  0  0  0  0  0  0  0  0  0
    9.4687    0.0387   24.1312 H   0  0  0  0  0  0  0  0  0  0  0  0
    7.2600   -2.7074   19.2662 H   0  0  0  0  0  0  0  0  0  0  0  0
    8.1943   -2.2388   17.8451 H   0  0  0  0  0  0  0  0  0  0  0  0
   10.9304   -3.1203   23.0999 H   0  0  0  0  0  0  0  0  0  0  0  0
    9.7350   -1.8863   23.5374 H   0  0  0  0  0  0  0  0  0  0  0  0
   12.6670   -1.2941   22.8388 H   0  0  0  0  0  0  0  0  0  0  0  0
   11.9632   -1.2291   24.4816 H   0  0  0  0  0  0  0  0  0  0  0  0
    9.9213   -1.4659   19.2190 H   0  0  0  0  0  0  0  0  0  0  0  0
   11.1028   -1.5777   20.9459 H   0  0  0  0  0  0  0  0  0  0  0  0
   10.9019    0.3168   22.2415 H   0  0  0  0  0  0  0  0  0  0  0  0
  1  2  1  0  0  0  0
  1  3  2  0  0  0  0
  2  6  2  0  0  0  0
  3  7  1  0  0  0  0
  4  5  1  0  0  0  0
  4  8  2  0  0  0  0
  5  9  2  0  0  0  0
  6 10  1  0  0  0  0
  7 10  2  0  0  0  0
  8 11  1  0  0  0  0
  9 20  1  0  0  0  0
 10 21  1  0  0  0  0
 11 17  1  0  0  0  0
 11 20  2  0  0  0  0
 12 22  1  0  0  0  0
 12 23  1  0  0  0  0
 12 25  2  0  0  0  0
 13 15  1  0  0  0  0
 13 21  1  0  0  0  0
 14 16  1  0  0  0  0
 14 21  1  0  0  0  0
 15 24  1  0  0  0  0
 16 24  1  0  0  0  0
 17 22  1  0  0  0  0
 18 19  1  0  0  0  0
 18 23  1  0  0  0  0
 19 24  1  0  0  0  0
  1 26  1  0  0  0  0
  2 27  1  0  0  0  0
  3 28  1  0  0  0  0
  4 29  1  0  0  0  0
  5 30  1  0  0  0  0
  6 31  1  0  0  0  0
  7 32  1  0  0  0  0
  8 33  1  0  0  0  0
  9 34  1  0  0  0  0
 13 35  1  0  0  0  0
 13 36  1  0  0  0  0
 14 37  1  0  0  0  0
 14 38  1  0  0  0  0
 15 39  1  0  0  0  0
 15 40  1  0  0  0  0
 16 41  1  0  0  0  0
 16 42  1  0  0  0  0
 17 43  1  0  0  0  0
 17 44  1  0  0  0  0
 18 45  1  0  0  0  0
 18 46  1  0  0  0  0
 19 47  1  0  0  0  0
 19 48  1  0  0  0  0
 22 49  1  0  0  0  0
 23 50  1  0  0  0  0
 24 51  1  0  0  0  0
M  CHG  1  24   1
M  END
> <Hybrid2>
-8.423624

> <fragments>
x0678

> <Mpro-x0678_dock>
-8.423624

> <Mpro-x0104_dock>
-7.590744

> <Mpro-x0107_dock>
-6.819239

> <Mpro-x0874_dock>
-6.421881

> <Mpro-x0434_dock>
-6.322824

> <Mpro-x0161_dock>
-6.115544

> <Mpro-x0395_dock>
-5.910533

> <Mpro-x0072_dock>
-5.595583

> <Mpro-x0830_dock>
-5.550848

> <Mpro-x0387_dock>
-5.492522

> <Mpro-x0831_dock>
-5.381805

> <Mpro-x0967_dock>
-5.265219

> <Mpro-x0195_dock>
-5.118805

> <Mpro-x1249_dock>
-4.664555

> <Mpro-x1093_dock>
-4.551404

> <Mpro-x0749_dock>
-4.453224

> <Mpro-x1348_dock>
-4.445818

> <Mpro-x0397_dock>
-4.353696

> <Mpro-x1077_dock>
-4.199196

> <Mpro-x1385_dock>
-4.166316

> <Mpro-x0759_dock>
-3.988655

> <Mpro-x0774_dock>
-3.788484

> <Mpro-x0946_dock>
-3.634938

> <Mpro-x0692_dock>
-3.632161

> <Mpro-x1392_dock>
-3.624135

> <Mpro-x0305_dock>
-3.578435

> <Mpro-x1418_dock>
-3.4145

> <Mpro-x1334_dock>
-3.255835

> <Mpro-x0770_dock>
-3.001177

> <Mpro-x0736_dock>
-2.991069

> <Mpro-x1187_dock>
-2.972525

> <Mpro-x1311_dock>
-2.862549

> <Mpro-x1412_dock>
-2.565561

> <Mpro-x1493_dock>
-2.492676

> <Mpro-x1386_dock>
-2.381501

> <Mpro-x1458_dock>
-2.101754

> <Mpro-x1374_dock>
-2.059188

> <Mpro-x0820_dock>
-1.82382

> <Mpro-x1308_dock>
-1.729024

> <Mpro-x1380_dock>
-1.705604

> <Mpro-x0752_dock>
-1.677153

> <Mpro-x0769_dock>
-1.522208

> <Mpro-x0705_dock>
-1.461592

> <Mpro-x1384_dock>
-1.415874

> <Mpro-x1425_dock>
-1.300847

> <Mpro-x0771_dock>
-1.138091

> <Mpro-x1478_dock>
-1.009798

> <Mpro-x1358_dock>
-0.853186

> <Mpro-x0708_dock>
-0.84973

> <Mpro-x1375_dock>
-0.685214

> <Mpro-x0755_dock>
-0.641753

> <Mpro-x0354_dock>
-0.59421

> <Mpro-x0734_dock>
-0.536853

> <Mpro-x1382_dock>
-0.408599

> <Mpro-x0691_dock>
-0.305719

> <Mpro-x0731_dock>
-0.242614

> <Mpro-x1351_dock>
0.38189

> <Mpro-x0689_dock>
0.797627

> <Mpro-x1402_dock>
0.826514

> <Mpro-x0981_dock>
0.875851

> <Mpro-x0978_dock>
0.991083

> <Mpro-x0786_dock>
1.048174

> <Mpro-x0887_dock>
1.104281

> <Mpro-x0540_dock>
2.457108

> <Mpro-x0426_dock>
3.942343

> <site>
active-noncovalent

$$$$
ANT-DIA-b7f-3
  -OEChem-04022003013D

 27 27  0     0  0  0  0  0  0999 V2000
   14.1734   -1.1905   22.1614 C   0  0  0  0  0  0  0  0  0  0  0  0
   13.2525   -2.0120   22.8116 C   0  0  0  0  0  0  0  0  0  0  0  0
   14.0406    0.1964   22.2292 C   0  0  0  0  0  0  0  0  0  0  0  0
   12.1986   -1.4466   23.5294 C   0  0  0  0  0  0  0  0  0  0  0  0
   12.9867    0.7618   22.9471 C   0  0  0  0  0  0  0  0  0  0  0  0
   12.0657   -0.0597   23.5972 C   0  0  0  0  0  0  0  0  0  0  0  0
   10.6842    6.5550   23.6362 C   0  0  0  0  0  0  0  0  0  0  0  0
   12.8586    2.2641   23.0092 C   0  0  0  0  0  0  0  0  0  0  0  0
   11.5274    2.7714   22.4601 C   0  0  0  0  0  0  0  0  0  0  0  0
   11.4223    4.2410   22.5002 N   0  0  0  0  0  0  0  0  0  0  0  0
   12.9347    5.3764   24.2660 O   0  0  0  0  0  0  0  0  0  0  0  0
   10.7594    4.3196   24.9788 O   0  0  0  0  0  0  0  0  0  0  0  0
   11.0302    0.4764   24.3019 O   0  0  0  0  0  0  0  0  0  0  0  0
   11.5484    5.0444   24.0013 S   0  0  0  0  0  0  0  0  0  0  0  0
   14.9940   -1.6303   21.6018 H   0  0  0  0  0  0  0  0  0  0  0  0
   13.3558   -3.0917   22.7578 H   0  0  0  0  0  0  0  0  0  0  0  0
   14.7625    0.8277   21.7180 H   0  0  0  0  0  0  0  0  0  0  0  0
   11.4843   -2.0917   24.0337 H   0  0  0  0  0  0  0  0  0  0  0  0
   10.6885    7.1791   24.5311 H   0  0  0  0  0  0  0  0  0  0  0  0
   11.2004    7.0577   22.8169 H   0  0  0  0  0  0  0  0  0  0  0  0
    9.6617    6.3058   23.3486 H   0  0  0  0  0  0  0  0  0  0  0  0
   13.6809    2.7075   22.4335 H   0  0  0  0  0  0  0  0  0  0  0  0
   12.9954    2.6057   24.0431 H   0  0  0  0  0  0  0  0  0  0  0  0
   11.4194    2.4757   21.4118 H   0  0  0  0  0  0  0  0  0  0  0  0
   10.6784    2.3641   23.0189 H   0  0  0  0  0  0  0  0  0  0  0  0
   11.8365    4.7114   21.6849 H   0  0  0  0  0  0  0  0  0  0  0  0
   10.4874   -0.2286   24.6883 H   0  0  0  0  0  0  0  0  0  0  0  0
  1  2  1  0  0  0  0
  1  3  2  0  0  0  0
  2  4  2  0  0  0  0
  3  5  1  0  0  0  0
  4  6  1  0  0  0  0
  5  6  2  0  0  0  0
  5  8  1  0  0  0  0
  6 13  1  0  0  0  0
  7 14  1  0  0  0  0
  8  9  1  0  0  0  0
  9 10  1  0  0  0  0
 10 14  1  0  0  0  0
 11 14  2  0  0  0  0
 12 14  2  0  0  0  0
  1 15  1  0  0  0  0
  2 16  1  0  0  0  0
  3 17  1  0  0  0  0
  4 18  1  0  0  0  0
  7 19  1  0  0  0  0
  7 20  1  0  0  0  0
  7 21  1  0  0  0  0
  8 22  1  0  0  0  0
  8 23  1  0  0  0  0
  9 24  1  0  0  0  0
  9 25  1  0  0  0  0
 10 26  1  0  0  0  0
 13 27  1  0  0  0  0
M  END
> <Hybrid2>
-8.386959

> <fragments>
x0195

> <Mpro-x0195_dock>
-8.386959

> <Mpro-x1093_dock>
-7.999274

> <Mpro-x0161_dock>
-7.862995

> <Mpro-x0749_dock>
-7.409538

> <Mpro-x0678_dock>
-7.224349

> <Mpro-x0946_dock>
-6.844422

> <Mpro-x0831_dock>
-6.77874

> <Mpro-x0104_dock>
-6.766709

> <Mpro-x0072_dock>
-6.745873

> <Mpro-x0434_dock>
-6.658329

> <Mpro-x1418_dock>
-6.462631

> <Mpro-x0708_dock>
-6.221334

> <Mpro-x0397_dock>
-5.966748

> <Mpro-x0830_dock>
-5.838539

> <Mpro-x0395_dock>
-5.767071

> <Mpro-x0692_dock>
-5.628342

> <Mpro-x1375_dock>
-5.584245

> <Mpro-x0874_dock>
-5.562008

> <Mpro-x0770_dock>
-5.435475

> <Mpro-x1311_dock>
-5.429214

> <Mpro-x1374_dock>
-5.233721

> <Mpro-x1077_dock>
-5.200247

> <Mpro-x0759_dock>
-5.171784

> <Mpro-x1392_dock>
-5.155145

> <Mpro-x1382_dock>
-5.143301

> <Mpro-x0387_dock>
-5.103037

> <Mpro-x1385_dock>
-5.06519

> <Mpro-x1187_dock>
-4.970967

> <Mpro-x1334_dock>
-4.970025

> <Mpro-x1386_dock>
-4.962348

> <Mpro-x1458_dock>
-4.799784

> <Mpro-x1249_dock>
-4.635766

> <Mpro-x0820_dock>
-4.547211

> <Mpro-x0774_dock>
-4.523342

> <Mpro-x0354_dock>
-4.510356

> <Mpro-x0967_dock>
-4.506312

> <Mpro-x1412_dock>
-4.504188

> <Mpro-x1380_dock>
-4.470675

> <Mpro-x1478_dock>
-4.402509

> <Mpro-x0107_dock>
-4.375046

> <Mpro-x0305_dock>
-4.342406

> <Mpro-x0734_dock>
-4.326778

> <Mpro-x0752_dock>
-4.040199

> <Mpro-x1493_dock>
-4.029907

> <Mpro-x0786_dock>
-3.931855

> <Mpro-x0736_dock>
-3.682013

> <Mpro-x1348_dock>
-3.548833

> <Mpro-x0771_dock>
-3.52157

> <Mpro-x0731_dock>
-3.303903

> <Mpro-x0981_dock>
-3.15296

> <Mpro-x0426_dock>
-3.140714

> <Mpro-x1308_dock>
-3.095225

> <Mpro-x1358_dock>
-2.815568

> <Mpro-x0978_dock>
-2.788665

> <Mpro-x1425_dock>
-2.670927

> <Mpro-x1384_dock>
-2.606367

> <Mpro-x0769_dock>
-2.496877

> <Mpro-x0691_dock>
-2.495976

> <Mpro-x0705_dock>
-2.491761

> <Mpro-x1351_dock>
-2.470773

> <Mpro-x0755_dock>
-2.364256

> <Mpro-x1402_dock>
-2.345448

> <Mpro-x0689_dock>
-2.328912

> <Mpro-x0887_dock>
-1.589832

> <Mpro-x0540_dock>
-1.445947

> <site>
active-noncovalent

$$$$
WAR-XCH-b72-49
  -OEChem-04022003013D

 47 48  0     1  0  0  0  0  0999 V2000
    9.4139   -0.5565   24.8832 C   0  0  0  0  0  0  0  0  0  0  0  0
   10.6831   -1.8229   23.2638 C   0  0  0  0  0  0  0  0  0  0  0  0
    8.8482   -1.7376   25.3635 C   0  0  0  0  0  0  0  0  0  0  0  0
   10.1174   -3.0040   23.7441 C   0  0  0  0  0  0  0  0  0  0  0  0
   10.3313   -0.5992   23.8333 C   0  0  0  0  0  0  0  0  0  0  0  0
    9.2000   -2.9613   24.7939 C   0  0  0  0  0  0  0  0  0  0  0  0
   12.9348    1.9374   23.0184 C   0  0  0  0  0  0  0  0  0  0  0  0
   10.8107    2.5260   21.8339 C   0  0  0  0  0  0  0  0  0  0  0  0
   12.1497    1.0404   23.9750 C   0  0  0  0  0  0  0  0  0  0  0  0
   10.0290    1.6256   22.7912 C   0  0  0  0  0  0  0  0  0  0  0  0
   12.0949    3.0885   22.4527 C   0  0  0  0  0  0  0  0  0  0  0  0
    9.3708    5.6652   24.0772 C   0  0  0  0  0  0  0  0  0  0  0  0
   12.7000    6.1279   22.2740 C   0  0  0  0  0  0  0  0  0  0  0  0
   11.8028    4.1589   23.5062 C   0  0  0  0  0  0  0  0  0  0  0  0
   10.6517    6.3608   23.6711 C   0  0  0  0  0  0  0  0  0  0  0  0
   10.8996    0.5864   23.3508 N   0  0  0  0  0  0  0  0  0  0  0  0
    9.6141   -4.8688   26.6091 N   0  0  0  0  0  0  0  0  0  0  0  0
   11.4775    5.4249   22.8184 N   0  3  1  0  0  0  0  0  0  0  0  0
    7.2187   -4.1178   26.0229 O   0  0  0  0  0  0  0  0  0  0  0  0
    8.5436   -5.4401   24.3365 O   0  0  0  0  0  0  0  0  0  0  0  0
    8.4919   -4.4401   25.3940 S   0  0  0  0  0  0  0  0  0  0  0  0
    9.1323    0.3916   25.3342 H   0  0  0  0  0  0  0  0  0  0  0  0
   11.3978   -1.8676   22.4459 H   0  0  0  0  0  0  0  0  0  0  0  0
    8.1345   -1.6924   26.1816 H   0  0  0  0  0  0  0  0  0  0  0  0
   10.3987   -3.9518   23.2926 H   0  0  0  0  0  0  0  0  0  0  0  0
   13.8188    2.3390   23.5429 H   0  0  0  0  0  0  0  0  0  0  0  0
   13.3275    1.3227   22.1919 H   0  0  0  0  0  0  0  0  0  0  0  0
   11.0559    1.9527   20.9235 H   0  0  0  0  0  0  0  0  0  0  0  0
   10.1579    3.3529   21.5012 H   0  0  0  0  0  0  0  0  0  0  0  0
   12.7600    0.1729   24.2579 H   0  0  0  0  0  0  0  0  0  0  0  0
   11.9336    1.6058   24.8902 H   0  0  0  0  0  0  0  0  0  0  0  0
    9.6120    2.2470   23.5944 H   0  0  0  0  0  0  0  0  0  0  0  0
    9.1864    1.1617   22.2611 H   0  0  0  0  0  0  0  0  0  0  0  0
   12.6821    3.5717   21.6400 H   0  0  0  0  0  0  0  0  0  0  0  0
    8.7812    5.4114   23.1909 H   0  0  0  0  0  0  0  0  0  0  0  0
    9.5792    4.7385   24.6219 H   0  0  0  0  0  0  0  0  0  0  0  0
    8.7581    6.3070   24.7190 H   0  0  0  0  0  0  0  0  0  0  0  0
   13.3450    6.3781   23.1183 H   0  0  0  0  0  0  0  0  0  0  0  0
   13.2007    5.4434   21.5866 H   0  0  0  0  0  0  0  0  0  0  0  0
   12.3646    7.0285   21.7561 H   0  0  0  0  0  0  0  0  0  0  0  0
   12.6742    4.3380   24.1335 H   0  0  0  0  0  0  0  0  0  0  0  0
   10.9435    3.8835   24.1151 H   0  0  0  0  0  0  0  0  0  0  0  0
   11.2609    6.6260   24.5396 H   0  0  0  0  0  0  0  0  0  0  0  0
   10.4544    7.2530   23.0704 H   0  0  0  0  0  0  0  0  0  0  0  0
    9.3231   -4.7722   27.5896 H   0  0  0  0  0  0  0  0  0  0  0  0
   10.2282   -5.6739   26.4357 H   0  0  0  0  0  0  0  0  0  0  0  0
   10.8899    5.2029   21.9939 H   0  0  0  0  0  0  0  0  0  0  0  0
  1  3  2  0  0  0  0
  1  5  1  0  0  0  0
  2  4  1  0  0  0  0
  2  5  2  0  0  0  0
  3  6  1  0  0  0  0
  4  6  2  0  0  0  0
  5 16  1  0  0  0  0
  6 21  1  0  0  0  0
  7  9  1  0  0  0  0
  7 11  1  0  0  0  0
  8 10  1  0  0  0  0
  8 11  1  0  0  0  0
  9 16  1  0  0  0  0
 10 16  1  0  0  0  0
 11 14  1  0  0  0  0
 12 15  1  0  0  0  0
 13 18  1  0  0  0  0
 14 18  1  0  0  0  0
 15 18  1  0  0  0  0
 17 21  1  0  0  0  0
 19 21  2  0  0  0  0
 20 21  2  0  0  0  0
  1 22  1  0  0  0  0
  2 23  1  0  0  0  0
  3 24  1  0  0  0  0
  4 25  1  0  0  0  0
  7 26  1  0  0  0  0
  7 27  1  0  0  0  0
  8 28  1  0  0  0  0
  8 29  1  0  0  0  0
  9 30  1  0  0  0  0
  9 31  1  0  0  0  0
 10 32  1  0  0  0  0
 10 33  1  0  0  0  0
 11 34  1  0  0  0  0
 12 35  1  0  0  0  0
 12 36  1  0  0  0  0
 12 37  1  0  0  0  0
 13 38  1  0  0  0  0
 13 39  1  0  0  0  0
 13 40  1  0  0  0  0
 14 41  1  0  0  0  0
 14 42  1  0  0  0  0
 15 43  1  0  0  0  0
 15 44  1  0  0  0  0
 17 45  1  0  0  0  0
 17 46  1  0  0  0  0
 18 47  1  0  0  0  0
M  CHG  1  18   1
M  END
> <Hybrid2>
-8.318925

> <fragments>
x0104

> <Mpro-x0104_dock>
-8.318925

> <Mpro-x0874_dock>
-8.263442

> <Mpro-x0195_dock>
-7.428716

> <Mpro-x0946_dock>
-6.733848

> <Mpro-x1077_dock>
-6.390534

> <Mpro-x0161_dock>
-5.616882

> <Mpro-x0072_dock>
-5.387568

> <Mpro-x0395_dock>
-5.380272

> <Mpro-x0830_dock>
-5.206924

> <Mpro-x0107_dock>
-5.107987

> <Mpro-x0749_dock>
-5.07369

> <Mpro-x1392_dock>
-4.86856

> <Mpro-x0397_dock>
-4.768089

> <Mpro-x0708_dock>
-4.443373

> <Mpro-x0387_dock>
-4.370555

> <Mpro-x1334_dock>
-4.122589

> <Mpro-x0678_dock>
-3.955313

> <Mpro-x1385_dock>
-3.89379

> <Mpro-x1374_dock>
-3.730971

> <Mpro-x0305_dock>
-3.604261

> <Mpro-x1187_dock>
-3.452018

> <Mpro-x1093_dock>
-3.287848

> <Mpro-x0831_dock>
-3.21705

> <Mpro-x1311_dock>
-3.152168

> <Mpro-x1375_dock>
-3.128133

> <Mpro-x0967_dock>
-3.057073

> <Mpro-x0692_dock>
-2.926375

> <Mpro-x1249_dock>
-2.749289

> <Mpro-x0434_dock>
-2.652702

> <Mpro-x1386_dock>
-2.416556

> <Mpro-x1412_dock>
-2.405925

> <Mpro-x1380_dock>
-2.324095

> <Mpro-x1348_dock>
-2.060435

> <Mpro-x1418_dock>
-1.623453

> <Mpro-x0759_dock>
-1.506509

> <Mpro-x0734_dock>
-1.482058

> <Mpro-x1358_dock>
-1.477948

> <Mpro-x1351_dock>
-1.452177

> <Mpro-x0354_dock>
-1.432997

> <Mpro-x0426_dock>
-1.197721

> <Mpro-x1478_dock>
-1.00044

> <Mpro-x0540_dock>
-0.975609

> <Mpro-x1458_dock>
-0.931051

> <Mpro-x0774_dock>
-0.855279

> <Mpro-x0736_dock>
-0.60096

> <Mpro-x1493_dock>
-0.584645

> <Mpro-x0978_dock>
-0.469977

> <Mpro-x0752_dock>
-0.40504

> <Mpro-x0770_dock>
-0.315155

> <Mpro-x0820_dock>
-0.27205

> <Mpro-x1384_dock>
-0.10175

> <Mpro-x0887_dock>
0.04682

> <Mpro-x0771_dock>
0.10615

> <Mpro-x1382_dock>
0.529523

> <Mpro-x0705_dock>
0.726131

> <Mpro-x1308_dock>
0.830503

> <Mpro-x1425_dock>
0.870492

> <Mpro-x0691_dock>
1.007928

> <Mpro-x0755_dock>
1.386767

> <Mpro-x0981_dock>
1.524692

> <Mpro-x1402_dock>
1.542104

> <Mpro-x0769_dock>
1.559699

> <Mpro-x0689_dock>
1.713273

> <Mpro-x0786_dock>
1.730842

> <Mpro-x0731_dock>
1.778923

> <site>
active-noncovalent

$$$$
GIA-UNK-30c-1
  -OEChem-04022003013D

 44 46  0     0  0  0  0  0  0999 V2000
   11.5732   -1.4651   24.2234 C   0  0  0  0  0  0  0  0  0  0  0  0
   13.8915   -0.8714   24.5002 C   0  0  0  0  0  0  0  0  0  0  0  0
   11.9262   -2.7967   24.3899 C   0  0  0  0  0  0  0  0  0  0  0  0
   14.1858   -2.2181   24.6597 C   0  0  0  0  0  0  0  0  0  0  0  0
   12.5698   -0.4955   24.2800 C   0  0  0  0  0  0  0  0  0  0  0  0
   11.6254    5.0752   23.9831 C   0  0  0  0  0  0  0  0  0  0  0  0
    8.0042    7.2083   24.2225 C   0  0  0  0  0  0  0  0  0  0  0  0
    9.3097    7.6615   24.8741 C   0  0  0  0  0  0  0  0  0  0  0  0
    8.0512    5.7191   23.8835 C   0  0  0  0  0  0  0  0  0  0  0  0
   10.9558    2.8369   24.8084 C   0  0  0  0  0  0  0  0  0  0  0  0
   12.9209    3.0721   23.2777 C   0  0  0  0  0  0  0  0  0  0  0  0
   10.5146    7.2859   24.0159 C   0  0  0  0  0  0  0  0  0  0  0  0
    9.2809    5.3791   23.0443 C   0  0  0  0  0  0  0  0  0  0  0  0
   10.9204    1.3349   24.5291 C   0  0  0  0  0  0  0  0  0  0  0  0
   12.8758    1.5717   22.9959 C   0  0  0  0  0  0  0  0  0  0  0  0
   11.5365    3.6123   23.6283 C   0  0  0  0  0  0  0  0  0  0  0  0
   13.2066   -3.1310   24.6006 N   0  3  0  0  0  0  0  0  0  0  0  0
   12.2434    0.8558   24.1132 N   0  0  0  0  0  0  0  0  0  0  0  0
   10.5059    5.8563   23.6982 N   0  0  0  0  0  0  0  0  0  0  0  0
   12.6587    5.5083   24.4995 O   0  0  0  0  0  0  0  0  0  0  0  0
   10.5356   -1.1959   24.0520 H   0  0  0  0  0  0  0  0  0  0  0  0
   14.6860   -0.1331   24.5469 H   0  0  0  0  0  0  0  0  0  0  0  0
   11.2208   -3.6154   24.3594 H   0  0  0  0  0  0  0  0  0  0  0  0
   15.1818   -2.6009   24.8350 H   0  0  0  0  0  0  0  0  0  0  0  0
    7.1626    7.4113   24.8941 H   0  0  0  0  0  0  0  0  0  0  0  0
    7.8324    7.7868   23.3066 H   0  0  0  0  0  0  0  0  0  0  0  0
    9.2876    8.7465   25.0254 H   0  0  0  0  0  0  0  0  0  0  0  0
    9.4069    7.2003   25.8647 H   0  0  0  0  0  0  0  0  0  0  0  0
    8.0655    5.1302   24.8092 H   0  0  0  0  0  0  0  0  0  0  0  0
    7.1432    5.4384   23.3384 H   0  0  0  0  0  0  0  0  0  0  0  0
    9.9388    3.1846   24.9864 H   0  0  0  0  0  0  0  0  0  0  0  0
   11.5333    3.0213   25.7116 H   0  0  0  0  0  0  0  0  0  0  0  0
   13.6231    3.2648   24.0880 H   0  0  0  0  0  0  0  0  0  0  0  0
   13.2873    3.5901   22.3905 H   0  0  0  0  0  0  0  0  0  0  0  0
   10.4930    7.8318   23.0652 H   0  0  0  0  0  0  0  0  0  0  0  0
   11.4379    7.5660   24.5327 H   0  0  0  0  0  0  0  0  0  0  0  0
    9.3066    4.3038   22.8599 H   0  0  0  0  0  0  0  0  0  0  0  0
    9.2240    5.8734   22.0671 H   0  0  0  0  0  0  0  0  0  0  0  0
   10.5944    0.7933   25.4258 H   0  0  0  0  0  0  0  0  0  0  0  0
   10.1813    1.1418   23.7420 H   0  0  0  0  0  0  0  0  0  0  0  0
   12.3049    1.4085   22.0728 H   0  0  0  0  0  0  0  0  0  0  0  0
   13.8868    1.1808   22.8254 H   0  0  0  0  0  0  0  0  0  0  0  0
   10.8851    3.5356   22.7804 H   0  0  0  0  0  0  0  0  0  0  0  0
   13.4447   -4.1153   24.7198 H   0  0  0  0  0  0  0  0  0  0  0  0
  1  3  2  0  0  0  0
  1  5  1  0  0  0  0
  2  4  1  0  0  0  0
  2  5  2  0  0  0  0
  3 17  1  0  0  0  0
  4 17  2  0  0  0  0
  5 18  1  0  0  0  0
  6 16  1  0  0  0  0
  6 19  1  0  0  0  0
  6 20  2  0  0  0  0
  7  8  1  0  0  0  0
  7  9  1  0  0  0  0
  8 12  1  0  0  0  0
  9 13  1  0  0  0  0
 10 14  1  0  0  0  0
 10 16  1  0  0  0  0
 11 15  1  0  0  0  0
 11 16  1  0  0  0  0
 12 19  1  0  0  0  0
 13 19  1  0  0  0  0
 14 18  1  0  0  0  0
 15 18  1  0  0  0  0
  1 21  1  0  0  0  0
  2 22  1  0  0  0  0
  3 23  1  0  0  0  0
  4 24  1  0  0  0  0
  7 25  1  0  0  0  0
  7 26  1  0  0  0  0
  8 27  1  0  0  0  0
  8 28  1  0  0  0  0
  9 29  1  0  0  0  0
  9 30  1  0  0  0  0
 10 31  1  0  0  0  0
 10 32  1  0  0  0  0
 11 33  1  0  0  0  0
 11 34  1  0  0  0  0
 12 35  1  0  0  0  0
 12 36  1  0  0  0  0
 13 37  1  0  0  0  0
 13 38  1  0  0  0  0
 14 39  1  0  0  0  0
 14 40  1  0  0  0  0
 15 41  1  0  0  0  0
 15 42  1  0  0  0  0
 16 43  1  0  0  0  0
 17 44  1  0  0  0  0
M  CHG  1  17   1
M  END
> <Hybrid2>
-8.284107

> <fragments>
x0161

> <Mpro-x0161_dock>
-8.284107

> <Mpro-x0946_dock>
-8.1159

> <Mpro-x0104_dock>
-8.050985

> <Mpro-x1093_dock>
-7.934525

> <Mpro-x0749_dock>
-7.801313

> <Mpro-x0072_dock>
-7.672266

> <Mpro-x0678_dock>
-7.435321

> <Mpro-x0195_dock>
-7.29847

> <Mpro-x0831_dock>
-7.259337

> <Mpro-x0830_dock>
-6.878832

> <Mpro-x1077_dock>
-6.735493

> <Mpro-x0434_dock>
-6.494487

> <Mpro-x0874_dock>
-6.477138

> <Mpro-x1392_dock>
-6.283363

> <Mpro-x0397_dock>
-5.84607

> <Mpro-x0395_dock>
-5.567952

> <Mpro-x1249_dock>
-5.525035

> <Mpro-x0692_dock>
-5.430115

> <Mpro-x0734_dock>
-5.053922

> <Mpro-x1334_dock>
-4.930449

> <Mpro-x1311_dock>
-4.803287

> <Mpro-x1418_dock>
-4.782144

> <Mpro-x1385_dock>
-4.750085

> <Mpro-x1382_dock>
-4.719841

> <Mpro-x1348_dock>
-4.688334

> <Mpro-x0387_dock>
-4.603275

> <Mpro-x0820_dock>
-4.4672

> <Mpro-x0107_dock>
-4.389328

> <Mpro-x1374_dock>
-4.182968

> <Mpro-x0967_dock>
-4.121656

> <Mpro-x0770_dock>
-4.063038

> <Mpro-x1412_dock>
-4.060609

> <Mpro-x1187_dock>
-4.013735

> <Mpro-x1386_dock>
-3.971508

> <Mpro-x1478_dock>
-3.959677

> <Mpro-x0759_dock>
-3.895676

> <Mpro-x1375_dock>
-3.864574

> <Mpro-x0689_dock>
-3.625077

> <Mpro-x0354_dock>
-3.603003

> <Mpro-x0736_dock>
-3.601746

> <Mpro-x0774_dock>
-3.439294

> <Mpro-x0708_dock>
-3.420332

> <Mpro-x1493_dock>
-3.237445

> <Mpro-x0305_dock>
-3.188497

> <Mpro-x0752_dock>
-3.020276

> <Mpro-x0786_dock>
-2.408018

> <Mpro-x1358_dock>
-2.160788

> <Mpro-x0691_dock>
-2.063692

> <Mpro-x0771_dock>
-1.941009

> <Mpro-x1380_dock>
-1.935437

> <Mpro-x1425_dock>
-1.666189

> <Mpro-x1458_dock>
-1.554734

> <Mpro-x1384_dock>
-1.52053

> <Mpro-x0731_dock>
-1.451369

> <Mpro-x1351_dock>
-1.234027

> <Mpro-x0540_dock>
-1.115024

> <Mpro-x0769_dock>
-1.017301

> <Mpro-x0981_dock>
-0.908728

> <Mpro-x1308_dock>
-0.88743

> <Mpro-x0755_dock>
-0.753086

> <Mpro-x0705_dock>
-0.629028

> <Mpro-x1402_dock>
-0.412786

> <Mpro-x0978_dock>
-0.23342

> <Mpro-x0426_dock>
-0.226655

> <Mpro-x0887_dock>
-0.16463

> <site>
active-noncovalent

$$$$
JON-UIO-066-7
  -OEChem-04022003013D

 38 39  0     1  0  0  0  0  0999 V2000
    9.6834    3.4402   24.3598 C   0  0  0  0  0  0  0  0  0  0  0  0
   10.8141    2.7543   23.9165 C   0  0  0  0  0  0  0  0  0  0  0  0
   10.7524   -1.9685   22.0600 C   0  0  0  0  0  0  0  0  0  0  0  0
    9.6671    4.8350   24.3546 C   0  0  0  0  0  0  0  0  0  0  0  0
    9.5840   -2.3124   22.7398 C   0  0  0  0  0  0  0  0  0  0  0  0
   11.6627   -1.0379   24.0953 C   0  0  0  0  0  0  0  0  0  0  0  0
   11.9124    4.8579   23.4630 C   0  0  0  0  0  0  0  0  0  0  0  0
   11.7918   -1.3313   22.7378 C   0  0  0  0  0  0  0  0  0  0  0  0
   11.9286    3.4631   23.4682 C   0  0  0  0  0  0  0  0  0  0  0  0
   10.7816    5.5438   23.9062 C   0  0  0  0  0  0  0  0  0  0  0  0
    9.4549   -2.0190   24.0973 C   0  0  0  0  0  0  0  0  0  0  0  0
   10.4942   -1.3817   24.7751 C   0  0  0  0  0  0  0  0  0  0  0  0
   13.6806    0.3198   22.5707 C   0  0  0  0  0  0  0  0  0  0  0  0
   14.0682   -2.1127   22.0113 C   0  0  0  0  0  0  0  0  0  0  0  0
   13.9320    3.4940   21.9261 C   0  0  0  0  0  0  0  0  0  0  0  0
   13.0641   -0.9574   21.9993 C   0  0  1  0  0  0  0  0  0  0  0  0
   13.1549    2.7176   22.9874 C   0  0  2  0  0  0  0  0  0  0  0  0
   12.8117    1.4002   22.5039 N   0  0  0  0  0  0  0  0  0  0  0  0
   14.8168    0.3581   23.0383 O   0  0  0  0  0  0  0  0  0  0  0  0
   10.7663    6.8832   23.9016 F   0  0  0  0  0  0  0  0  0  0  0  0
    8.3323   -2.3485   24.7494 F   0  0  0  0  0  0  0  0  0  0  0  0
   10.3709   -1.1010   26.0789 F   0  0  0  0  0  0  0  0  0  0  0  0
    8.8153    2.8884   24.7085 H   0  0  0  0  0  0  0  0  0  0  0  0
   10.8177    1.6674   23.9244 H   0  0  0  0  0  0  0  0  0  0  0  0
   10.8443   -2.2007   21.0024 H   0  0  0  0  0  0  0  0  0  0  0  0
    8.7870    5.3688   24.7002 H   0  0  0  0  0  0  0  0  0  0  0  0
    8.7745   -2.8088   22.2127 H   0  0  0  0  0  0  0  0  0  0  0  0
   12.4674   -0.5429   24.6325 H   0  0  0  0  0  0  0  0  0  0  0  0
   12.7755    5.4188   23.1149 H   0  0  0  0  0  0  0  0  0  0  0  0
   14.3679   -2.3900   23.0283 H   0  0  0  0  0  0  0  0  0  0  0  0
   13.6462   -3.0037   21.5334 H   0  0  0  0  0  0  0  0  0  0  0  0
   14.9786   -1.8363   21.4679 H   0  0  0  0  0  0  0  0  0  0  0  0
   13.3082    3.6944   21.0482 H   0  0  0  0  0  0  0  0  0  0  0  0
   14.2731    4.4553   22.3266 H   0  0  0  0  0  0  0  0  0  0  0  0
   14.8227    2.9509   21.5909 H   0  0  0  0  0  0  0  0  0  0  0  0
   12.8255   -0.7529   20.9462 H   0  0  0  0  0  0  0  0  0  0  0  0
   13.8287    2.5485   23.8363 H   0  0  0  0  0  0  0  0  0  0  0  0
   11.8921    1.2580   22.0963 H   0  0  0  0  0  0  0  0  0  0  0  0
  1  2  2  0  0  0  0
  1  4  1  0  0  0  0
  2  9  1  0  0  0  0
  3  5  2  0  0  0  0
  3  8  1  0  0  0  0
  4 10  2  0  0  0  0
  5 11  1  0  0  0  0
  6  8  2  0  0  0  0
  6 12  1  0  0  0  0
  7  9  2  0  0  0  0
  7 10  1  0  0  0  0
  8 16  1  0  0  0  0
  9 17  1  0  0  0  0
 10 20  1  0  0  0  0
 11 12  2  0  0  0  0
 11 21  1  0  0  0  0
 12 22  1  0  0  0  0
 13 16  1  0  0  0  0
 13 18  1  0  0  0  0
 13 19  2  0  0  0  0
 14 16  1  0  0  0  0
 15 17  1  0  0  0  0
 17 18  1  0  0  0  0
  1 23  1  0  0  0  0
  2 24  1  0  0  0  0
  3 25  1  0  0  0  0
  4 26  1  0  0  0  0
  5 27  1  0  0  0  0
  6 28  1  0  0  0  0
  7 29  1  0  0  0  0
 14 30  1  0  0  0  0
 14 31  1  0  0  0  0
 14 32  1  0  0  0  0
 15 33  1  0  0  0  0
 15 34  1  0  0  0  0
 15 35  1  0  0  0  0
 16 36  1  0  0  0  0
 17 37  1  0  0  0  0
 18 38  1  0  0  0  0
M  END
> <Hybrid2>
-8.247419

> <fragments>
x0195

> <Mpro-x0195_dock>
-8.247419

> <Mpro-x0161_dock>
-8.188323

> <Mpro-x1392_dock>
-8.093834

> <Mpro-x0678_dock>
-8.075755

> <Mpro-x0072_dock>
-8.04557

> <Mpro-x0830_dock>
-7.688145

> <Mpro-x1093_dock>
-7.600734

> <Mpro-x0104_dock>
-7.335526

> <Mpro-x0831_dock>
-7.27058

> <Mpro-x0749_dock>
-7.108144

> <Mpro-x0874_dock>
-6.572188

> <Mpro-x0967_dock>
-6.490121

> <Mpro-x0434_dock>
-6.390295

> <Mpro-x1311_dock>
-6.218244

> <Mpro-x0397_dock>
-5.941674

> <Mpro-x1249_dock>
-5.856745

> <Mpro-x0692_dock>
-5.847801

> <Mpro-x0946_dock>
-5.768384

> <Mpro-x0395_dock>
-5.658974

> <Mpro-x1077_dock>
-5.512027

> <Mpro-x0387_dock>
-5.297668

> <Mpro-x0107_dock>
-5.175713

> <Mpro-x0305_dock>
-4.981623

> <Mpro-x1375_dock>
-4.846724

> <Mpro-x1374_dock>
-4.719879

> <Mpro-x0759_dock>
-4.696664

> <Mpro-x1386_dock>
-4.675943

> <Mpro-x0708_dock>
-4.493323

> <Mpro-x1493_dock>
-4.361999

> <Mpro-x0770_dock>
-4.321264

> <Mpro-x0736_dock>
-4.284858

> <Mpro-x1418_dock>
-3.866847

> <Mpro-x1385_dock>
-3.762293

> <Mpro-x0354_dock>
-3.748676

> <Mpro-x1478_dock>
-3.648277

> <Mpro-x0752_dock>
-3.537254

> <Mpro-x1334_dock>
-3.478766

> <Mpro-x0774_dock>
-3.160583

> <Mpro-x1348_dock>
-3.018573

> <Mpro-x0786_dock>
-2.878677

> <Mpro-x1412_dock>
-2.786046

> <Mpro-x0820_dock>
-2.566949

> <Mpro-x1308_dock>
-2.494562

> <Mpro-x1187_dock>
-2.490697

> <Mpro-x0734_dock>
-2.485681

> <Mpro-x0769_dock>
-2.351235

> <Mpro-x0771_dock>
-2.141322

> <Mpro-x1458_dock>
-1.992576

> <Mpro-x1380_dock>
-1.914202

> <Mpro-x0691_dock>
-1.907407

> <Mpro-x1382_dock>
-1.871037

> <Mpro-x1358_dock>
-1.842489

> <Mpro-x1384_dock>
-1.814387

> <Mpro-x0978_dock>
-1.602993

> <Mpro-x1402_dock>
-1.48231

> <Mpro-x0755_dock>
-1.34775

> <Mpro-x1351_dock>
-1.329318

> <Mpro-x0731_dock>
-1.28112

> <Mpro-x0705_dock>
-0.95718

> <Mpro-x0689_dock>
-0.792152

> <Mpro-x1425_dock>
-0.580737

> <Mpro-x0540_dock>
-0.492698

> <Mpro-x0887_dock>
0.176827

> <Mpro-x0426_dock>
0.808455

> <Mpro-x0981_dock>
2.516587

> <site>
active-noncovalent

$$$$
MAK-UNK-4c6-1
  -OEChem-04022003013D

 31 32  0     0  0  0  0  0  0999 V2000
   11.7975   -0.7837   24.6064 C   0  0  0  0  0  0  0  0  0  0  0  0
   13.1704   -0.6777   24.5666 C   0  0  0  0  0  0  0  0  0  0  0  0
   12.2680   -1.7545   22.5476 C   0  0  0  0  0  0  0  0  0  0  0  0
   11.2747   -1.4076   23.4369 C   0  0  0  0  0  0  0  0  0  0  0  0
    7.2054   -5.4300   26.9557 C   0  0  0  0  0  0  0  0  0  0  0  0
    8.9418   -3.5923   26.6743 C   0  0  0  0  0  0  0  0  0  0  0  0
    8.5071   -5.2050   24.8628 C   0  0  0  0  0  0  0  0  0  0  0  0
    8.8577   -2.4430   25.6744 C   0  0  0  0  0  0  0  0  0  0  0  0
    8.4183   -4.0619   23.8579 C   0  0  0  0  0  0  0  0  0  0  0  0
    6.0749   -6.0646   26.1858 C   0  0  0  0  0  0  0  0  0  0  0  0
    8.1613   -4.7443   26.2082 N   0  0  0  0  0  0  0  0  0  0  0  0
    9.2716   -2.9269   24.3226 N   0  0  0  0  0  0  0  0  0  0  0  0
    7.2378   -5.5436   28.1836 O   0  0  0  0  0  0  0  0  0  0  0  0
    8.8356   -0.5068   23.5488 O   0  0  0  0  0  0  0  0  0  0  0  0
    9.4068   -2.2646   21.8366 O   0  0  0  0  0  0  0  0  0  0  0  0
   13.8234   -1.3286   23.1236 S   0  0  0  0  0  0  0  0  0  0  0  0
    9.5560   -1.7001   23.1606 S   0  0  0  0  0  0  0  0  0  0  0  0
   11.2016   -0.4283   25.4375 H   0  0  0  0  0  0  0  0  0  0  0  0
   13.8209   -0.2487   25.3154 H   0  0  0  0  0  0  0  0  0  0  0  0
   12.1599   -2.2367   21.5859 H   0  0  0  0  0  0  0  0  0  0  0  0
    9.9791   -3.9334   26.7775 H   0  0  0  0  0  0  0  0  0  0  0  0
    8.6144   -3.2446   27.6556 H   0  0  0  0  0  0  0  0  0  0  0  0
    7.8547   -6.0264   24.5504 H   0  0  0  0  0  0  0  0  0  0  0  0
    9.5308   -5.5957   24.9103 H   0  0  0  0  0  0  0  0  0  0  0  0
    7.8389   -2.0410   25.6296 H   0  0  0  0  0  0  0  0  0  0  0  0
    9.5336   -1.6425   25.9942 H   0  0  0  0  0  0  0  0  0  0  0  0
    8.7805   -4.4129   22.8857 H   0  0  0  0  0  0  0  0  0  0  0  0
    7.3817   -3.7247   23.7422 H   0  0  0  0  0  0  0  0  0  0  0  0
    6.3555   -7.0764   25.9125 H   0  0  0  0  0  0  0  0  0  0  0  0
    5.8807   -5.4796   25.2924 H   0  0  0  0  0  0  0  0  0  0  0  0
    5.1864   -6.0814   26.8088 H   0  0  0  0  0  0  0  0  0  0  0  0
  1  2  2  0  0  0  0
  1  4  1  0  0  0  0
  2 16  1  0  0  0  0
  3  4  2  0  0  0  0
  3 16  1  0  0  0  0
  4 17  1  0  0  0  0
  5 10  1  0  0  0  0
  5 11  1  0  0  0  0
  5 13  2  0  0  0  0
  6  8  1  0  0  0  0
  6 11  1  0  0  0  0
  7  9  1  0  0  0  0
  7 11  1  0  0  0  0
  8 12  1  0  0  0  0
  9 12  1  0  0  0  0
 12 17  1  0  0  0  0
 14 17  2  0  0  0  0
 15 17  2  0  0  0  0
  1 18  1  0  0  0  0
  2 19  1  0  0  0  0
  3 20  1  0  0  0  0
  6 21  1  0  0  0  0
  6 22  1  0  0  0  0
  7 23  1  0  0  0  0
  7 24  1  0  0  0  0
  8 25  1  0  0  0  0
  8 26  1  0  0  0  0
  9 27  1  0  0  0  0
  9 28  1  0  0  0  0
 10 29  1  0  0  0  0
 10 30  1  0  0  0  0
 10 31  1  0  0  0  0
M  END
> <Hybrid2>
-8.231065

> <fragments>
x0072

> <Mpro-x0072_dock>
-8.231065

> <Mpro-x0678_dock>
-7.798166

> <Mpro-x0749_dock>
-7.670101

> <Mpro-x0195_dock>
-7.13459

> <Mpro-x1093_dock>
-7.066418

> <Mpro-x1077_dock>
-6.787867

> <Mpro-x0831_dock>
-6.450336

> <Mpro-x1386_dock>
-6.299178

> <Mpro-x0830_dock>
-6.27003

> <Mpro-x1385_dock>
-6.222461

> <Mpro-x0104_dock>
-6.218218

> <Mpro-x1311_dock>
-6.190739

> <Mpro-x0161_dock>
-6.043008

> <Mpro-x0736_dock>
-5.994213

> <Mpro-x0708_dock>
-5.977063

> <Mpro-x1418_dock>
-5.931596

> <Mpro-x1392_dock>
-5.879178

> <Mpro-x0434_dock>
-5.778553

> <Mpro-x0395_dock>
-5.766671

> <Mpro-x1334_dock>
-5.684323

> <Mpro-x0874_dock>
-5.669569

> <Mpro-x0759_dock>
-5.583608

> <Mpro-x0692_dock>
-5.398771

> <Mpro-x0107_dock>
-5.196765

> <Mpro-x0774_dock>
-5.173684

> <Mpro-x1458_dock>
-5.134632

> <Mpro-x0946_dock>
-5.020124

> <Mpro-x0770_dock>
-4.99953

> <Mpro-x0387_dock>
-4.905875

> <Mpro-x0397_dock>
-4.889653

> <Mpro-x1412_dock>
-4.863603

> <Mpro-x0354_dock>
-4.846575

> <Mpro-x0967_dock>
-4.779543

> <Mpro-x0305_dock>
-4.63115

> <Mpro-x1382_dock>
-4.278649

> <Mpro-x1493_dock>
-4.278534

> <Mpro-x1380_dock>
-4.147185

> <Mpro-x1187_dock>
-4.092052

> <Mpro-x1249_dock>
-3.960055

> <Mpro-x1348_dock>
-3.872418

> <Mpro-x1358_dock>
-3.764751

> <Mpro-x0734_dock>
-3.680264

> <Mpro-x0771_dock>
-3.630343

> <Mpro-x1375_dock>
-3.609843

> <Mpro-x1374_dock>
-3.51852

> <Mpro-x1425_dock>
-3.301168

> <Mpro-x1384_dock>
-3.167013

> <Mpro-x1478_dock>
-3.09143

> <Mpro-x0752_dock>
-3.080526

> <Mpro-x0691_dock>
-2.973082

> <Mpro-x1308_dock>
-2.949262

> <Mpro-x0820_dock>
-2.94581

> <Mpro-x0769_dock>
-2.884719

> <Mpro-x1402_dock>
-2.786477

> <Mpro-x0731_dock>
-2.72397

> <Mpro-x0755_dock>
-2.723701

> <Mpro-x1351_dock>
-2.582135

> <Mpro-x0540_dock>
-2.531737

> <Mpro-x0689_dock>
-2.380683

> <Mpro-x0426_dock>
-1.843269

> <Mpro-x0705_dock>
-1.690184

> <Mpro-x0786_dock>
-1.577634

> <Mpro-x0981_dock>
-0.871766

> <Mpro-x0887_dock>
-0.619165

> <Mpro-x0978_dock>
-0.414652

> <site>
active-noncovalent

$$$$
WAR-XCH-b72-8
  -OEChem-04022003013D

 44 47  0     0  0  0  0  0  0999 V2000
    7.5526   -6.1754   25.7355 C   0  0  0  0  0  0  0  0  0  0  0  0
    6.6816   -5.7375   24.7440 C   0  0  0  0  0  0  0  0  0  0  0  0
    8.8565   -5.6765   25.8066 C   0  0  0  0  0  0  0  0  0  0  0  0
   12.1946    1.8768   24.2004 C   0  0  0  0  0  0  0  0  0  0  0  0
   13.1335    2.2207   22.0011 C   0  0  0  0  0  0  0  0  0  0  0  0
    7.0883   -4.7920   23.7991 C   0  0  0  0  0  0  0  0  0  0  0  0
   11.8474    3.2262   24.2633 C   0  0  0  0  0  0  0  0  0  0  0  0
   12.7863    3.5702   22.0639 C   0  0  0  0  0  0  0  0  0  0  0  0
    9.2930   -4.7203   24.8642 C   0  0  0  0  0  0  0  0  0  0  0  0
   12.8377    1.3740   23.0693 C   0  0  0  0  0  0  0  0  0  0  0  0
    8.3994   -4.2953   23.8764 C   0  0  0  0  0  0  0  0  0  0  0  0
   12.1432    4.0730   23.1950 C   0  0  0  0  0  0  0  0  0  0  0  0
   10.6044   -3.2962   23.8063 C   0  0  0  0  0  0  0  0  0  0  0  0
   12.3016   -1.5927   24.6136 C   0  0  0  0  0  0  0  0  0  0  0  0
   11.5954   -1.6281   22.1719 C   0  0  0  0  0  0  0  0  0  0  0  0
   13.5113   -0.7501   24.2041 C   0  0  0  0  0  0  0  0  0  0  0  0
   12.8288   -0.7819   21.8355 C   0  0  0  0  0  0  0  0  0  0  0  0
   11.8269   -2.4757   23.4404 C   0  0  0  0  0  0  0  0  0  0  0  0
   10.5517   -4.1393   24.8107 N   0  0  0  0  0  0  0  0  0  0  0  0
   13.1842    0.0280   23.0061 N   0  0  0  0  0  0  0  0  0  0  0  0
   10.1403    5.7273   22.5979 N   0  0  0  0  0  0  0  0  0  0  0  0
   11.6098    6.1469   24.6740 O   0  0  0  0  0  0  0  0  0  0  0  0
   12.5861    6.5067   22.3795 O   0  0  0  0  0  0  0  0  0  0  0  0
    9.1831   -3.1371   22.8678 S   0  0  0  0  0  0  0  0  0  0  0  0
   11.7096    5.7624   23.2730 S   0  0  0  0  0  0  0  0  0  0  0  0
    7.2185   -6.9113   26.4616 H   0  0  0  0  0  0  0  0  0  0  0  0
    5.6709   -6.1349   24.7018 H   0  0  0  0  0  0  0  0  0  0  0  0
    9.5281   -6.0249   26.5862 H   0  0  0  0  0  0  0  0  0  0  0  0
   11.9596    1.2260   25.0388 H   0  0  0  0  0  0  0  0  0  0  0  0
   13.6335    1.8390   21.1144 H   0  0  0  0  0  0  0  0  0  0  0  0
    6.4022   -4.4540   23.0286 H   0  0  0  0  0  0  0  0  0  0  0  0
   11.3468    3.6070   25.1494 H   0  0  0  0  0  0  0  0  0  0  0  0
   13.0218    4.2208   21.2257 H   0  0  0  0  0  0  0  0  0  0  0  0
   12.5695   -2.2201   25.4695 H   0  0  0  0  0  0  0  0  0  0  0  0
   11.4917   -0.9337   24.9453 H   0  0  0  0  0  0  0  0  0  0  0  0
   10.7290   -0.9697   22.3083 H   0  0  0  0  0  0  0  0  0  0  0  0
   11.3625   -2.2805   21.3233 H   0  0  0  0  0  0  0  0  0  0  0  0
   13.7712   -0.0857   25.0327 H   0  0  0  0  0  0  0  0  0  0  0  0
   14.3684   -1.4004   24.0072 H   0  0  0  0  0  0  0  0  0  0  0  0
   13.6608   -1.4315   21.5623 H   0  0  0  0  0  0  0  0  0  0  0  0
   12.5926   -0.1422   20.9851 H   0  0  0  0  0  0  0  0  0  0  0  0
   12.6394   -3.2165   23.2158 H   0  0  0  0  0  0  0  0  0  0  0  0
    9.3419    5.8790   23.2263 H   0  0  0  0  0  0  0  0  0  0  0  0
   10.0106    6.1231   21.6589 H   0  0  0  0  0  0  0  0  0  0  0  0
  1  2  1  0  0  0  0
  1  3  2  0  0  0  0
  2  6  2  0  0  0  0
  3  9  1  0  0  0  0
  4  7  2  0  0  0  0
  4 10  1  0  0  0  0
  5  8  1  0  0  0  0
  5 10  2  0  0  0  0
  6 11  1  0  0  0  0
  7 12  1  0  0  0  0
  8 12  2  0  0  0  0
  9 11  2  0  0  0  0
  9 19  1  0  0  0  0
 10 20  1  0  0  0  0
 11 24  1  0  0  0  0
 12 25  1  0  0  0  0
 13 18  1  0  0  0  0
 13 19  2  0  0  0  0
 13 24  1  0  0  0  0
 14 16  1  0  0  0  0
 14 18  1  0  0  0  0
 15 17  1  0  0  0  0
 15 18  1  0  0  0  0
 16 20  1  0  0  0  0
 17 20  1  0  0  0  0
 21 25  1  0  0  0  0
 22 25  2  0  0  0  0
 23 25  2  0  0  0  0
  1 26  1  0  0  0  0
  2 27  1  0  0  0  0
  3 28  1  0  0  0  0
  4 29  1  0  0  0  0
  5 30  1  0  0  0  0
  6 31  1  0  0  0  0
  7 32  1  0  0  0  0
  8 33  1  0  0  0  0
 14 34  1  0  0  0  0
 14 35  1  0  0  0  0
 15 36  1  0  0  0  0
 15 37  1  0  0  0  0
 16 38  1  0  0  0  0
 16 39  1  0  0  0  0
 17 40  1  0  0  0  0
 17 41  1  0  0  0  0
 18 42  1  0  0  0  0
 21 43  1  0  0  0  0
 21 44  1  0  0  0  0
M  END
> <Hybrid2>
-8.198689

> <fragments>
x0161

> <Mpro-x0161_dock>
-8.198689

> <Mpro-x0874_dock>
-7.850433

> <Mpro-x0104_dock>
-7.423832

> <Mpro-x0072_dock>
-7.388412

> <Mpro-x1093_dock>
-6.726749

> <Mpro-x0395_dock>
-6.008931

> <Mpro-x1077_dock>
-6.00102

> <Mpro-x0387_dock>
-5.559909

> <Mpro-x0195_dock>
-4.959762

> <Mpro-x0107_dock>
-4.524342

> <Mpro-x0830_dock>
-4.266556

> <Mpro-x0434_dock>
-4.15551

> <Mpro-x1311_dock>
-4.060149

> <Mpro-x0967_dock>
-4.04218

> <Mpro-x1392_dock>
-3.929163

> <Mpro-x0397_dock>
-3.738046

> <Mpro-x0305_dock>
-3.60579

> <Mpro-x1249_dock>
-3.190099

> <Mpro-x0946_dock>
-2.913245

> <Mpro-x0678_dock>
-2.852616

> <Mpro-x1187_dock>
-2.685456

> <Mpro-x0749_dock>
-2.623218

> <Mpro-x1425_dock>
-2.481061

> <Mpro-x1374_dock>
-2.057481

> <Mpro-x1358_dock>
-2.010988

> <Mpro-x0354_dock>
-1.717769

> <Mpro-x1348_dock>
-1.395799

> <Mpro-x0692_dock>
-1.198524

> <Mpro-x1493_dock>
-1.053408

> <Mpro-x1375_dock>
-0.938354

> <Mpro-x0752_dock>
-0.284066

> <Mpro-x1412_dock>
-0.096564

> <Mpro-x0831_dock>
0.175044

> <Mpro-x1308_dock>
0.213729

> <Mpro-x0734_dock>
0.392963

> <Mpro-x1385_dock>
0.480534

> <Mpro-x0771_dock>
0.488231

> <Mpro-x0540_dock>
0.73524

> <Mpro-x0887_dock>
0.73817

> <Mpro-x0769_dock>
0.831755

> <Mpro-x1380_dock>
0.846671

> <Mpro-x1334_dock>
0.880652

> <Mpro-x1478_dock>
0.9739

> <Mpro-x1384_dock>
0.994686

> <Mpro-x0691_dock>
1.001828

> <Mpro-x0755_dock>
1.186554

> <Mpro-x0689_dock>
1.294103

> <Mpro-x1351_dock>
1.311623

> <Mpro-x1458_dock>
1.372595

> <Mpro-x0774_dock>
1.521114

> <Mpro-x0426_dock>
1.596765

> <Mpro-x0820_dock>
1.740876

> <Mpro-x1386_dock>
1.796207

> <Mpro-x0978_dock>
2.001118

> <Mpro-x0786_dock>
2.008621

> <Mpro-x1418_dock>
2.39387

> <Mpro-x0705_dock>
2.446352

> <Mpro-x0736_dock>
2.537728

> <Mpro-x0708_dock>
2.56636

> <Mpro-x0770_dock>
2.627678

> <Mpro-x0731_dock>
2.807837

> <Mpro-x1402_dock>
2.972557

> <Mpro-x0759_dock>
3.714

> <Mpro-x1382_dock>
3.881525

> <Mpro-x0981_dock>
4.801518

> <site>
active-noncovalent

$$$$
BAR-COM-4e0-40
  -OEChem-04022003013D

 39 41  0     0  0  0  0  0  0999 V2000
   12.6489   -1.2156   22.4073 C   0  0  0  0  0  0  0  0  0  0  0  0
   13.1597    0.0774   22.3862 C   0  0  0  0  0  0  0  0  0  0  0  0
   11.4618   -1.4330   23.0881 C   0  0  0  0  0  0  0  0  0  0  0  0
   11.8252    6.3145   25.1137 C   0  0  0  0  0  0  0  0  0  0  0  0
   12.4775    1.0992   23.0374 C   0  0  0  0  0  0  0  0  0  0  0  0
   11.5541    5.7450   23.8605 C   0  0  0  0  0  0  0  0  0  0  0  0
   10.2777    6.1576   23.5671 C   0  0  0  0  0  0  0  0  0  0  0  0
   11.2980    0.7782   23.6898 C   0  0  0  0  0  0  0  0  0  0  0  0
    9.3849    5.9576   22.4770 C   0  0  0  0  0  0  0  0  0  0  0  0
    8.1637    6.5230   22.5062 C   0  0  0  0  0  0  0  0  0  0  0  0
    7.7333    7.3365   23.6291 C   0  0  0  0  0  0  0  0  0  0  0  0
    8.5723    7.5275   24.6593 C   0  0  0  0  0  0  0  0  0  0  0  0
   13.0175    2.4830   23.0199 C   0  0  0  0  0  0  0  0  0  0  0  0
   12.4442    4.8968   23.0505 C   0  0  0  0  0  0  0  0  0  0  0  0
    8.7737    2.5589   25.6750 C   0  0  0  0  0  0  0  0  0  0  0  0
    9.3933    1.3550   24.9918 C   0  0  0  0  0  0  0  0  0  0  0  0
   10.7708   -0.4659   23.7322 N   0  0  0  0  0  0  0  0  0  0  0  0
   10.8109    7.0356   25.5932 N   0  0  0  0  0  0  0  0  0  0  0  0
    9.8444    6.9444   24.6398 N   0  0  0  0  0  0  0  0  0  0  0  0
   12.0766    3.4964   23.0828 N   0  0  0  0  0  0  0  0  0  0  0  0
   14.2308    2.6526   22.9325 O   0  0  0  0  0  0  0  0  0  0  0  0
    8.5069    3.5596   24.6999 O   0  0  0  0  0  0  0  0  0  0  0  0
   10.5945    1.7561   24.3443 O   0  0  0  0  0  0  0  0  0  0  0  0
   13.1625   -2.0279   21.9058 H   0  0  0  0  0  0  0  0  0  0  0  0
   14.0893    0.2774   21.8601 H   0  0  0  0  0  0  0  0  0  0  0  0
   11.0207   -2.4232   23.1341 H   0  0  0  0  0  0  0  0  0  0  0  0
   12.7261    6.2355   25.7056 H   0  0  0  0  0  0  0  0  0  0  0  0
    9.6934    5.3526   21.6314 H   0  0  0  0  0  0  0  0  0  0  0  0
    7.4679    6.3847   21.6857 H   0  0  0  0  0  0  0  0  0  0  0  0
    6.7422    7.7737   23.6111 H   0  0  0  0  0  0  0  0  0  0  0  0
    8.3115    8.1235   25.5254 H   0  0  0  0  0  0  0  0  0  0  0  0
   12.4488    5.1975   21.9861 H   0  0  0  0  0  0  0  0  0  0  0  0
   13.4974    4.9518   23.3832 H   0  0  0  0  0  0  0  0  0  0  0  0
    9.4533    2.9823   26.4208 H   0  0  0  0  0  0  0  0  0  0  0  0
    7.8281    2.2840   26.1514 H   0  0  0  0  0  0  0  0  0  0  0  0
    8.7199    0.9408   24.2349 H   0  0  0  0  0  0  0  0  0  0  0  0
    9.6412    0.5834   25.7265 H   0  0  0  0  0  0  0  0  0  0  0  0
   11.0861    3.2823   23.0901 H   0  0  0  0  0  0  0  0  0  0  0  0
    8.1130    4.3108   25.1717 H   0  0  0  0  0  0  0  0  0  0  0  0
  1  2  2  0  0  0  0
  1  3  1  0  0  0  0
  2  5  1  0  0  0  0
  3 17  2  0  0  0  0
  4  6  1  0  0  0  0
  4 18  2  0  0  0  0
  5  8  2  0  0  0  0
  5 13  1  0  0  0  0
  6  7  2  0  0  0  0
  6 14  1  0  0  0  0
  7  9  1  0  0  0  0
  7 19  1  0  0  0  0
  8 17  1  0  0  0  0
  8 23  1  0  0  0  0
  9 10  2  0  0  0  0
 10 11  1  0  0  0  0
 11 12  2  0  0  0  0
 12 19  1  0  0  0  0
 13 20  1  0  0  0  0
 13 21  2  0  0  0  0
 14 20  1  0  0  0  0
 15 16  1  0  0  0  0
 15 22  1  0  0  0  0
 16 23  1  0  0  0  0
 18 19  1  0  0  0  0
  1 24  1  0  0  0  0
  2 25  1  0  0  0  0
  3 26  1  0  0  0  0
  4 27  1  0  0  0  0
  9 28  1  0  0  0  0
 10 29  1  0  0  0  0
 11 30  1  0  0  0  0
 12 31  1  0  0  0  0
 14 32  1  0  0  0  0
 14 33  1  0  0  0  0
 15 34  1  0  0  0  0
 15 35  1  0  0  0  0
 16 36  1  0  0  0  0
 16 37  1  0  0  0  0
 20 38  1  0  0  0  0
 22 39  1  0  0  0  0
M  END
> <Hybrid2>
-8.170192

> <fragments>
x0104

> <Mpro-x0104_dock>
-8.170192

> <Mpro-x0678_dock>
-7.574369

> <Mpro-x1093_dock>
-7.531377

> <Mpro-x0161_dock>
-7.350777

> <Mpro-x0749_dock>
-7.190059

> <Mpro-x0195_dock>
-7.170035

> <Mpro-x0946_dock>
-6.678708

> <Mpro-x1334_dock>
-6.598928

> <Mpro-x1385_dock>
-6.501744

> <Mpro-x0397_dock>
-6.413121

> <Mpro-x0072_dock>
-6.266004

> <Mpro-x0434_dock>
-6.214267

> <Mpro-x0830_dock>
-6.158438

> <Mpro-x0831_dock>
-5.732893

> <Mpro-x0107_dock>
-5.648312

> <Mpro-x0395_dock>
-5.631875

> <Mpro-x1249_dock>
-5.365029

> <Mpro-x0759_dock>
-5.27347

> <Mpro-x0692_dock>
-5.266439

> <Mpro-x1412_dock>
-5.237205

> <Mpro-x1418_dock>
-5.20483

> <Mpro-x1077_dock>
-5.186546

> <Mpro-x1375_dock>
-4.986412

> <Mpro-x0770_dock>
-4.834472

> <Mpro-x0874_dock>
-4.663046

> <Mpro-x1311_dock>
-4.661543

> <Mpro-x0708_dock>
-4.636758

> <Mpro-x1392_dock>
-4.495647

> <Mpro-x0774_dock>
-4.395129

> <Mpro-x0967_dock>
-4.342546

> <Mpro-x1187_dock>
-4.200802

> <Mpro-x0387_dock>
-3.986062

> <Mpro-x1386_dock>
-3.765376

> <Mpro-x1374_dock>
-3.739463

> <Mpro-x0734_dock>
-3.531077

> <Mpro-x0736_dock>
-3.427686

> <Mpro-x1348_dock>
-3.427173

> <Mpro-x0305_dock>
-3.344801

> <Mpro-x0981_dock>
-3.282052

> <Mpro-x1380_dock>
-3.258475

> <Mpro-x1458_dock>
-3.005976

> <Mpro-x0354_dock>
-2.837726

> <Mpro-x1478_dock>
-2.608799

> <Mpro-x0820_dock>
-2.59013

> <Mpro-x0771_dock>
-2.571654

> <Mpro-x1493_dock>
-2.244291

> <Mpro-x0786_dock>
-2.189652

> <Mpro-x1384_dock>
-2.17996

> <Mpro-x0752_dock>
-2.011037

> <Mpro-x0426_dock>
-1.65206

> <Mpro-x1358_dock>
-1.08888

> <Mpro-x1308_dock>
-0.975673

> <Mpro-x1425_dock>
-0.873398

> <Mpro-x0978_dock>
-0.702921

> <Mpro-x1402_dock>
-0.393353

> <Mpro-x0689_dock>
-0.337984

> <Mpro-x0887_dock>
-0.201855

> <Mpro-x0691_dock>
-0.143579

> <Mpro-x0769_dock>
-0.075677

> <Mpro-x0755_dock>
-0.054889

> <Mpro-x0705_dock>
0.026818

> <Mpro-x0731_dock>
0.03622

> <Mpro-x1351_dock>
0.172283

> <Mpro-x0540_dock>
0.319092

> <Mpro-x1382_dock>
1.014022

> <site>
active-noncovalent

$$$$
PAT-GYR-359-1
  -OEChem-04022003013D

 34 35  0     0  0  0  0  0  0999 V2000
    9.2860   -3.3846   24.3770 C   0  0  0  0  0  0  0  0  0  0  0  0
    9.9582   -2.4438   24.0533 C   0  0  0  0  0  0  0  0  0  0  0  0
   10.5860   -0.0932   24.3003 C   0  0  0  0  0  0  0  0  0  0  0  0
   11.7119   -1.4634   22.6596 C   0  0  0  0  0  0  0  0  0  0  0  0
   11.3678    0.9992   23.9245 C   0  0  0  0  0  0  0  0  0  0  0  0
   12.4936   -0.3710   22.2838 C   0  0  0  0  0  0  0  0  0  0  0  0
   10.7581   -1.3245   23.6678 C   0  0  0  0  0  0  0  0  0  0  0  0
   12.3216    0.8603   22.9163 C   0  0  0  0  0  0  0  0  0  0  0  0
   12.5184    4.0095   23.8720 C   0  0  0  0  0  0  0  0  0  0  0  0
   10.5670    5.3060   23.0741 C   0  0  0  0  0  0  0  0  0  0  0  0
   12.1731    6.4577   24.5484 C   0  0  0  0  0  0  0  0  0  0  0  0
    9.4479    5.9928   23.8409 C   0  0  0  0  0  0  0  0  0  0  0  0
   10.9772    7.1114   25.2326 C   0  0  0  0  0  0  0  0  0  0  0  0
   13.1619    2.0365   22.5107 C   0  0  0  0  0  0  0  0  0  0  0  0
   11.7780    5.2035   23.8915 N   0  0  0  0  0  0  0  0  0  0  0  0
   12.4603    3.2885   22.6851 N   0  0  0  0  0  0  0  0  0  0  0  0
   13.1754    3.6140   24.8407 O   0  0  0  0  0  0  0  0  0  0  0  0
    9.8916    7.2646   24.3176 O   0  0  0  0  0  0  0  0  0  0  0  0
    8.6897   -4.2191   24.6636 H   0  0  0  0  0  0  0  0  0  0  0  0
    9.8479    0.0303   25.0893 H   0  0  0  0  0  0  0  0  0  0  0  0
   11.8571   -2.4162   22.1558 H   0  0  0  0  0  0  0  0  0  0  0  0
   11.2274    1.9544   24.4234 H   0  0  0  0  0  0  0  0  0  0  0  0
   13.2331   -0.4880   21.4959 H   0  0  0  0  0  0  0  0  0  0  0  0
   10.2399    4.3231   22.7225 H   0  0  0  0  0  0  0  0  0  0  0  0
   10.8410    5.9026   22.1956 H   0  0  0  0  0  0  0  0  0  0  0  0
   12.5624    7.1100   23.7583 H   0  0  0  0  0  0  0  0  0  0  0  0
   12.9584    6.3060   25.2901 H   0  0  0  0  0  0  0  0  0  0  0  0
    8.5943    6.1665   23.1782 H   0  0  0  0  0  0  0  0  0  0  0  0
    9.0980    5.3813   24.6811 H   0  0  0  0  0  0  0  0  0  0  0  0
   10.6472    6.5301   26.1019 H   0  0  0  0  0  0  0  0  0  0  0  0
   11.2541    8.1089   25.5886 H   0  0  0  0  0  0  0  0  0  0  0  0
   14.0802    2.0786   23.1065 H   0  0  0  0  0  0  0  0  0  0  0  0
   13.4595    1.9630   21.4594 H   0  0  0  0  0  0  0  0  0  0  0  0
   11.9092    3.6517   21.9183 H   0  0  0  0  0  0  0  0  0  0  0  0
  1  2  3  0  0  0  0
  2  7  1  0  0  0  0
  3  5  2  0  0  0  0
  3  7  1  0  0  0  0
  4  6  1  0  0  0  0
  4  7  2  0  0  0  0
  5  8  1  0  0  0  0
  6  8  2  0  0  0  0
  8 14  1  0  0  0  0
  9 15  1  0  0  0  0
  9 16  1  0  0  0  0
  9 17  2  0  0  0  0
 10 12  1  0  0  0  0
 10 15  1  0  0  0  0
 11 13  1  0  0  0  0
 11 15  1  0  0  0  0
 12 18  1  0  0  0  0
 13 18  1  0  0  0  0
 14 16  1  0  0  0  0
  1 19  1  0  0  0  0
  3 20  1  0  0  0  0
  4 21  1  0  0  0  0
  5 22  1  0  0  0  0
  6 23  1  0  0  0  0
 10 24  1  0  0  0  0
 10 25  1  0  0  0  0
 11 26  1  0  0  0  0
 11 27  1  0  0  0  0
 12 28  1  0  0  0  0
 12 29  1  0  0  0  0
 13 30  1  0  0  0  0
 13 31  1  0  0  0  0
 14 32  1  0  0  0  0
 14 33  1  0  0  0  0
 16 34  1  0  0  0  0
M  END
> <Hybrid2>
-8.167992

> <fragments>
x0104

> <Mpro-x0104_dock>
-8.167992

> <Mpro-x0946_dock>
-7.30485

> <Mpro-x0749_dock>
-7.211057

> <Mpro-x0678_dock>
-7.132355

> <Mpro-x0161_dock>
-6.836159

> <Mpro-x0072_dock>
-6.764553

> <Mpro-x0434_dock>
-6.659355

> <Mpro-x1093_dock>
-6.364839

> <Mpro-x0397_dock>
-6.110449

> <Mpro-x1077_dock>
-5.946687

> <Mpro-x0830_dock>
-5.92408

> <Mpro-x0195_dock>
-5.9022

> <Mpro-x0395_dock>
-5.734261

> <Mpro-x1392_dock>
-5.407495

> <Mpro-x0107_dock>
-5.223798

> <Mpro-x0967_dock>
-5.169127

> <Mpro-x1249_dock>
-4.960211

> <Mpro-x0874_dock>
-4.885857

> <Mpro-x1375_dock>
-4.868645

> <Mpro-x1311_dock>
-4.846765

> <Mpro-x1187_dock>
-4.635251

> <Mpro-x1348_dock>
-4.580035

> <Mpro-x0387_dock>
-4.374063

> <Mpro-x0708_dock>
-4.326835

> <Mpro-x0692_dock>
-4.313428

> <Mpro-x0831_dock>
-4.30435

> <Mpro-x0734_dock>
-4.173394

> <Mpro-x0305_dock>
-4.120111

> <Mpro-x1412_dock>
-3.655468

> <Mpro-x0770_dock>
-3.548853

> <Mpro-x0759_dock>
-3.541744

> <Mpro-x1478_dock>
-3.515881

> <Mpro-x1385_dock>
-3.506478

> <Mpro-x1418_dock>
-3.397529

> <Mpro-x0978_dock>
-3.351007

> <Mpro-x0354_dock>
-3.350484

> <Mpro-x1493_dock>
-3.297247

> <Mpro-x1386_dock>
-3.287095

> <Mpro-x1334_dock>
-3.206524

> <Mpro-x1384_dock>
-2.963204

> <Mpro-x1382_dock>
-2.859576

> <Mpro-x0736_dock>
-2.70023

> <Mpro-x1308_dock>
-2.525471

> <Mpro-x1374_dock>
-2.510166

> <Mpro-x1380_dock>
-2.442702

> <Mpro-x0820_dock>
-2.294347

> <Mpro-x0540_dock>
-2.272302

> <Mpro-x1351_dock>
-2.120388

> <Mpro-x0771_dock>
-1.962199

> <Mpro-x1458_dock>
-1.961004

> <Mpro-x0752_dock>
-1.80483

> <Mpro-x0691_dock>
-1.794983

> <Mpro-x1358_dock>
-1.681597

> <Mpro-x0769_dock>
-1.62863

> <Mpro-x0786_dock>
-1.619432

> <Mpro-x0689_dock>
-1.388811

> <Mpro-x0774_dock>
-1.382387

> <Mpro-x0755_dock>
-1.132321

> <Mpro-x0981_dock>
-0.99686

> <Mpro-x1425_dock>
-0.80861

> <Mpro-x0887_dock>
-0.306397

> <Mpro-x0731_dock>
-0.146727

> <Mpro-x0705_dock>
-0.069785

> <Mpro-x0426_dock>
-0.055712

> <Mpro-x1402_dock>
0.154867

> <site>
active-noncovalent

$$$$
GIA-UNK-30c-3
  -OEChem-04022003013D

 44 46  0     0  0  0  0  0  0999 V2000
   12.2269   -2.3004   22.6045 C   0  0  0  0  0  0  0  0  0  0  0  0
   12.0222   -0.5432   24.2397 C   0  0  0  0  0  0  0  0  0  0  0  0
   13.6053   -2.1516   22.6623 C   0  0  0  0  0  0  0  0  0  0  0  0
   13.4058   -0.4390   24.2562 C   0  0  0  0  0  0  0  0  0  0  0  0
   11.4308   -1.4854   23.4036 C   0  0  0  0  0  0  0  0  0  0  0  0
    8.1624   -4.2910   24.7564 C   0  0  0  0  0  0  0  0  0  0  0  0
    8.5730   -3.3369   22.4813 C   0  0  0  0  0  0  0  0  0  0  0  0
    7.8083   -1.8594   24.4246 C   0  0  0  0  0  0  0  0  0  0  0  0
    9.3188   -2.0398   22.1719 C   0  0  0  0  0  0  0  0  0  0  0  0
    9.2482   -1.3490   24.5693 C   0  0  0  0  0  0  0  0  0  0  0  0
    8.1294   -4.7991   27.1759 C   0  0  0  0  0  0  0  0  0  0  0  0
    6.0109   -4.0977   26.0956 C   0  0  0  0  0  0  0  0  0  0  0  0
    7.6406   -6.1799   27.5870 C   0  0  0  0  0  0  0  0  0  0  0  0
    5.2640   -5.3945   26.3705 C   0  0  0  0  0  0  0  0  0  0  0  0
    7.7319   -3.2402   23.7641 C   0  0  0  0  0  0  0  0  0  0  0  0
   14.1486   -1.2364   23.4764 N   0  3  0  0  0  0  0  0  0  0  0  0
   10.0452   -1.6108   23.3646 N   0  0  0  0  0  0  0  0  0  0  0  0
    7.4528   -4.3452   25.9574 N   0  0  0  0  0  0  0  0  0  0  0  0
    9.1005   -5.0402   24.4722 O   0  0  0  0  0  0  0  0  0  0  0  0
    5.5722   -5.3544   28.9784 O   0  0  0  0  0  0  0  0  0  0  0  0
    5.4360   -7.5826   27.8054 O   0  0  0  0  0  0  0  0  0  0  0  0
    5.8746   -6.2011   27.8406 S   0  0  0  0  0  0  0  0  0  0  0  0
   11.7881   -3.0417   21.9438 H   0  0  0  0  0  0  0  0  0  0  0  0
   11.4216    0.1044   24.8709 H   0  0  0  0  0  0  0  0  0  0  0  0
   14.2997   -2.7384   22.0773 H   0  0  0  0  0  0  0  0  0  0  0  0
   13.9503    0.2624   24.8734 H   0  0  0  0  0  0  0  0  0  0  0  0
    7.9032   -3.5661   21.6491 H   0  0  0  0  0  0  0  0  0  0  0  0
    9.2891   -4.1565   22.5580 H   0  0  0  0  0  0  0  0  0  0  0  0
    7.3374   -1.8832   25.4124 H   0  0  0  0  0  0  0  0  0  0  0  0
    7.2403   -1.1472   23.8158 H   0  0  0  0  0  0  0  0  0  0  0  0
   10.0137   -2.1950   21.3447 H   0  0  0  0  0  0  0  0  0  0  0  0
    8.5932   -1.2823   21.8708 H   0  0  0  0  0  0  0  0  0  0  0  0
    9.2096   -0.2653   24.7694 H   0  0  0  0  0  0  0  0  0  0  0  0
    9.7301   -1.8116   25.4463 H   0  0  0  0  0  0  0  0  0  0  0  0
    7.9284   -4.0614   27.9613 H   0  0  0  0  0  0  0  0  0  0  0  0
    9.2132   -4.8274   27.0246 H   0  0  0  0  0  0  0  0  0  0  0  0
    5.5977   -3.6224   25.2041 H   0  0  0  0  0  0  0  0  0  0  0  0
    5.8792   -3.3907   26.9232 H   0  0  0  0  0  0  0  0  0  0  0  0
    7.8725   -6.9239   26.8179 H   0  0  0  0  0  0  0  0  0  0  0  0
    8.1054   -6.4944   28.5263 H   0  0  0  0  0  0  0  0  0  0  0  0
    4.1978   -5.2053   26.5260 H   0  0  0  0  0  0  0  0  0  0  0  0
    5.3751   -6.0965   25.5376 H   0  0  0  0  0  0  0  0  0  0  0  0
    6.6907   -3.4671   23.5330 H   0  0  0  0  0  0  0  0  0  0  0  0
   15.1636   -1.1429   23.5032 H   0  0  0  0  0  0  0  0  0  0  0  0
  1  3  2  0  0  0  0
  1  5  1  0  0  0  0
  2  4  1  0  0  0  0
  2  5  2  0  0  0  0
  3 16  1  0  0  0  0
  4 16  2  0  0  0  0
  5 17  1  0  0  0  0
  6 15  1  0  0  0  0
  6 18  1  0  0  0  0
  6 19  2  0  0  0  0
  7  9  1  0  0  0  0
  7 15  1  0  0  0  0
  8 10  1  0  0  0  0
  8 15  1  0  0  0  0
  9 17  1  0  0  0  0
 10 17  1  0  0  0  0
 11 13  1  0  0  0  0
 11 18  1  0  0  0  0
 12 14  1  0  0  0  0
 12 18  1  0  0  0  0
 13 22  1  0  0  0  0
 14 22  1  0  0  0  0
 20 22  2  0  0  0  0
 21 22  2  0  0  0  0
  1 23  1  0  0  0  0
  2 24  1  0  0  0  0
  3 25  1  0  0  0  0
  4 26  1  0  0  0  0
  7 27  1  0  0  0  0
  7 28  1  0  0  0  0
  8 29  1  0  0  0  0
  8 30  1  0  0  0  0
  9 31  1  0  0  0  0
  9 32  1  0  0  0  0
 10 33  1  0  0  0  0
 10 34  1  0  0  0  0
 11 35  1  0  0  0  0
 11 36  1  0  0  0  0
 12 37  1  0  0  0  0
 12 38  1  0  0  0  0
 13 39  1  0  0  0  0
 13 40  1  0  0  0  0
 14 41  1  0  0  0  0
 14 42  1  0  0  0  0
 15 43  1  0  0  0  0
 16 44  1  0  0  0  0
M  CHG  1  16   1
M  END
> <Hybrid2>
-8.145669

> <fragments>
x0072

> <Mpro-x0072_dock>
-8.145669

> <Mpro-x0161_dock>
-7.642064

> <Mpro-x1077_dock>
-7.016235

> <Mpro-x0946_dock>
-6.999258

> <Mpro-x0874_dock>
-6.966563

> <Mpro-x0678_dock>
-6.929448

> <Mpro-x1093_dock>
-6.842836

> <Mpro-x0749_dock>
-6.729274

> <Mpro-x1392_dock>
-6.573839

> <Mpro-x0195_dock>
-6.313012

> <Mpro-x0831_dock>
-6.166055

> <Mpro-x0104_dock>
-6.094203

> <Mpro-x0397_dock>
-5.822103

> <Mpro-x0830_dock>
-5.692623

> <Mpro-x0395_dock>
-5.552781

> <Mpro-x1311_dock>
-5.279408

> <Mpro-x0107_dock>
-5.144801

> <Mpro-x0967_dock>
-5.108908

> <Mpro-x0434_dock>
-4.68501

> <Mpro-x1334_dock>
-4.674736

> <Mpro-x0387_dock>
-4.54039

> <Mpro-x1385_dock>
-4.417926

> <Mpro-x1249_dock>
-4.133016

> <Mpro-x1375_dock>
-3.705779

> <Mpro-x0736_dock>
-3.498746

> <Mpro-x1412_dock>
-3.480467

> <Mpro-x0759_dock>
-3.431824

> <Mpro-x0692_dock>
-3.362369

> <Mpro-x1382_dock>
-3.329312

> <Mpro-x1348_dock>
-3.298071

> <Mpro-x1386_dock>
-3.117752

> <Mpro-x1493_dock>
-2.979588

> <Mpro-x1478_dock>
-2.742394

> <Mpro-x0354_dock>
-2.672522

> <Mpro-x1187_dock>
-2.580009

> <Mpro-x0770_dock>
-2.453135

> <Mpro-x1418_dock>
-2.399447

> <Mpro-x0752_dock>
-2.353357

> <Mpro-x1374_dock>
-2.180225

> <Mpro-x1458_dock>
-2.077556

> <Mpro-x0774_dock>
-1.919874

> <Mpro-x0691_dock>
-1.916288

> <Mpro-x0771_dock>
-1.895297

> <Mpro-x0734_dock>
-1.894874

> <Mpro-x1358_dock>
-1.769201

> <Mpro-x0769_dock>
-1.707896

> <Mpro-x0981_dock>
-1.648562

> <Mpro-x0305_dock>
-1.541142

> <Mpro-x1384_dock>
-1.516922

> <Mpro-x1380_dock>
-1.513746

> <Mpro-x0708_dock>
-1.355549

> <Mpro-x0689_dock>
-1.332954

> <Mpro-x0820_dock>
-1.309389

> <Mpro-x0755_dock>
-1.193691

> <Mpro-x1402_dock>
-1.158207

> <Mpro-x1308_dock>
-1.098432

> <Mpro-x1351_dock>
-0.872551

> <Mpro-x0731_dock>
-0.518075

> <Mpro-x0426_dock>
-0.381625

> <Mpro-x0786_dock>
-0.379357

> <Mpro-x1425_dock>
-0.208731

> <Mpro-x0887_dock>
-0.165408

> <Mpro-x0540_dock>
-0.112913

> <Mpro-x0705_dock>
0.250722

> <Mpro-x0978_dock>
0.570498

> <site>
active-noncovalent

$$$$
GER-UNI-05c-1
  -OEChem-04022003013D

 40 42  0     0  0  0  0  0  0999 V2000
    9.0375   -1.6102   22.9753 C   0  0  0  0  0  0  0  0  0  0  0  0
   10.1130   -0.1587   21.3710 C   0  0  0  0  0  0  0  0  0  0  0  0
    7.8124   -1.4031   22.3414 C   0  0  0  0  0  0  0  0  0  0  0  0
    8.8879    0.0483   20.7370 C   0  0  0  0  0  0  0  0  0  0  0  0
   10.7516    1.5878   24.3772 C   0  0  0  0  0  0  0  0  0  0  0  0
   12.7734    2.0687   23.1450 C   0  0  0  0  0  0  0  0  0  0  0  0
   10.4511    2.9493   24.4156 C   0  0  0  0  0  0  0  0  0  0  0  0
   12.4729    3.4303   23.1833 C   0  0  0  0  0  0  0  0  0  0  0  0
   12.1479   -2.3698   23.3508 C   0  0  0  0  0  0  0  0  0  0  0  0
   10.1878   -0.9879   22.4901 C   0  0  0  0  0  0  0  0  0  0  0  0
    7.7376   -0.5739   21.2222 C   0  0  0  0  0  0  0  0  0  0  0  0
   11.9128    1.1475   23.7419 C   0  0  0  0  0  0  0  0  0  0  0  0
   11.3117    3.8706   23.8186 C   0  0  0  0  0  0  0  0  0  0  0  0
   11.4547   -1.2020   23.1457 C   0  0  0  0  0  0  0  0  0  0  0  0
   13.3090   -1.9733   24.0410 C   0  0  0  0  0  0  0  0  0  0  0  0
    6.4276   -0.3522   20.5448 C   0  0  0  0  0  0  0  0  0  0  0  0
   14.4086   -2.8312   24.5133 C   0  0  0  0  0  0  0  0  0  0  0  0
   13.3545   -0.6564   24.2597 N   0  0  0  0  0  0  0  0  0  0  0  0
   12.2133   -0.2153   23.7035 N   0  0  0  0  0  0  0  0  0  0  0  0
   10.0210    5.7452   22.4313 N   0  0  0  0  0  0  0  0  0  0  0  0
   10.0660    5.8219   25.0077 O   0  0  0  0  0  0  0  0  0  0  0  0
   12.1733    6.3267   23.7223 O   0  0  0  0  0  0  0  0  0  0  0  0
   14.2478   -4.1657   24.2295 F   0  0  0  0  0  0  0  0  0  0  0  0
   15.6372   -2.5183   23.9848 F   0  0  0  0  0  0  0  0  0  0  0  0
   14.5909   -2.7831   25.8726 F   0  0  0  0  0  0  0  0  0  0  0  0
   10.9345    5.5747   23.8652 S   0  0  0  0  0  0  0  0  0  0  0  0
    9.0794   -2.2592   23.8468 H   0  0  0  0  0  0  0  0  0  0  0  0
   11.0008    0.3331   20.9806 H   0  0  0  0  0  0  0  0  0  0  0  0
    6.9212   -1.8915   22.7264 H   0  0  0  0  0  0  0  0  0  0  0  0
    8.8393    0.6960   19.8657 H   0  0  0  0  0  0  0  0  0  0  0  0
   10.0716    0.8807   24.8463 H   0  0  0  0  0  0  0  0  0  0  0  0
   13.6815    1.7392   22.6460 H   0  0  0  0  0  0  0  0  0  0  0  0
    9.5437    3.2817   24.9127 H   0  0  0  0  0  0  0  0  0  0  0  0
   13.1500    4.1395   22.7148 H   0  0  0  0  0  0  0  0  0  0  0  0
   11.8573   -3.3652   23.0460 H   0  0  0  0  0  0  0  0  0  0  0  0
    5.9130    0.5124   20.9817 H   0  0  0  0  0  0  0  0  0  0  0  0
    6.5602   -0.1715   19.4702 H   0  0  0  0  0  0  0  0  0  0  0  0
    5.7756   -1.2303   20.6410 H   0  0  0  0  0  0  0  0  0  0  0  0
   10.5173    5.6855   21.5338 H   0  0  0  0  0  0  0  0  0  0  0  0
    9.0763    5.3424   22.4109 H   0  0  0  0  0  0  0  0  0  0  0  0
  1  3  2  0  0  0  0
  1 10  1  0  0  0  0
  2  4  1  0  0  0  0
  2 10  2  0  0  0  0
  3 11  1  0  0  0  0
  4 11  2  0  0  0  0
  5  7  2  0  0  0  0
  5 12  1  0  0  0  0
  6  8  1  0  0  0  0
  6 12  2  0  0  0  0
  7 13  1  0  0  0  0
  8 13  2  0  0  0  0
  9 14  2  0  0  0  0
  9 15  1  0  0  0  0
 10 14  1  0  0  0  0
 11 16  1  0  0  0  0
 12 19  1  0  0  0  0
 13 26  1  0  0  0  0
 14 19  1  0  0  0  0
 15 17  1  0  0  0  0
 15 18  2  0  0  0  0
 17 23  1  0  0  0  0
 17 24  1  0  0  0  0
 17 25  1  0  0  0  0
 18 19  1  0  0  0  0
 20 26  1  0  0  0  0
 21 26  2  0  0  0  0
 22 26  2  0  0  0  0
  1 27  1  0  0  0  0
  2 28  1  0  0  0  0
  3 29  1  0  0  0  0
  4 30  1  0  0  0  0
  5 31  1  0  0  0  0
  6 32  1  0  0  0  0
  7 33  1  0  0  0  0
  8 34  1  0  0  0  0
  9 35  1  0  0  0  0
 16 36  1  0  0  0  0
 16 37  1  0  0  0  0
 16 38  1  0  0  0  0
 20 39  1  0  0  0  0
 20 40  1  0  0  0  0
M  END
> <Hybrid2>
-8.128628

> <fragments>
x0161

> <Mpro-x0161_dock>
-8.128628

> <Mpro-x0072_dock>
-7.758485

> <Mpro-x0107_dock>
-7.642033

> <Mpro-x1093_dock>
-7.538595

> <Mpro-x0195_dock>
-7.245675

> <Mpro-x0678_dock>
-6.960762

> <Mpro-x1386_dock>
-6.904158

> <Mpro-x0874_dock>
-6.780659

> <Mpro-x1077_dock>
-6.489846

> <Mpro-x0305_dock>
-6.347652

> <Mpro-x1392_dock>
-6.165452

> <Mpro-x0395_dock>
-6.053912

> <Mpro-x0434_dock>
-6.007599

> <Mpro-x0770_dock>
-5.997344

> <Mpro-x0387_dock>
-5.6725

> <Mpro-x0692_dock>
-5.220097

> <Mpro-x0831_dock>
-5.172281

> <Mpro-x1311_dock>
-5.066732

> <Mpro-x0759_dock>
-5.061833

> <Mpro-x1187_dock>
-4.998487

> <Mpro-x1418_dock>
-4.723418

> <Mpro-x0830_dock>
-4.388581

> <Mpro-x0749_dock>
-4.370184

> <Mpro-x0708_dock>
-3.956074

> <Mpro-x0354_dock>
-3.793851

> <Mpro-x0397_dock>
-3.685472

> <Mpro-x1385_dock>
-3.487341

> <Mpro-x1249_dock>
-3.469797

> <Mpro-x0104_dock>
-3.301279

> <Mpro-x0946_dock>
-2.942872

> <Mpro-x0736_dock>
-2.757638

> <Mpro-x0967_dock>
-2.703965

> <Mpro-x1380_dock>
-2.591712

> <Mpro-x1412_dock>
-2.51652

> <Mpro-x0774_dock>
-2.011283

> <Mpro-x1358_dock>
-1.988904

> <Mpro-x1374_dock>
-1.82287

> <Mpro-x1334_dock>
-1.774228

> <Mpro-x1382_dock>
-1.655472

> <Mpro-x1458_dock>
-1.514821

> <Mpro-x1348_dock>
-1.436714

> <Mpro-x0734_dock>
-1.114236

> <Mpro-x1425_dock>
-1.075933

> <Mpro-x0705_dock>
-0.545592

> <Mpro-x1351_dock>
-0.438046

> <Mpro-x1384_dock>
-0.36048

> <Mpro-x1375_dock>
-0.333399

> <Mpro-x1493_dock>
-0.297493

> <Mpro-x0820_dock>
-0.246917

> <Mpro-x0426_dock>
-0.061281

> <Mpro-x0887_dock>
0.196203

> <Mpro-x0540_dock>
0.27414

> <Mpro-x1478_dock>
0.615998

> <Mpro-x1308_dock>
0.713611

> <Mpro-x0755_dock>
0.891849

> <Mpro-x1402_dock>
0.917523

> <Mpro-x0731_dock>
1.065966

> <Mpro-x0771_dock>
1.144192

> <Mpro-x0769_dock>
1.305276

> <Mpro-x0752_dock>
1.530926

> <Mpro-x0691_dock>
1.668312

> <Mpro-x0786_dock>
1.783576

> <Mpro-x0689_dock>
2.118899

> <Mpro-x0981_dock>
2.136178

> <Mpro-x0978_dock>
2.484577

> <site>
active-noncovalent

$$$$
WAR-XCH-b72-10
  -OEChem-04022003013D

 48 50  0     0  0  0  0  0  0999 V2000
    9.5647   -0.6397   24.8097 C   0  0  0  0  0  0  0  0  0  0  0  0
   10.8950   -1.9386   23.2669 C   0  0  0  0  0  0  0  0  0  0  0  0
    8.6857   -1.7129   24.9553 C   0  0  0  0  0  0  0  0  0  0  0  0
   10.0160   -3.0119   23.4126 C   0  0  0  0  0  0  0  0  0  0  0  0
   10.6693   -0.7525   23.9654 C   0  0  0  0  0  0  0  0  0  0  0  0
    8.9114   -2.8990   24.2568 C   0  0  0  0  0  0  0  0  0  0  0  0
    8.3538    6.2595   23.3805 C   0  0  0  0  0  0  0  0  0  0  0  0
    8.1635    5.0739   22.4404 C   0  0  0  0  0  0  0  0  0  0  0  0
    9.8288    6.6179   23.5258 C   0  0  0  0  0  0  0  0  0  0  0  0
   10.9771    2.5493   24.6346 C   0  0  0  0  0  0  0  0  0  0  0  0
   11.1872    2.0738   22.1526 C   0  0  0  0  0  0  0  0  0  0  0  0
   11.7622    1.2641   24.9211 C   0  0  0  0  0  0  0  0  0  0  0  0
   11.9688    0.8063   22.5033 C   0  0  0  0  0  0  0  0  0  0  0  0
    9.0028    3.8774   22.8652 C   0  0  0  0  0  0  0  0  0  0  0  0
   10.6623    5.4160   23.9463 C   0  0  0  0  0  0  0  0  0  0  0  0
   11.3449    3.1175   23.2615 C   0  0  0  0  0  0  0  0  0  0  0  0
   11.5463    0.3175   23.8198 N   0  0  0  0  0  0  0  0  0  0  0  0
    8.5238   -5.0720   25.7510 N   0  0  0  0  0  0  0  0  0  0  0  0
   10.4526    4.2903   22.9614 N   0  3  0  0  0  0  0  0  0  0  0  0
    6.5169   -3.7234   24.8569 O   0  0  0  0  0  0  0  0  0  0  0  0
    7.9046   -5.0802   23.2504 O   0  0  0  0  0  0  0  0  0  0  0  0
    7.8113   -4.2426   24.4380 S   0  0  0  0  0  0  0  0  0  0  0  0
    9.3791    0.2800   25.3585 H   0  0  0  0  0  0  0  0  0  0  0  0
   11.7534   -2.0376   22.6071 H   0  0  0  0  0  0  0  0  0  0  0  0
    7.8284   -1.6137   25.6156 H   0  0  0  0  0  0  0  0  0  0  0  0
   10.2016   -3.9311   22.8633 H   0  0  0  0  0  0  0  0  0  0  0  0
    7.7967    7.1248   23.0043 H   0  0  0  0  0  0  0  0  0  0  0  0
    7.9389    6.0143   24.3659 H   0  0  0  0  0  0  0  0  0  0  0  0
    7.1054    4.7896   22.4196 H   0  0  0  0  0  0  0  0  0  0  0  0
    8.4324    5.3678   21.4181 H   0  0  0  0  0  0  0  0  0  0  0  0
   10.2069    7.0133   22.5747 H   0  0  0  0  0  0  0  0  0  0  0  0
    9.9398    7.4174   24.2670 H   0  0  0  0  0  0  0  0  0  0  0  0
    9.9113    2.3525   24.6948 H   0  0  0  0  0  0  0  0  0  0  0  0
   11.2198    3.2866   25.3962 H   0  0  0  0  0  0  0  0  0  0  0  0
   11.5765    2.4841   21.2258 H   0  0  0  0  0  0  0  0  0  0  0  0
   10.1417    1.8346   21.9976 H   0  0  0  0  0  0  0  0  0  0  0  0
   12.8199    1.5151   25.0030 H   0  0  0  0  0  0  0  0  0  0  0  0
   11.4419    0.8242   25.8650 H   0  0  0  0  0  0  0  0  0  0  0  0
   11.8081    0.0358   21.7453 H   0  0  0  0  0  0  0  0  0  0  0  0
   13.0350    1.0482   22.5135 H   0  0  0  0  0  0  0  0  0  0  0  0
    8.6997    3.4938   23.8458 H   0  0  0  0  0  0  0  0  0  0  0  0
    8.9370    3.0764   22.1218 H   0  0  0  0  0  0  0  0  0  0  0  0
   11.7286    5.6647   23.9404 H   0  0  0  0  0  0  0  0  0  0  0  0
   10.3767    5.0484   24.9383 H   0  0  0  0  0  0  0  0  0  0  0  0
   12.3673    3.5121   23.2723 H   0  0  0  0  0  0  0  0  0  0  0  0
    8.0432   -5.0410   26.6585 H   0  0  0  0  0  0  0  0  0  0  0  0
    8.9920   -5.9661   25.5595 H   0  0  0  0  0  0  0  0  0  0  0  0
   10.7375    4.6339   22.0352 H   0  0  0  0  0  0  0  0  0  0  0  0
  1  3  2  0  0  0  0
  1  5  1  0  0  0  0
  2  4  1  0  0  0  0
  2  5  2  0  0  0  0
  3  6  1  0  0  0  0
  4  6  2  0  0  0  0
  5 17  1  0  0  0  0
  6 22  1  0  0  0  0
  7  8  1  0  0  0  0
  7  9  1  0  0  0  0
  8 14  1  0  0  0  0
  9 15  1  0  0  0  0
 10 12  1  0  0  0  0
 10 16  1  0  0  0  0
 11 13  1  0  0  0  0
 11 16  1  0  0  0  0
 12 17  1  0  0  0  0
 13 17  1  0  0  0  0
 14 19  1  0  0  0  0
 15 19  1  0  0  0  0
 16 19  1  0  0  0  0
 18 22  1  0  0  0  0
 20 22  2  0  0  0  0
 21 22  2  0  0  0  0
  1 23  1  0  0  0  0
  2 24  1  0  0  0  0
  3 25  1  0  0  0  0
  4 26  1  0  0  0  0
  7 27  1  0  0  0  0
  7 28  1  0  0  0  0
  8 29  1  0  0  0  0
  8 30  1  0  0  0  0
  9 31  1  0  0  0  0
  9 32  1  0  0  0  0
 10 33  1  0  0  0  0
 10 34  1  0  0  0  0
 11 35  1  0  0  0  0
 11 36  1  0  0  0  0
 12 37  1  0  0  0  0
 12 38  1  0  0  0  0
 13 39  1  0  0  0  0
 13 40  1  0  0  0  0
 14 41  1  0  0  0  0
 14 42  1  0  0  0  0
 15 43  1  0  0  0  0
 15 44  1  0  0  0  0
 16 45  1  0  0  0  0
 18 46  1  0  0  0  0
 18 47  1  0  0  0  0
 19 48  1  0  0  0  0
M  CHG  1  19   1
M  END
> <Hybrid2>
-8.096125

> <fragments>
x0104

> <Mpro-x0104_dock>
-8.096125

> <Mpro-x0072_dock>
-7.911673

> <Mpro-x0195_dock>
-7.881381

> <Mpro-x0161_dock>
-7.437247

> <Mpro-x1077_dock>
-7.347058

> <Mpro-x0874_dock>
-6.884156

> <Mpro-x0946_dock>
-6.688106

> <Mpro-x0830_dock>
-6.391494

> <Mpro-x1392_dock>
-6.336287

> <Mpro-x0749_dock>
-5.85517

> <Mpro-x0692_dock>
-5.478482

> <Mpro-x0678_dock>
-4.943044

> <Mpro-x1311_dock>
-4.694097

> <Mpro-x0387_dock>
-4.603627

> <Mpro-x0967_dock>
-4.379052

> <Mpro-x1093_dock>
-4.338579

> <Mpro-x1334_dock>
-4.271379

> <Mpro-x0395_dock>
-4.245592

> <Mpro-x1249_dock>
-3.754422

> <Mpro-x0107_dock>
-3.664849

> <Mpro-x0397_dock>
-3.482077

> <Mpro-x0354_dock>
-3.325101

> <Mpro-x1187_dock>
-3.273983

> <Mpro-x1374_dock>
-2.824242

> <Mpro-x0305_dock>
-2.748515

> <Mpro-x1385_dock>
-2.532588

> <Mpro-x1375_dock>
-2.5075

> <Mpro-x1348_dock>
-2.412384

> <Mpro-x0434_dock>
-2.305497

> <Mpro-x1380_dock>
-2.261601

> <Mpro-x1412_dock>
-2.220462

> <Mpro-x0831_dock>
-2.188536

> <Mpro-x1386_dock>
-2.183507

> <Mpro-x1418_dock>
-2.175683

> <Mpro-x1493_dock>
-1.762982

> <Mpro-x0770_dock>
-1.656091

> <Mpro-x0708_dock>
-1.504542

> <Mpro-x0736_dock>
-1.477425

> <Mpro-x0774_dock>
-1.231726

> <Mpro-x0752_dock>
-1.182036

> <Mpro-x1358_dock>
-1.032679

> <Mpro-x0540_dock>
-0.893337

> <Mpro-x0759_dock>
-0.677545

> <Mpro-x1458_dock>
-0.674922

> <Mpro-x1478_dock>
-0.538914

> <Mpro-x1351_dock>
-0.419559

> <Mpro-x0978_dock>
-0.332138

> <Mpro-x0734_dock>
-0.073814

> <Mpro-x0426_dock>
-0.052804

> <Mpro-x1384_dock>
0.075382

> <Mpro-x1308_dock>
0.091349

> <Mpro-x0820_dock>
0.328666

> <Mpro-x0887_dock>
0.356124

> <Mpro-x0691_dock>
0.40278

> <Mpro-x1425_dock>
0.414851

> <Mpro-x0771_dock>
0.582071

> <Mpro-x0705_dock>
0.828922

> <Mpro-x1382_dock>
0.941391

> <Mpro-x0689_dock>
0.962036

> <Mpro-x0755_dock>
0.971907

> <Mpro-x0769_dock>
1.141822

> <Mpro-x0786_dock>
1.30331

> <Mpro-x1402_dock>
1.935869

> <Mpro-x0731_dock>
2.015728

> <Mpro-x0981_dock>
3.282734

> <site>
active-noncovalent

$$$$
WAR-XCH-b68-48
  -OEChem-04022003013D

 51 53  0     1  0  0  0  0  0999 V2000
    9.8753    4.8320   24.6810 C   0  0  0  0  0  0  0  0  0  0  0  0
   10.3628    6.6319   23.1449 C   0  0  0  0  0  0  0  0  0  0  0  0
   10.7134   -1.9336   23.5593 C   0  0  0  0  0  0  0  0  0  0  0  0
    9.1861   -0.5864   24.8592 C   0  0  0  0  0  0  0  0  0  0  0  0
    8.5275    5.1911   24.6740 C   0  0  0  0  0  0  0  0  0  0  0  0
    9.0150    6.9910   23.1379 C   0  0  0  0  0  0  0  0  0  0  0  0
   10.0375   -3.0862   23.9597 C   0  0  0  0  0  0  0  0  0  0  0  0
    8.5102   -1.7390   25.2596 C   0  0  0  0  0  0  0  0  0  0  0  0
   10.7930    5.5524   23.9165 C   0  0  0  0  0  0  0  0  0  0  0  0
   10.2877   -0.6837   24.0091 C   0  0  0  0  0  0  0  0  0  0  0  0
    8.0973    6.2706   23.9024 C   0  0  0  0  0  0  0  0  0  0  0  0
    8.9359   -2.9889   24.8098 C   0  0  0  0  0  0  0  0  0  0  0  0
   13.0657    1.5948   22.9651 C   0  0  0  0  0  0  0  0  0  0  0  0
   10.8457    2.6860   22.5230 C   0  0  0  0  0  0  0  0  0  0  0  0
   12.3882    0.6239   23.9347 C   0  0  0  0  0  0  0  0  0  0  0  0
   10.1815    1.7117   23.4970 C   0  0  0  0  0  0  0  0  0  0  0  0
   12.3229    2.9205   22.8273 C   0  0  0  0  0  0  0  0  0  0  0  0
   13.0479    5.8790   25.0125 C   0  0  0  0  0  0  0  0  0  0  0  0
   12.2533    5.1634   23.9230 C   0  0  1  0  0  0  0  0  0  0  0  0
   10.9660    0.4739   23.6073 N   0  0  0  0  0  0  0  0  0  0  0  0
    6.9176   -4.5679   24.0764 N   0  0  0  0  0  0  0  0  0  0  0  0
   12.4564    3.7010   24.0887 N   0  3  0  0  0  0  0  0  0  0  0  0
    9.0065   -5.5585   25.2169 O   0  0  0  0  0  0  0  0  0  0  0  0
    7.4115   -4.1548   26.5708 O   0  0  0  0  0  0  0  0  0  0  0  0
    6.8026    6.6138   23.8935 F   0  0  0  0  0  0  0  0  0  0  0  0
    8.0897   -4.4311   25.3121 S   0  0  0  0  0  0  0  0  0  0  0  0
   10.2011    3.9899   25.2859 H   0  0  0  0  0  0  0  0  0  0  0  0
   11.0706    7.1989   22.5459 H   0  0  0  0  0  0  0  0  0  0  0  0
   11.5707   -2.0210   22.8968 H   0  0  0  0  0  0  0  0  0  0  0  0
    8.8454    0.3828   25.2148 H   0  0  0  0  0  0  0  0  0  0  0  0
    7.8128    4.6299   25.2685 H   0  0  0  0  0  0  0  0  0  0  0  0
    8.6798    7.8316   22.5377 H   0  0  0  0  0  0  0  0  0  0  0  0
   10.3780   -4.0546   23.6033 H   0  0  0  0  0  0  0  0  0  0  0  0
    7.6533   -1.6513   25.9223 H   0  0  0  0  0  0  0  0  0  0  0  0
   14.1018    1.7673   23.2812 H   0  0  0  0  0  0  0  0  0  0  0  0
   13.1240    1.1198   21.9769 H   0  0  0  0  0  0  0  0  0  0  0  0
   10.7552    2.2826   21.5057 H   0  0  0  0  0  0  0  0  0  0  0  0
   10.2989    3.6368   22.5226 H   0  0  0  0  0  0  0  0  0  0  0  0
   12.8962   -0.3465   23.8657 H   0  0  0  0  0  0  0  0  0  0  0  0
   12.5009    0.9757   24.9679 H   0  0  0  0  0  0  0  0  0  0  0  0
   10.0705    2.1744   24.4856 H   0  0  0  0  0  0  0  0  0  0  0  0
    9.1724    1.4864   23.1288 H   0  0  0  0  0  0  0  0  0  0  0  0
   12.7819    3.5379   22.0462 H   0  0  0  0  0  0  0  0  0  0  0  0
   12.6438    5.6840   26.0121 H   0  0  0  0  0  0  0  0  0  0  0  0
   14.0945    5.5544   25.0084 H   0  0  0  0  0  0  0  0  0  0  0  0
   13.0347    6.9633   24.8548 H   0  0  0  0  0  0  0  0  0  0  0  0
   12.7042    5.3966   22.9513 H   0  0  0  0  0  0  0  0  0  0  0  0
    7.0278   -5.3236   23.3892 H   0  0  0  0  0  0  0  0  0  0  0  0
    5.9397   -4.3629   24.3148 H   0  0  0  0  0  0  0  0  0  0  0  0
   11.7829    3.3410   24.7772 H   0  0  0  0  0  0  0  0  0  0  0  0
   13.3879    3.5310   24.4897 H   0  0  0  0  0  0  0  0  0  0  0  0
  1  5  2  0  0  0  0
  1  9  1  0  0  0  0
  2  6  1  0  0  0  0
  2  9  2  0  0  0  0
  3  7  2  0  0  0  0
  3 10  1  0  0  0  0
  4  8  1  0  0  0  0
  4 10  2  0  0  0  0
  5 11  1  0  0  0  0
  6 11  2  0  0  0  0
  7 12  1  0  0  0  0
  8 12  2  0  0  0  0
  9 19  1  0  0  0  0
 10 20  1  0  0  0  0
 11 25  1  0  0  0  0
 12 26  1  0  0  0  0
 13 15  1  0  0  0  0
 13 17  1  0  0  0  0
 14 16  1  0  0  0  0
 14 17  1  0  0  0  0
 15 20  1  0  0  0  0
 16 20  1  0  0  0  0
 17 22  1  0  0  0  0
 18 19  1  0  0  0  0
 19 22  1  0  0  0  0
 21 26  1  0  0  0  0
 23 26  2  0  0  0  0
 24 26  2  0  0  0  0
  1 27  1  0  0  0  0
  2 28  1  0  0  0  0
  3 29  1  0  0  0  0
  4 30  1  0  0  0  0
  5 31  1  0  0  0  0
  6 32  1  0  0  0  0
  7 33  1  0  0  0  0
  8 34  1  0  0  0  0
 13 35  1  0  0  0  0
 13 36  1  0  0  0  0
 14 37  1  0  0  0  0
 14 38  1  0  0  0  0
 15 39  1  0  0  0  0
 15 40  1  0  0  0  0
 16 41  1  0  0  0  0
 16 42  1  0  0  0  0
 17 43  1  0  0  0  0
 18 44  1  0  0  0  0
 18 45  1  0  0  0  0
 18 46  1  0  0  0  0
 19 47  1  0  0  0  0
 21 48  1  0  0  0  0
 21 49  1  0  0  0  0
 22 50  1  0  0  0  0
 22 51  1  0  0  0  0
M  CHG  1  22   1
M  END
> <Hybrid2>
-8.080973

> <fragments>
x0104

> <Mpro-x0104_dock>
-8.080973

> <Mpro-x0305_dock>
-7.918358

> <Mpro-x0161_dock>
-7.573542

> <Mpro-x1077_dock>
-6.796194

> <Mpro-x0874_dock>
-6.159277

> <Mpro-x0072_dock>
-6.01282

> <Mpro-x0107_dock>
-5.800881

> <Mpro-x1093_dock>
-5.697579

> <Mpro-x0946_dock>
-5.644064

> <Mpro-x0387_dock>
-5.534254

> <Mpro-x0397_dock>
-5.319687

> <Mpro-x1334_dock>
-5.099065

> <Mpro-x1187_dock>
-5.076341

> <Mpro-x0434_dock>
-4.915915

> <Mpro-x0967_dock>
-4.838335

> <Mpro-x0395_dock>
-4.324666

> <Mpro-x0195_dock>
-4.128596

> <Mpro-x1385_dock>
-3.922368

> <Mpro-x1392_dock>
-3.599714

> <Mpro-x0678_dock>
-3.416993

> <Mpro-x1249_dock>
-2.87957

> <Mpro-x0831_dock>
-2.845654

> <Mpro-x0830_dock>
-2.826318

> <Mpro-x1311_dock>
-2.688654

> <Mpro-x0354_dock>
-2.643057

> <Mpro-x0749_dock>
-2.376429

> <Mpro-x1493_dock>
-1.957375

> <Mpro-x1458_dock>
-1.900788

> <Mpro-x0692_dock>
-1.781147

> <Mpro-x1348_dock>
-1.688007

> <Mpro-x1358_dock>
-1.366593

> <Mpro-x0734_dock>
-1.069016

> <Mpro-x1374_dock>
-1.04976

> <Mpro-x1351_dock>
-0.770148

> <Mpro-x0820_dock>
-0.624212

> <Mpro-x1384_dock>
-0.306709

> <Mpro-x0771_dock>
-0.271409

> <Mpro-x1386_dock>
-0.249502

> <Mpro-x1380_dock>
-0.204679

> <Mpro-x1412_dock>
0.069385

> <Mpro-x1375_dock>
0.142031

> <Mpro-x0708_dock>
0.177643

> <Mpro-x0774_dock>
0.225912

> <Mpro-x0978_dock>
0.275254

> <Mpro-x1478_dock>
0.307542

> <Mpro-x0731_dock>
0.569905

> <Mpro-x0770_dock>
0.589899

> <Mpro-x0887_dock>
0.694852

> <Mpro-x0752_dock>
1.033486

> <Mpro-x0786_dock>
1.050011

> <Mpro-x0759_dock>
1.130807

> <Mpro-x0736_dock>
1.162888

> <Mpro-x1308_dock>
1.491954

> <Mpro-x0540_dock>
1.563071

> <Mpro-x1418_dock>
1.597933

> <Mpro-x1425_dock>
1.643857

> <Mpro-x0981_dock>
1.794501

> <Mpro-x1382_dock>
1.828363

> <Mpro-x0691_dock>
1.831149

> <Mpro-x0755_dock>
1.98895

> <Mpro-x0705_dock>
1.989885

> <Mpro-x0769_dock>
2.060646

> <Mpro-x1402_dock>
2.062894

> <Mpro-x0689_dock>
2.161343

> <Mpro-x0426_dock>
2.888734

> <site>
active-noncovalent

$$$$
BAR-COM-4e0-69
  -OEChem-04022003013D

 36 37  0     0  0  0  0  0  0999 V2000
    5.6815    1.0904   17.7808 C   0  0  0  0  0  0  0  0  0  0  0  0
   11.7636    0.9854   23.9776 C   0  0  0  0  0  0  0  0  0  0  0  0
   10.8421    0.0943   23.4390 C   0  0  0  0  0  0  0  0  0  0  0  0
    6.7978    0.3734   18.1968 C   0  0  0  0  0  0  0  0  0  0  0  0
    4.7716    1.5578   18.7226 C   0  0  0  0  0  0  0  0  0  0  0  0
   13.0794    0.5669   24.0928 C   0  0  0  0  0  0  0  0  0  0  0  0
   12.5971   -1.4920   23.1947 C   0  0  0  0  0  0  0  0  0  0  0  0
   11.2586   -1.1701   23.0376 C   0  0  0  0  0  0  0  0  0  0  0  0
    6.9572    0.1523   19.5553 C   0  0  0  0  0  0  0  0  0  0  0  0
    5.0217    1.2835   20.0575 C   0  0  0  0  0  0  0  0  0  0  0  0
    8.4672   -0.9234   21.2710 C   0  0  0  0  0  0  0  0  0  0  0  0
   10.2972   -2.1452   22.4573 C   0  0  0  0  0  0  0  0  0  0  0  0
    4.0176    0.9524   22.1878 C   0  0  0  0  0  0  0  0  0  0  0  0
    3.6245    1.8395   23.3458 C   0  0  0  0  0  0  0  0  0  0  0  0
   13.5215   -0.6532   23.7139 N   0  0  0  0  0  0  0  0  0  0  0  0
    6.0949    0.5904   20.4998 N   0  0  0  0  0  0  0  0  0  0  0  0
    8.0960   -0.5777   19.9686 N   0  0  0  0  0  0  0  0  0  0  0  0
    9.6638   -1.6498   21.2597 N   0  0  0  0  0  0  0  0  0  0  0  0
    7.8594   -0.6494   22.3030 O   0  0  0  0  0  0  0  0  0  0  0  0
    4.1389    1.7327   21.0045 O   0  0  0  0  0  0  0  0  0  0  0  0
    4.5551    2.8093   23.5210 F   0  0  0  0  0  0  0  0  0  0  0  0
    2.4500    2.4595   23.0749 F   0  0  0  0  0  0  0  0  0  0  0  0
    5.5206    1.2846   16.7246 H   0  0  0  0  0  0  0  0  0  0  0  0
   11.4615    1.9762   24.2970 H   0  0  0  0  0  0  0  0  0  0  0  0
    9.8026    0.3935   23.3357 H   0  0  0  0  0  0  0  0  0  0  0  0
    7.5127    0.0051   17.4684 H   0  0  0  0  0  0  0  0  0  0  0  0
    3.8961    2.1185   18.4141 H   0  0  0  0  0  0  0  0  0  0  0  0
   13.8365    1.2247   24.5070 H   0  0  0  0  0  0  0  0  0  0  0  0
   12.9805   -2.4638   22.8994 H   0  0  0  0  0  0  0  0  0  0  0  0
   10.7952   -3.0913   22.1964 H   0  0  0  0  0  0  0  0  0  0  0  0
    9.4956   -2.3982   23.1672 H   0  0  0  0  0  0  0  0  0  0  0  0
    4.9782    0.4638   22.3740 H   0  0  0  0  0  0  0  0  0  0  0  0
    3.2538    0.1910   22.0080 H   0  0  0  0  0  0  0  0  0  0  0  0
    3.5203    1.2771   24.2775 H   0  0  0  0  0  0  0  0  0  0  0  0
    8.7164   -0.8868   19.2243 H   0  0  0  0  0  0  0  0  0  0  0  0
   10.1076   -1.8372   20.3649 H   0  0  0  0  0  0  0  0  0  0  0  0
  1  4  2  0  0  0  0
  1  5  1  0  0  0  0
  2  3  2  0  0  0  0
  2  6  1  0  0  0  0
  3  8  1  0  0  0  0
  4  9  1  0  0  0  0
  5 10  2  0  0  0  0
  6 15  2  0  0  0  0
  7  8  2  0  0  0  0
  7 15  1  0  0  0  0
  8 12  1  0  0  0  0
  9 16  2  0  0  0  0
  9 17  1  0  0  0  0
 10 16  1  0  0  0  0
 10 20  1  0  0  0  0
 11 17  1  0  0  0  0
 11 18  1  0  0  0  0
 11 19  2  0  0  0  0
 12 18  1  0  0  0  0
 13 14  1  0  0  0  0
 13 20  1  0  0  0  0
 14 21  1  0  0  0  0
 14 22  1  0  0  0  0
  1 23  1  0  0  0  0
  2 24  1  0  0  0  0
  3 25  1  0  0  0  0
  4 26  1  0  0  0  0
  5 27  1  0  0  0  0
  6 28  1  0  0  0  0
  7 29  1  0  0  0  0
 12 30  1  0  0  0  0
 12 31  1  0  0  0  0
 13 32  1  0  0  0  0
 13 33  1  0  0  0  0
 14 34  1  0  0  0  0
 17 35  1  0  0  0  0
 18 36  1  0  0  0  0
M  END
> <Hybrid2>
-8.066553

> <fragments>
x1093

> <Mpro-x1093_dock>
-8.066553

> <Mpro-x0107_dock>
-7.924387

> <Mpro-x0161_dock>
-7.797466

> <Mpro-x0195_dock>
-7.772686

> <Mpro-x0830_dock>
-7.77129

> <Mpro-x0678_dock>
-7.701509

> <Mpro-x0397_dock>
-7.481198

> <Mpro-x0104_dock>
-6.280021

> <Mpro-x0434_dock>
-6.248496

> <Mpro-x1077_dock>
-6.213654

> <Mpro-x0831_dock>
-5.875679

> <Mpro-x0072_dock>
-5.794572

> <Mpro-x0874_dock>
-5.212513

> <Mpro-x0749_dock>
-4.934455

> <Mpro-x0426_dock>
-4.734671

> <Mpro-x0946_dock>
-4.59574

> <Mpro-x0967_dock>
-4.356583

> <Mpro-x0387_dock>
-4.245995

> <Mpro-x1249_dock>
-3.928895

> <Mpro-x1392_dock>
-3.925472

> <Mpro-x0540_dock>
-3.474827

> <Mpro-x0305_dock>
-3.306729

> <Mpro-x0395_dock>
-3.205927

> <Mpro-x0708_dock>
-2.882558

> <Mpro-x0692_dock>
-2.858177

> <Mpro-x1334_dock>
-2.84115

> <Mpro-x1348_dock>
-2.539332

> <Mpro-x1187_dock>
-2.472285

> <Mpro-x1375_dock>
-2.44741

> <Mpro-x0354_dock>
-2.441003

> <Mpro-x0759_dock>
-2.230912

> <Mpro-x0981_dock>
-2.174634

> <Mpro-x1385_dock>
-2.076145

> <Mpro-x1380_dock>
-2.016297

> <Mpro-x1311_dock>
-1.792203

> <Mpro-x1386_dock>
-1.551304

> <Mpro-x1418_dock>
-1.307497

> <Mpro-x1358_dock>
-1.13988

> <Mpro-x1351_dock>
-0.962312

> <Mpro-x1412_dock>
-0.950327

> <Mpro-x1384_dock>
-0.862134

> <Mpro-x0887_dock>
-0.689802

> <Mpro-x0786_dock>
-0.674201

> <Mpro-x1402_dock>
-0.559133

> <Mpro-x0770_dock>
-0.536578

> <Mpro-x1425_dock>
-0.519593

> <Mpro-x0774_dock>
-0.463083

> <Mpro-x0691_dock>
-0.429716

> <Mpro-x0731_dock>
-0.335705

> <Mpro-x0978_dock>
-0.298626

> <Mpro-x0769_dock>
-0.19119

> <Mpro-x0771_dock>
-0.016037

> <Mpro-x0689_dock>
0.000364

> <Mpro-x0752_dock>
0.008597

> <Mpro-x0820_dock>
0.022848

> <Mpro-x0755_dock>
0.135979

> <Mpro-x0705_dock>
0.329565

> <Mpro-x1308_dock>
0.394517

> <Mpro-x1382_dock>
0.748857

> <Mpro-x0734_dock>
0.962619

> <Mpro-x1478_dock>
1.435837

> <Mpro-x0736_dock>
1.504276

> <Mpro-x1458_dock>
1.576343

> <Mpro-x1493_dock>
1.851969

> <Mpro-x1374_dock>
2.057149

> <site>
active-noncovalent

$$$$
BAR-COM-4e0-16
  -OEChem-04022003013D

 43 46  0     0  0  0  0  0  0999 V2000
   13.9725    0.7262   22.7705 C   0  0  0  0  0  0  0  0  0  0  0  0
   13.5009   -0.4041   22.1031 C   0  0  0  0  0  0  0  0  0  0  0  0
   13.1132    1.4654   23.5835 C   0  0  0  0  0  0  0  0  0  0  0  0
   12.1699   -0.7953   22.2486 C   0  0  0  0  0  0  0  0  0  0  0  0
    7.3109   -0.5408   21.2577 C   0  0  0  0  0  0  0  0  0  0  0  0
    6.3124   -2.6605   21.6655 C   0  0  0  0  0  0  0  0  0  0  0  0
    5.7047   -1.4912   19.7835 C   0  0  0  0  0  0  0  0  0  0  0  0
    7.1925   -1.6674   22.0640 C   0  0  0  0  0  0  0  0  0  0  0  0
   11.7822    1.0742   23.7290 C   0  0  0  0  0  0  0  0  0  0  0  0
   11.3106   -0.0562   23.0615 C   0  0  0  0  0  0  0  0  0  0  0  0
    6.5562   -0.4432   20.0940 C   0  0  0  0  0  0  0  0  0  0  0  0
   11.0062    3.1565   24.8102 C   0  0  0  0  0  0  0  0  0  0  0  0
    9.4740   -1.7734   23.1134 C   0  0  0  0  0  0  0  0  0  0  0  0
    7.4679   -2.6757   24.4199 C   0  0  0  0  0  0  0  0  0  0  0  0
    7.4617   -1.1903   24.5824 C   0  0  0  0  0  0  0  0  0  0  0  0
    7.9783   -1.7999   23.3048 C   0  0  0  0  0  0  0  0  0  0  0  0
   11.4812    5.4904   24.0268 C   0  0  0  0  0  0  0  0  0  0  0  0
   12.0157    4.0701   24.2472 C   0  0  0  0  0  0  0  0  0  0  0  0
    5.5627   -2.6013   20.5420 N   0  0  0  0  0  0  0  0  0  0  0  0
   10.0267    3.4589   25.6308 N   0  0  0  0  0  0  0  0  0  0  0  0
    9.3607    2.2772   25.8654 N   0  0  0  0  0  0  0  0  0  0  0  0
    9.9212    1.2738   25.2013 N   0  0  0  0  0  0  0  0  0  0  0  0
   10.9496    1.8259   24.5426 N   0  0  0  0  0  0  0  0  0  0  0  0
    9.9812   -0.4715   23.1891 N   0  0  0  0  0  0  0  0  0  0  0  0
   10.1013   -2.8102   22.9224 O   0  0  0  0  0  0  0  0  0  0  0  0
    6.6895    1.0658   18.9750 Br  0  0  0  0  0  0  0  0  0  0  0  0
   15.0088    1.0307   22.6570 H   0  0  0  0  0  0  0  0  0  0  0  0
   14.1701   -0.9796   21.4701 H   0  0  0  0  0  0  0  0  0  0  0  0
   13.4955    2.3441   24.0974 H   0  0  0  0  0  0  0  0  0  0  0  0
   11.8146   -1.6782   21.7230 H   0  0  0  0  0  0  0  0  0  0  0  0
    7.9927    0.2571   21.5415 H   0  0  0  0  0  0  0  0  0  0  0  0
    6.1775   -3.5635   22.2534 H   0  0  0  0  0  0  0  0  0  0  0  0
    5.0881   -1.4768   18.8896 H   0  0  0  0  0  0  0  0  0  0  0  0
    8.1708   -3.2442   25.0183 H   0  0  0  0  0  0  0  0  0  0  0  0
    6.5136   -3.1704   24.2795 H   0  0  0  0  0  0  0  0  0  0  0  0
    6.5029   -0.6853   24.5519 H   0  0  0  0  0  0  0  0  0  0  0  0
    8.1605   -0.7588   25.2901 H   0  0  0  0  0  0  0  0  0  0  0  0
   10.5942    5.4750   23.3844 H   0  0  0  0  0  0  0  0  0  0  0  0
   12.2323    6.1298   23.5524 H   0  0  0  0  0  0  0  0  0  0  0  0
   11.1979    5.9497   24.9799 H   0  0  0  0  0  0  0  0  0  0  0  0
   12.9093    4.1335   24.8998 H   0  0  0  0  0  0  0  0  0  0  0  0
   12.4054    3.6925   23.2808 H   0  0  0  0  0  0  0  0  0  0  0  0
    9.2909    0.2668   23.3598 H   0  0  0  0  0  0  0  0  0  0  0  0
  1  2  1  0  0  0  0
  1  3  2  0  0  0  0
  2  4  2  0  0  0  0
  3  9  1  0  0  0  0
  4 10  1  0  0  0  0
  5  8  2  0  0  0  0
  5 11  1  0  0  0  0
  6  8  1  0  0  0  0
  6 19  2  0  0  0  0
  7 11  2  0  0  0  0
  7 19  1  0  0  0  0
  8 16  1  0  0  0  0
  9 10  2  0  0  0  0
  9 23  1  0  0  0  0
 10 24  1  0  0  0  0
 11 26  1  0  0  0  0
 12 18  1  0  0  0  0
 12 20  2  0  0  0  0
 12 23  1  0  0  0  0
 13 16  1  0  0  0  0
 13 24  1  0  0  0  0
 13 25  2  0  0  0  0
 14 15  1  0  0  0  0
 14 16  1  0  0  0  0
 15 16  1  0  0  0  0
 17 18  1  0  0  0  0
 20 21  1  0  0  0  0
 21 22  2  0  0  0  0
 22 23  1  0  0  0  0
  1 27  1  0  0  0  0
  2 28  1  0  0  0  0
  3 29  1  0  0  0  0
  4 30  1  0  0  0  0
  5 31  1  0  0  0  0
  6 32  1  0  0  0  0
  7 33  1  0  0  0  0
 14 34  1  0  0  0  0
 14 35  1  0  0  0  0
 15 36  1  0  0  0  0
 15 37  1  0  0  0  0
 17 38  1  0  0  0  0
 17 39  1  0  0  0  0
 17 40  1  0  0  0  0
 18 41  1  0  0  0  0
 18 42  1  0  0  0  0
 24 43  1  0  0  0  0
M  END
> <Hybrid2>
-8.060421

> <fragments>
x0830

> <Mpro-x0830_dock>
-8.060421

> <Mpro-x0397_dock>
-7.74746

> <Mpro-x0831_dock>
-7.607503

> <Mpro-x0678_dock>
-7.572135

> <Mpro-x0692_dock>
-7.080935

> <Mpro-x0107_dock>
-6.921461

> <Mpro-x1093_dock>
-6.670348

> <Mpro-x0195_dock>
-6.484228

> <Mpro-x0759_dock>
-6.409684

> <Mpro-x1249_dock>
-6.038723

> <Mpro-x0874_dock>
-6.018472

> <Mpro-x0072_dock>
-5.742158

> <Mpro-x1458_dock>
-5.66599

> <Mpro-x1311_dock>
-5.541655

> <Mpro-x0946_dock>
-5.431173

> <Mpro-x0161_dock>
-5.404867

> <Mpro-x1077_dock>
-5.339165

> <Mpro-x0104_dock>
-5.009745

> <Mpro-x0967_dock>
-4.936376

> <Mpro-x0708_dock>
-4.688728

> <Mpro-x1334_dock>
-4.667834

> <Mpro-x1418_dock>
-4.638601

> <Mpro-x0434_dock>
-4.299316

> <Mpro-x1385_dock>
-4.171989

> <Mpro-x0387_dock>
-4.05079

> <Mpro-x1425_dock>
-3.9422

> <Mpro-x1386_dock>
-3.782134

> <Mpro-x1392_dock>
-3.753844

> <Mpro-x0749_dock>
-3.72876

> <Mpro-x0731_dock>
-3.691817

> <Mpro-x0395_dock>
-3.455793

> <Mpro-x0771_dock>
-3.325758

> <Mpro-x0691_dock>
-3.203952

> <Mpro-x0689_dock>
-3.151885

> <Mpro-x0769_dock>
-3.082675

> <Mpro-x1187_dock>
-3.074438

> <Mpro-x1375_dock>
-3.052347

> <Mpro-x0305_dock>
-3.033561

> <Mpro-x1412_dock>
-3.033041

> <Mpro-x1348_dock>
-2.875955

> <Mpro-x0755_dock>
-2.73143

> <Mpro-x0734_dock>
-2.689559

> <Mpro-x0770_dock>
-2.571059

> <Mpro-x0354_dock>
-2.503082

> <Mpro-x0774_dock>
-2.439321

> <Mpro-x1374_dock>
-2.385576

> <Mpro-x0820_dock>
-2.308761

> <Mpro-x0540_dock>
-2.304024

> <Mpro-x0736_dock>
-2.252038

> <Mpro-x1493_dock>
-2.207664

> <Mpro-x1478_dock>
-2.003136

> <Mpro-x1308_dock>
-1.71598

> <Mpro-x0705_dock>
-1.561956

> <Mpro-x0752_dock>
-1.239288

> <Mpro-x0426_dock>
-1.144381

> <Mpro-x1358_dock>
-0.962106

> <Mpro-x1380_dock>
-0.790785

> <Mpro-x1384_dock>
-0.716758

> <Mpro-x1402_dock>
-0.559769

> <Mpro-x0786_dock>
-0.444606

> <Mpro-x1351_dock>
-0.377903

> <Mpro-x1382_dock>
0.634914

> <Mpro-x0981_dock>
1.652459

> <Mpro-x0887_dock>
1.664697

> <Mpro-x0978_dock>
2.799105

> <site>
active-covalent

$$$$
BAR-COM-4e0-19
  -OEChem-04022003013D

 49 51  0     1  0  0  0  0  0999 V2000
   14.9627   -2.1058   23.6010 C   0  0  0  0  0  0  0  0  0  0  0  0
    5.6636   -4.7254   27.3535 C   0  0  0  0  0  0  0  0  0  0  0  0
   13.9130   -1.8577   24.4854 C   0  0  0  0  0  0  0  0  0  0  0  0
   14.9170   -1.5952   22.3036 C   0  0  0  0  0  0  0  0  0  0  0  0
    6.9487   -5.2193   27.1295 C   0  0  0  0  0  0  0  0  0  0  0  0
    5.0065   -4.0109   26.3517 C   0  0  0  0  0  0  0  0  0  0  0  0
   12.8176   -1.0993   24.0726 C   0  0  0  0  0  0  0  0  0  0  0  0
   13.8216   -0.8367   21.8908 C   0  0  0  0  0  0  0  0  0  0  0  0
    7.5768   -4.9987   25.9038 C   0  0  0  0  0  0  0  0  0  0  0  0
    5.6346   -3.7904   25.1260 C   0  0  0  0  0  0  0  0  0  0  0  0
    6.2850   -0.0637   19.3507 C   0  0  0  0  0  0  0  0  0  0  0  0
    5.2481   -0.6635   18.6153 C   0  0  0  0  0  0  0  0  0  0  0  0
   12.7719   -0.5887   22.7752 C   0  0  0  0  0  0  0  0  0  0  0  0
    6.9198   -4.2842   24.9020 C   0  0  0  0  0  0  0  0  0  0  0  0
    7.3203    0.0058   18.4565 C   0  0  0  0  0  0  0  0  0  0  0  0
    9.5387    0.2463   20.8773 C   0  0  0  0  0  0  0  0  0  0  0  0
    9.0047   -2.4672   22.5140 C   0  0  0  0  0  0  0  0  0  0  0  0
   11.5869    0.2318   22.3278 C   0  0  0  0  0  0  0  0  0  0  0  0
    7.5949   -4.0464   23.5832 C   0  0  0  0  0  0  0  0  0  0  0  0
    8.7282    0.5213   18.5352 C   0  0  0  0  0  0  0  0  0  0  0  0
   10.4728   -0.6225   21.7121 C   0  0  1  0  0  0  0  0  0  0  0  0
    5.6124   -0.9445   17.3611 N   0  0  0  0  0  0  0  0  0  0  0  0
    9.4978   -0.1605   19.5509 N   0  0  0  0  0  0  0  0  0  0  0  0
    9.6674   -1.2725   22.7153 N   0  0  0  0  0  0  0  0  0  0  0  0
    8.9374    1.2151   21.3364 O   0  0  0  0  0  0  0  0  0  0  0  0
    9.0119   -3.1221   21.4769 O   0  0  0  0  0  0  0  0  0  0  0  0
    6.9312   -0.5167   17.2655 O   0  0  0  0  0  0  0  0  0  0  0  0
    8.3313   -2.8199   23.6496 O   0  0  0  0  0  0  0  0  0  0  0  0
   15.8161   -2.6952   23.9230 H   0  0  0  0  0  0  0  0  0  0  0  0
    5.1742   -4.8984   28.3075 H   0  0  0  0  0  0  0  0  0  0  0  0
   13.9489   -2.2543   25.4959 H   0  0  0  0  0  0  0  0  0  0  0  0
   15.7346   -1.7872   21.6151 H   0  0  0  0  0  0  0  0  0  0  0  0
    7.4601   -5.7765   27.9091 H   0  0  0  0  0  0  0  0  0  0  0  0
    4.0056   -3.6272   26.5254 H   0  0  0  0  0  0  0  0  0  0  0  0
   12.0042   -0.9113   24.7684 H   0  0  0  0  0  0  0  0  0  0  0  0
   13.7946   -0.4431   20.8781 H   0  0  0  0  0  0  0  0  0  0  0  0
    8.5783   -5.3871   25.7382 H   0  0  0  0  0  0  0  0  0  0  0  0
    5.1151   -3.2326   24.3513 H   0  0  0  0  0  0  0  0  0  0  0  0
    6.2790    0.2682   20.3781 H   0  0  0  0  0  0  0  0  0  0  0  0
    4.2462   -0.9078   18.9363 H   0  0  0  0  0  0  0  0  0  0  0  0
   11.1974    0.8112   23.1759 H   0  0  0  0  0  0  0  0  0  0  0  0
   11.9398    0.9801   21.6059 H   0  0  0  0  0  0  0  0  0  0  0  0
    8.2833   -4.8637   23.3425 H   0  0  0  0  0  0  0  0  0  0  0  0
    6.8571   -3.9792   22.7764 H   0  0  0  0  0  0  0  0  0  0  0  0
    9.2421    0.3885   17.5769 H   0  0  0  0  0  0  0  0  0  0  0  0
    8.7425    1.5916   18.7664 H   0  0  0  0  0  0  0  0  0  0  0  0
   10.8849   -1.4173   21.0793 H   0  0  0  0  0  0  0  0  0  0  0  0
   10.0359   -0.9785   19.2805 H   0  0  0  0  0  0  0  0  0  0  0  0
    9.5822   -0.8251   23.6246 H   0  0  0  0  0  0  0  0  0  0  0  0
  1  3  1  0  0  0  0
  1  4  2  0  0  0  0
  2  5  1  0  0  0  0
  2  6  2  0  0  0  0
  3  7  2  0  0  0  0
  4  8  1  0  0  0  0
  5  9  2  0  0  0  0
  6 10  1  0  0  0  0
  7 13  1  0  0  0  0
  8 13  2  0  0  0  0
  9 14  1  0  0  0  0
 10 14  2  0  0  0  0
 11 12  1  0  0  0  0
 11 15  2  0  0  0  0
 12 22  2  0  0  0  0
 13 18  1  0  0  0  0
 14 19  1  0  0  0  0
 15 20  1  0  0  0  0
 15 27  1  0  0  0  0
 16 21  1  0  0  0  0
 16 23  1  0  0  0  0
 16 25  2  0  0  0  0
 17 24  1  0  0  0  0
 17 26  2  0  0  0  0
 17 28  1  0  0  0  0
 18 21  1  0  0  0  0
 19 28  1  0  0  0  0
 20 23  1  0  0  0  0
 21 24  1  0  0  0  0
 22 27  1  0  0  0  0
  1 29  1  0  0  0  0
  2 30  1  0  0  0  0
  3 31  1  0  0  0  0
  4 32  1  0  0  0  0
  5 33  1  0  0  0  0
  6 34  1  0  0  0  0
  7 35  1  0  0  0  0
  8 36  1  0  0  0  0
  9 37  1  0  0  0  0
 10 38  1  0  0  0  0
 11 39  1  0  0  0  0
 12 40  1  0  0  0  0
 18 41  1  0  0  0  0
 18 42  1  0  0  0  0
 19 43  1  0  0  0  0
 19 44  1  0  0  0  0
 20 45  1  0  0  0  0
 20 46  1  0  0  0  0
 21 47  1  0  0  0  0
 23 48  1  0  0  0  0
 24 49  1  0  0  0  0
M  END
> <Hybrid2>
-7.968852

> <fragments>
x0678

> <Mpro-x0678_dock>
-7.968852

> <Mpro-x1187_dock>
-6.847219

> <Mpro-x0195_dock>
-6.657776

> <Mpro-x0107_dock>
-6.168921

> <Mpro-x0104_dock>
-6.112226

> <Mpro-x0161_dock>
-5.671656

> <Mpro-x1093_dock>
-5.424613

> <Mpro-x0434_dock>
-5.347639

> <Mpro-x0397_dock>
-5.297078

> <Mpro-x1077_dock>
-4.921701

> <Mpro-x0874_dock>
-4.805319

> <Mpro-x0967_dock>
-3.635615

> <Mpro-x0072_dock>
-3.582344

> <Mpro-x0305_dock>
-3.002914

> <Mpro-x0692_dock>
-2.980772

> <Mpro-x1334_dock>
-2.58916

> <Mpro-x0749_dock>
-2.499771

> <Mpro-x0395_dock>
-2.3445

> <Mpro-x0946_dock>
-2.324234

> <Mpro-x0387_dock>
-2.317776

> <Mpro-x1418_dock>
-2.069729

> <Mpro-x1392_dock>
-1.848154

> <Mpro-x0759_dock>
-1.708936

> <Mpro-x1374_dock>
-1.501446

> <Mpro-x1358_dock>
-1.305973

> <Mpro-x0831_dock>
-0.998603

> <Mpro-x0734_dock>
-0.852975

> <Mpro-x0830_dock>
-0.776646

> <Mpro-x0354_dock>
-0.689044

> <Mpro-x1385_dock>
-0.617838

> <Mpro-x1351_dock>
-0.5285

> <Mpro-x1386_dock>
-0.452599

> <Mpro-x1249_dock>
-0.367365

> <Mpro-x0774_dock>
-0.131948

> <Mpro-x1478_dock>
-0.105027

> <Mpro-x1412_dock>
-0.098991

> <Mpro-x1425_dock>
0.398137

> <Mpro-x1380_dock>
0.496704

> <Mpro-x0426_dock>
0.726702

> <Mpro-x1375_dock>
0.868534

> <Mpro-x1382_dock>
0.950418

> <Mpro-x0770_dock>
1.061701

> <Mpro-x1458_dock>
1.089013

> <Mpro-x0540_dock>
1.128865

> <Mpro-x0705_dock>
1.2201

> <Mpro-x1348_dock>
1.359741

> <Mpro-x0752_dock>
1.371396

> <Mpro-x0708_dock>
1.634243

> <Mpro-x1384_dock>
1.643607

> <Mpro-x0887_dock>
1.738391

> <Mpro-x1493_dock>
1.759792

> <Mpro-x0771_dock>
1.787684

> <Mpro-x1311_dock>
1.91308

> <Mpro-x0691_dock>
1.979182

> <Mpro-x0736_dock>
2.259195

> <Mpro-x0755_dock>
2.319154

> <Mpro-x0978_dock>
2.351108

> <Mpro-x0981_dock>
2.600134

> <Mpro-x0786_dock>
2.687649

> <Mpro-x0820_dock>
2.747397

> <Mpro-x0731_dock>
2.899373

> <Mpro-x0769_dock>
3.111003

> <Mpro-x1402_dock>
3.534606

> <Mpro-x1308_dock>
3.539421

> <Mpro-x0689_dock>
4.174881

> <site>
active-noncovalent

$$$$
JAN-GHE-1d9-7
  -OEChem-04022003013D

 44 45  0     0  0  0  0  0  0999 V2000
   11.8509   -1.5374   22.2418 C   0  0  0  0  0  0  0  0  0  0  0  0
   11.8134   -0.1879   22.5925 C   0  0  0  0  0  0  0  0  0  0  0  0
   11.0016   -2.4461   22.8732 C   0  0  0  0  0  0  0  0  0  0  0  0
   10.0772   -0.6556   24.2062 C   0  0  0  0  0  0  0  0  0  0  0  0
   10.9266    0.2530   23.5747 C   0  0  0  0  0  0  0  0  0  0  0  0
   10.1148   -2.0052   23.8555 C   0  0  0  0  0  0  0  0  0  0  0  0
    6.7639    7.0424   23.2453 C   0  0  0  0  0  0  0  0  0  0  0  0
   11.6576    2.6564   23.4062 C   0  0  0  0  0  0  0  0  0  0  0  0
    9.1755    6.8503   22.7271 C   0  0  0  0  0  0  0  0  0  0  0  0
    7.8202    4.7921   22.7081 C   0  0  0  0  0  0  0  0  0  0  0  0
   10.2280    6.1738   23.5933 C   0  0  0  0  0  0  0  0  0  0  0  0
    8.8540    4.0836   23.5730 C   0  0  0  0  0  0  0  0  0  0  0  0
    7.0509    8.3022   24.0226 C   0  0  0  0  0  0  0  0  0  0  0  0
   11.2990    3.9683   24.0666 C   0  0  0  0  0  0  0  0  0  0  0  0
    7.8601    6.2420   22.9268 N   0  0  0  0  0  0  0  0  0  0  0  0
    7.6885   -3.0832   23.6189 N   0  0  0  0  0  0  0  0  0  0  0  0
   10.8882    1.6222   23.9305 N   0  0  0  0  0  0  0  0  0  0  0  0
   10.2159    4.6876   23.3131 N   0  3  0  0  0  0  0  0  0  0  0  0
    5.6004    6.7806   22.9295 O   0  0  0  0  0  0  0  0  0  0  0  0
   12.5148    2.5815   22.5321 O   0  0  0  0  0  0  0  0  0  0  0  0
    9.6502   -4.4680   24.5569 O   0  0  0  0  0  0  0  0  0  0  0  0
    8.6819   -2.6030   25.9469 O   0  0  0  0  0  0  0  0  0  0  0  0
    9.0526   -3.1430   24.6462 S   0  0  0  0  0  0  0  0  0  0  0  0
   12.5409   -1.8809   21.4766 H   0  0  0  0  0  0  0  0  0  0  0  0
   12.4795    0.5110   22.0931 H   0  0  0  0  0  0  0  0  0  0  0  0
   11.0393   -3.4953   22.5928 H   0  0  0  0  0  0  0  0  0  0  0  0
    9.3853   -0.3125   24.9723 H   0  0  0  0  0  0  0  0  0  0  0  0
    9.1471    7.9204   22.9553 H   0  0  0  0  0  0  0  0  0  0  0  0
    9.4259    6.7517   21.6638 H   0  0  0  0  0  0  0  0  0  0  0  0
    8.0230    4.6181   21.6444 H   0  0  0  0  0  0  0  0  0  0  0  0
    6.8334    4.3756   22.9173 H   0  0  0  0  0  0  0  0  0  0  0  0
   11.2282    6.5443   23.3464 H   0  0  0  0  0  0  0  0  0  0  0  0
   10.0344    6.3166   24.6624 H   0  0  0  0  0  0  0  0  0  0  0  0
    8.6370    4.1897   24.6418 H   0  0  0  0  0  0  0  0  0  0  0  0
    8.9130    3.0219   23.3120 H   0  0  0  0  0  0  0  0  0  0  0  0
    7.2389    9.1134   23.3270 H   0  0  0  0  0  0  0  0  0  0  0  0
    7.9220    8.1422   24.6499 H   0  0  0  0  0  0  0  0  0  0  0  0
    6.1938    8.5384   24.6451 H   0  0  0  0  0  0  0  0  0  0  0  0
   12.1655    4.6354   24.0921 H   0  0  0  0  0  0  0  0  0  0  0  0
   10.9226    3.7933   25.0785 H   0  0  0  0  0  0  0  0  0  0  0  0
    7.5003   -3.8963   23.0199 H   0  0  0  0  0  0  0  0  0  0  0  0
    6.8409   -2.6209   23.9696 H   0  0  0  0  0  0  0  0  0  0  0  0
   10.2152    1.8650   24.6546 H   0  0  0  0  0  0  0  0  0  0  0  0
   10.4219    4.5611   22.3125 H   0  0  0  0  0  0  0  0  0  0  0  0
  1  2  2  0  0  0  0
  1  3  1  0  0  0  0
  2  5  1  0  0  0  0
  3  6  2  0  0  0  0
  4  5  2  0  0  0  0
  4  6  1  0  0  0  0
  5 17  1  0  0  0  0
  6 23  1  0  0  0  0
  7 13  1  0  0  0  0
  7 15  1  0  0  0  0
  7 19  2  0  0  0  0
  8 14  1  0  0  0  0
  8 17  1  0  0  0  0
  8 20  2  0  0  0  0
  9 11  1  0  0  0  0
  9 15  1  0  0  0  0
 10 12  1  0  0  0  0
 10 15  1  0  0  0  0
 11 18  1  0  0  0  0
 12 18  1  0  0  0  0
 14 18  1  0  0  0  0
 16 23  1  0  0  0  0
 21 23  2  0  0  0  0
 22 23  2  0  0  0  0
  1 24  1  0  0  0  0
  2 25  1  0  0  0  0
  3 26  1  0  0  0  0
  4 27  1  0  0  0  0
  9 28  1  0  0  0  0
  9 29  1  0  0  0  0
 10 30  1  0  0  0  0
 10 31  1  0  0  0  0
 11 32  1  0  0  0  0
 11 33  1  0  0  0  0
 12 34  1  0  0  0  0
 12 35  1  0  0  0  0
 13 36  1  0  0  0  0
 13 37  1  0  0  0  0
 13 38  1  0  0  0  0
 14 39  1  0  0  0  0
 14 40  1  0  0  0  0
 16 41  1  0  0  0  0
 16 42  1  0  0  0  0
 17 43  1  0  0  0  0
 18 44  1  0  0  0  0
M  CHG  1  18   1
M  END
> <Hybrid2>
-7.938325

> <fragments>
x0104

> <Mpro-x0104_dock>
-7.938325

> <Mpro-x0678_dock>
-7.198962

> <Mpro-x0874_dock>
-6.758836

> <Mpro-x0195_dock>
-6.564087

> <Mpro-x0397_dock>
-6.047186

> <Mpro-x0830_dock>
-5.632745

> <Mpro-x0107_dock>
-5.584364

> <Mpro-x1077_dock>
-5.554472

> <Mpro-x0161_dock>
-5.519029

> <Mpro-x0946_dock>
-5.328386

> <Mpro-x0072_dock>
-5.241157

> <Mpro-x1348_dock>
-4.940391

> <Mpro-x1311_dock>
-4.568696

> <Mpro-x0434_dock>
-4.089429

> <Mpro-x0967_dock>
-4.006156

> <Mpro-x0831_dock>
-3.920795

> <Mpro-x1392_dock>
-3.881212

> <Mpro-x1493_dock>
-3.790008

> <Mpro-x0734_dock>
-3.707066

> <Mpro-x1478_dock>
-3.701893

> <Mpro-x0749_dock>
-3.612773

> <Mpro-x1249_dock>
-3.479637

> <Mpro-x0395_dock>
-3.440804

> <Mpro-x1187_dock>
-3.325216

> <Mpro-x1334_dock>
-3.289532

> <Mpro-x0387_dock>
-3.214234

> <Mpro-x0820_dock>
-2.675202

> <Mpro-x1093_dock>
-2.663527

> <Mpro-x1418_dock>
-2.627214

> <Mpro-x1386_dock>
-2.47276

> <Mpro-x1412_dock>
-2.451461

> <Mpro-x0692_dock>
-2.404048

> <Mpro-x0305_dock>
-2.251006

> <Mpro-x1385_dock>
-2.238589

> <Mpro-x1380_dock>
-2.106977

> <Mpro-x0354_dock>
-1.804091

> <Mpro-x0752_dock>
-1.684352

> <Mpro-x0770_dock>
-1.6559

> <Mpro-x1375_dock>
-1.474932

> <Mpro-x0774_dock>
-1.413967

> <Mpro-x0540_dock>
-1.193612

> <Mpro-x1382_dock>
-1.150537

> <Mpro-x1374_dock>
-1.063591

> <Mpro-x1358_dock>
-0.556504

> <Mpro-x0771_dock>
-0.39622

> <Mpro-x0759_dock>
-0.29592

> <Mpro-x0981_dock>
-0.184223

> <Mpro-x0736_dock>
-0.176428

> <Mpro-x1384_dock>
-0.026685

> <Mpro-x1308_dock>
0.096355

> <Mpro-x0691_dock>
0.118144

> <Mpro-x0887_dock>
0.274616

> <Mpro-x1425_dock>
0.380658

> <Mpro-x0708_dock>
0.443342

> <Mpro-x0731_dock>
0.525379

> <Mpro-x0769_dock>
0.614222

> <Mpro-x0689_dock>
0.6318

> <Mpro-x1458_dock>
0.64454

> <Mpro-x1351_dock>
0.725261

> <Mpro-x0426_dock>
0.747916

> <Mpro-x0978_dock>
0.888677

> <Mpro-x0755_dock>
0.918316

> <Mpro-x0786_dock>
1.174628

> <Mpro-x1402_dock>
1.258634

> <Mpro-x0705_dock>
1.351343

> <site>
active-noncovalent

$$$$
BAR-COM-4e0-51
  -OEChem-04022003013D

 40 42  0     0  0  0  0  0  0999 V2000
   14.3575   -2.3157   21.9774 C   0  0  0  0  0  0  0  0  0  0  0  0
   14.7665   -2.4444   23.3200 C   0  0  0  0  0  0  0  0  0  0  0  0
   13.4335   -1.3382   21.5967 C   0  0  0  0  0  0  0  0  0  0  0  0
   14.2601   -1.5987   24.3111 C   0  0  0  0  0  0  0  0  0  0  0  0
    5.4538    1.0668   18.4187 C   0  0  0  0  0  0  0  0  0  0  0  0
    6.3031    0.8844   17.3497 C   0  0  0  0  0  0  0  0  0  0  0  0
    6.9539    0.0183   19.7897 C   0  0  0  0  0  0  0  0  0  0  0  0
   12.9445   -0.5114   22.5881 C   0  0  0  0  0  0  0  0  0  0  0  0
   13.3491   -0.6391   23.9175 C   0  0  0  0  0  0  0  0  0  0  0  0
    7.8031   -0.1648   18.7206 C   0  0  0  0  0  0  0  0  0  0  0  0
   11.8369    1.0958   23.8121 C   0  0  0  0  0  0  0  0  0  0  0  0
   10.2850    0.0194   20.9266 C   0  0  0  0  0  0  0  0  0  0  0  0
   14.1380    1.1771   26.4096 C   0  0  0  0  0  0  0  0  0  0  0  0
    9.1213   -0.8594   18.9050 C   0  0  0  0  0  0  0  0  0  0  0  0
   11.3667    0.9962   21.3113 C   0  0  0  0  0  0  0  0  0  0  0  0
   12.8400    0.5152   26.0938 C   0  0  0  0  0  0  0  0  0  0  0  0
    5.7639    0.6371   19.6580 N   0  0  0  0  0  0  0  0  0  0  0  0
    7.4930    0.2652   17.4815 N   0  0  0  0  0  0  0  0  0  0  0  0
   12.0218    0.5439   22.5120 N   0  0  0  0  0  0  0  0  0  0  0  0
   12.6798    0.3364   24.6733 N   0  0  0  0  0  0  0  0  0  0  0  0
   10.0945   -0.0096   19.5526 N   0  0  0  0  0  0  0  0  0  0  0  0
   11.1068    2.0271   24.1238 O   0  0  0  0  0  0  0  0  0  0  0  0
    9.6646   -0.6575   21.7423 O   0  0  0  0  0  0  0  0  0  0  0  0
   14.7678   -2.9881   21.2284 H   0  0  0  0  0  0  0  0  0  0  0  0
   15.4868   -3.2137   23.5863 H   0  0  0  0  0  0  0  0  0  0  0  0
   13.1238   -1.2447   20.5624 H   0  0  0  0  0  0  0  0  0  0  0  0
   14.5786   -1.7038   25.3416 H   0  0  0  0  0  0  0  0  0  0  0  0
    4.4977    1.5642   18.3120 H   0  0  0  0  0  0  0  0  0  0  0  0
    6.0533    1.2300   16.3543 H   0  0  0  0  0  0  0  0  0  0  0  0
    7.1966   -0.3243   20.7888 H   0  0  0  0  0  0  0  0  0  0  0  0
   14.1762    2.1622   25.9215 H   0  0  0  0  0  0  0  0  0  0  0  0
   14.2295    1.3038   27.4985 H   0  0  0  0  0  0  0  0  0  0  0  0
   14.9664    0.5537   26.0421 H   0  0  0  0  0  0  0  0  0  0  0  0
    9.0008   -1.7606   19.5160 H   0  0  0  0  0  0  0  0  0  0  0  0
    9.5384   -1.1727   17.9421 H   0  0  0  0  0  0  0  0  0  0  0  0
   12.1024    1.0677   20.5047 H   0  0  0  0  0  0  0  0  0  0  0  0
   10.9291    1.9826   21.4907 H   0  0  0  0  0  0  0  0  0  0  0  0
   12.8098   -0.4685   26.5852 H   0  0  0  0  0  0  0  0  0  0  0  0
   12.0172    1.1395   26.4722 H   0  0  0  0  0  0  0  0  0  0  0  0
   10.6676    0.5966   18.9729 H   0  0  0  0  0  0  0  0  0  0  0  0
  1  2  1  0  0  0  0
  1  3  2  0  0  0  0
  2  4  2  0  0  0  0
  3  8  1  0  0  0  0
  4  9  1  0  0  0  0
  5  6  2  0  0  0  0
  5 17  1  0  0  0  0
  6 18  1  0  0  0  0
  7 10  1  0  0  0  0
  7 17  2  0  0  0  0
  8  9  2  0  0  0  0
  8 19  1  0  0  0  0
  9 20  1  0  0  0  0
 10 14  1  0  0  0  0
 10 18  2  0  0  0  0
 11 19  1  0  0  0  0
 11 20  1  0  0  0  0
 11 22  2  0  0  0  0
 12 15  1  0  0  0  0
 12 21  1  0  0  0  0
 12 23  2  0  0  0  0
 13 16  1  0  0  0  0
 14 21  1  0  0  0  0
 15 19  1  0  0  0  0
 16 20  1  0  0  0  0
  1 24  1  0  0  0  0
  2 25  1  0  0  0  0
  3 26  1  0  0  0  0
  4 27  1  0  0  0  0
  5 28  1  0  0  0  0
  6 29  1  0  0  0  0
  7 30  1  0  0  0  0
 13 31  1  0  0  0  0
 13 32  1  0  0  0  0
 13 33  1  0  0  0  0
 14 34  1  0  0  0  0
 14 35  1  0  0  0  0
 15 36  1  0  0  0  0
 15 37  1  0  0  0  0
 16 38  1  0  0  0  0
 16 39  1  0  0  0  0
 21 40  1  0  0  0  0
M  END
> <Hybrid2>
-7.938208

> <fragments>
x0678

> <Mpro-x0678_dock>
-7.938208

> <Mpro-x0397_dock>
-7.619615

> <Mpro-x0195_dock>
-7.506962

> <Mpro-x0107_dock>
-7.197145

> <Mpro-x1093_dock>
-7.024067

> <Mpro-x1392_dock>
-6.917692

> <Mpro-x0072_dock>
-6.781689

> <Mpro-x0831_dock>
-6.401163

> <Mpro-x0749_dock>
-6.37435

> <Mpro-x0104_dock>
-6.264911

> <Mpro-x1077_dock>
-6.20073

> <Mpro-x0874_dock>
-5.990118

> <Mpro-x0946_dock>
-5.335406

> <Mpro-x1311_dock>
-5.266955

> <Mpro-x0830_dock>
-5.1591

> <Mpro-x0395_dock>
-5.098358

> <Mpro-x0967_dock>
-4.956011

> <Mpro-x1493_dock>
-4.955915

> <Mpro-x0161_dock>
-4.845059

> <Mpro-x0434_dock>
-4.783075

> <Mpro-x1478_dock>
-4.595549

> <Mpro-x0387_dock>
-4.541324

> <Mpro-x0736_dock>
-4.503371

> <Mpro-x1348_dock>
-4.089478

> <Mpro-x1249_dock>
-3.902017

> <Mpro-x1385_dock>
-3.87356

> <Mpro-x1458_dock>
-3.842976

> <Mpro-x0305_dock>
-3.69702

> <Mpro-x1375_dock>
-3.693449

> <Mpro-x1334_dock>
-3.690605

> <Mpro-x1418_dock>
-3.680546

> <Mpro-x1380_dock>
-3.460913

> <Mpro-x1412_dock>
-3.429102

> <Mpro-x0759_dock>
-3.346254

> <Mpro-x0708_dock>
-3.035487

> <Mpro-x1402_dock>
-2.882805

> <Mpro-x0769_dock>
-2.85318

> <Mpro-x0770_dock>
-2.852899

> <Mpro-x0774_dock>
-2.734873

> <Mpro-x0426_dock>
-2.530388

> <Mpro-x0691_dock>
-2.526057

> <Mpro-x0771_dock>
-2.497664

> <Mpro-x0692_dock>
-2.443262

> <Mpro-x1308_dock>
-2.295088

> <Mpro-x0752_dock>
-2.084824

> <Mpro-x0354_dock>
-2.047961

> <Mpro-x0755_dock>
-2.04557

> <Mpro-x0689_dock>
-2.039016

> <Mpro-x1351_dock>
-1.930283

> <Mpro-x1386_dock>
-1.824837

> <Mpro-x1382_dock>
-1.800882

> <Mpro-x0887_dock>
-1.73836

> <Mpro-x0705_dock>
-1.701984

> <Mpro-x1384_dock>
-1.687302

> <Mpro-x1187_dock>
-1.552627

> <Mpro-x0734_dock>
-1.537852

> <Mpro-x0540_dock>
-1.537017

> <Mpro-x1374_dock>
-1.518311

> <Mpro-x0731_dock>
-1.256965

> <Mpro-x1425_dock>
-0.988175

> <Mpro-x0820_dock>
-0.79863

> <Mpro-x0786_dock>
-0.771822

> <Mpro-x1358_dock>
-0.655874

> <Mpro-x0981_dock>
-0.480381

> <Mpro-x0978_dock>
0.837487

> <site>
active-noncovalent

$$$$
BAR-COM-4e0-9
  -OEChem-04022003013D

 49 52  0     1  0  0  0  0  0999 V2000
    6.4704    3.6238   22.1013 C   0  0  0  0  0  0  0  0  0  0  0  0
    6.6623    4.9838   21.8580 C   0  0  0  0  0  0  0  0  0  0  0  0
    7.3558    2.9313   22.9273 C   0  0  0  0  0  0  0  0  0  0  0  0
    7.7396    5.6513   22.4406 C   0  0  0  0  0  0  0  0  0  0  0  0
    8.4331    3.5988   23.5099 C   0  0  0  0  0  0  0  0  0  0  0  0
   11.9565    5.6322   23.1530 C   0  0  0  0  0  0  0  0  0  0  0  0
    8.6250    4.9588   23.2666 C   0  0  0  0  0  0  0  0  0  0  0  0
   12.8522    5.8527   24.2135 C   0  0  0  0  0  0  0  0  0  0  0  0
   12.6102    4.7292   22.3570 C   0  0  0  0  0  0  0  0  0  0  0  0
   10.9403   -0.4730   24.0577 C   0  0  0  0  0  0  0  0  0  0  0  0
   12.2799   -1.5895   22.7290 C   0  0  0  0  0  0  0  0  0  0  0  0
   14.0231    0.5592   22.3738 C   0  0  0  0  0  0  0  0  0  0  0  0
   12.9482    0.7096   23.1559 C   0  0  0  0  0  0  0  0  0  0  0  0
   14.1601   -0.7936   21.7653 C   0  0  0  0  0  0  0  0  0  0  0  0
    9.3640    2.8420   24.3862 C   0  0  0  0  0  0  0  0  0  0  0  0
   12.6801    6.7376   25.3781 C   0  0  0  0  0  0  0  0  0  0  0  0
   12.2799    4.0567   21.0938 C   0  0  0  0  0  0  0  0  0  0  0  0
    9.5948    0.1453   26.1069 C   0  0  0  0  0  0  0  0  0  0  0  0
   10.6016    6.2398   22.9375 C   0  0  0  0  0  0  0  0  0  0  0  0
   10.3686    0.6237   24.8612 C   0  0  2  0  0  0  0  0  0  0  0  0
   13.9755    5.1411   24.0852 N   0  0  0  0  0  0  0  0  0  0  0  0
   10.4505   -1.6838   23.9253 N   0  0  0  0  0  0  0  0  0  0  0  0
   11.2924   -2.3873   23.0897 N   0  0  0  0  0  0  0  0  0  0  0  0
   13.3577   -1.8050   21.9201 N   0  0  0  0  0  0  0  0  0  0  0  0
   12.0869   -0.3570   23.3293 N   0  0  0  0  0  0  0  0  0  0  0  0
    9.5093    1.5064   24.0786 N   0  0  0  0  0  0  0  0  0  0  0  0
    9.9175    3.4223   25.3165 O   0  0  0  0  0  0  0  0  0  0  0  0
   13.8163    4.4283   22.9028 O   0  0  0  0  0  0  0  0  0  0  0  0
    9.6706    5.6290   23.8283 O   0  0  0  0  0  0  0  0  0  0  0  0
    5.6313    3.1042   21.6474 H   0  0  0  0  0  0  0  0  0  0  0  0
    5.9729    5.5222   21.2144 H   0  0  0  0  0  0  0  0  0  0  0  0
    7.1961    1.8717   23.1101 H   0  0  0  0  0  0  0  0  0  0  0  0
    7.8833    6.7109   22.2471 H   0  0  0  0  0  0  0  0  0  0  0  0
   14.7523    1.3310   22.1764 H   0  0  0  0  0  0  0  0  0  0  0  0
   12.7251    1.6410   23.6615 H   0  0  0  0  0  0  0  0  0  0  0  0
   15.0451   -0.9204   21.1207 H   0  0  0  0  0  0  0  0  0  0  0  0
   12.2033    6.2052   26.2189 H   0  0  0  0  0  0  0  0  0  0  0  0
   13.6424    7.1397   25.7423 H   0  0  0  0  0  0  0  0  0  0  0  0
   12.0545    7.6177   25.1444 H   0  0  0  0  0  0  0  0  0  0  0  0
   12.6189    4.6446   20.2218 H   0  0  0  0  0  0  0  0  0  0  0  0
   12.7438    3.0555   21.0158 H   0  0  0  0  0  0  0  0  0  0  0  0
   11.1923    3.8915   20.9766 H   0  0  0  0  0  0  0  0  0  0  0  0
    8.7841   -0.5314   25.8155 H   0  0  0  0  0  0  0  0  0  0  0  0
   10.2445   -0.3869   26.8108 H   0  0  0  0  0  0  0  0  0  0  0  0
    9.1527    0.9875   26.6510 H   0  0  0  0  0  0  0  0  0  0  0  0
   10.6215    7.3185   23.1263 H   0  0  0  0  0  0  0  0  0  0  0  0
   10.2667    6.0848   21.9062 H   0  0  0  0  0  0  0  0  0  0  0  0
   11.1655    1.2988   25.2376 H   0  0  0  0  0  0  0  0  0  0  0  0
    8.9780    1.0732   23.3391 H   0  0  0  0  0  0  0  0  0  0  0  0
  1  2  1  0  0  0  0
  1  3  2  0  0  0  0
  2  4  2  0  0  0  0
  3  5  1  0  0  0  0
  4  7  1  0  0  0  0
  5  7  2  0  0  0  0
  5 15  1  0  0  0  0
  6  8  1  0  0  0  0
  6  9  2  0  0  0  0
  6 19  1  0  0  0  0
  7 29  1  0  0  0  0
  8 16  1  0  0  0  0
  8 21  2  0  0  0  0
  9 17  1  0  0  0  0
  9 28  1  0  0  0  0
 10 20  1  0  0  0  0
 10 22  2  0  0  0  0
 10 25  1  0  0  0  0
 11 23  2  0  0  0  0
 11 24  1  0  0  0  0
 11 25  1  0  0  0  0
 12 13  2  0  0  0  0
 12 14  1  0  0  0  0
 13 25  1  0  0  0  0
 14 24  2  0  0  0  0
 15 26  1  0  0  0  0
 15 27  2  0  0  0  0
 18 20  1  0  0  0  0
 19 29  1  0  0  0  0
 20 26  1  0  0  0  0
 21 28  1  0  0  0  0
 22 23  1  0  0  0  0
  1 30  1  0  0  0  0
  2 31  1  0  0  0  0
  3 32  1  0  0  0  0
  4 33  1  0  0  0  0
 12 34  1  0  0  0  0
 13 35  1  0  0  0  0
 14 36  1  0  0  0  0
 16 37  1  0  0  0  0
 16 38  1  0  0  0  0
 16 39  1  0  0  0  0
 17 40  1  0  0  0  0
 17 41  1  0  0  0  0
 17 42  1  0  0  0  0
 18 43  1  0  0  0  0
 18 44  1  0  0  0  0
 18 45  1  0  0  0  0
 19 46  1  0  0  0  0
 19 47  1  0  0  0  0
 20 48  1  0  0  0  0
 26 49  1  0  0  0  0
M  END
> <Hybrid2>
-7.903749

> <fragments>
x0195

> <Mpro-x0195_dock>
-7.903749

> <Mpro-x0107_dock>
-7.364151

> <Mpro-x0678_dock>
-7.198203

> <Mpro-x0434_dock>
-6.184929

> <Mpro-x1093_dock>
-4.972988

> <Mpro-x0749_dock>
-4.680029

> <Mpro-x0874_dock>
-4.516774

> <Mpro-x1249_dock>
-4.30278

> <Mpro-x0967_dock>
-4.254989

> <Mpro-x0774_dock>
-4.06791

> <Mpro-x0830_dock>
-4.026211

> <Mpro-x0072_dock>
-3.788687

> <Mpro-x0397_dock>
-3.749459

> <Mpro-x1348_dock>
-3.669098

> <Mpro-x1077_dock>
-3.658749

> <Mpro-x0946_dock>
-3.466412

> <Mpro-x0387_dock>
-3.445723

> <Mpro-x0831_dock>
-3.236789

> <Mpro-x1385_dock>
-3.160713

> <Mpro-x1311_dock>
-3.159049

> <Mpro-x0770_dock>
-3.12483

> <Mpro-x1478_dock>
-2.791875

> <Mpro-x1334_dock>
-2.779773

> <Mpro-x1493_dock>
-2.748762

> <Mpro-x1412_dock>
-2.617428

> <Mpro-x0104_dock>
-2.564436

> <Mpro-x1386_dock>
-2.509856

> <Mpro-x1392_dock>
-2.463591

> <Mpro-x0708_dock>
-2.441936

> <Mpro-x1418_dock>
-2.438634

> <Mpro-x0354_dock>
-2.269264

> <Mpro-x1187_dock>
-2.146244

> <Mpro-x1375_dock>
-2.060888

> <Mpro-x0395_dock>
-2.037724

> <Mpro-x1374_dock>
-2.031402

> <Mpro-x0736_dock>
-1.983518

> <Mpro-x0161_dock>
-1.874829

> <Mpro-x0540_dock>
-1.806305

> <Mpro-x0305_dock>
-1.564479

> <Mpro-x1358_dock>
-1.367343

> <Mpro-x0759_dock>
-1.364211

> <Mpro-x1458_dock>
-1.045438

> <Mpro-x0426_dock>
-0.901401

> <Mpro-x0771_dock>
-0.870614

> <Mpro-x0692_dock>
-0.86722

> <Mpro-x1308_dock>
-0.859781

> <Mpro-x1351_dock>
-0.373861

> <Mpro-x0734_dock>
-0.278279

> <Mpro-x0755_dock>
-0.080498

> <Mpro-x1384_dock>
0.026791

> <Mpro-x1380_dock>
0.114549

> <Mpro-x0691_dock>
0.212968

> <Mpro-x0689_dock>
0.237897

> <Mpro-x0786_dock>
0.243943

> <Mpro-x1402_dock>
0.390624

> <Mpro-x0820_dock>
0.448296

> <Mpro-x0752_dock>
0.488463

> <Mpro-x0731_dock>
0.80657

> <Mpro-x0769_dock>
1.142779

> <Mpro-x0887_dock>
1.206166

> <Mpro-x0705_dock>
1.24033

> <Mpro-x1425_dock>
1.500889

> <Mpro-x0981_dock>
1.515718

> <Mpro-x1382_dock>
2.608545

> <Mpro-x0978_dock>
3.77769

> <site>
active-noncovalent

$$$$
BAR-COM-4e0-62
  -OEChem-04022003013D

 40 41  0     1  0  0  0  0  0999 V2000
   13.6933   -1.5380   21.9977 C   0  0  0  0  0  0  0  0  0  0  0  0
   12.6420   -1.8536   22.8583 C   0  0  0  0  0  0  0  0  0  0  0  0
   14.0945   -0.2109   21.8440 C   0  0  0  0  0  0  0  0  0  0  0  0
   11.9917   -0.8421   23.5652 C   0  0  0  0  0  0  0  0  0  0  0  0
   11.0652    6.0208   22.9680 C   0  0  0  0  0  0  0  0  0  0  0  0
   12.5367    5.7632   24.5815 C   0  0  0  0  0  0  0  0  0  0  0  0
   13.4442    0.8006   22.5509 C   0  0  0  0  0  0  0  0  0  0  0  0
   12.3020    5.4210   23.2722 C   0  0  0  0  0  0  0  0  0  0  0  0
   12.3927    0.4850   23.4114 C   0  0  0  0  0  0  0  0  0  0  0  0
   13.8787    2.1794   22.3757 C   0  0  0  0  0  0  0  0  0  0  0  0
    9.6457    2.5528   24.4938 C   0  0  0  0  0  0  0  0  0  0  0  0
   13.0493    4.9878   20.8961 C   0  0  0  0  0  0  0  0  0  0  0  0
   11.2618    7.1091   26.2672 C   0  0  0  0  0  0  0  0  0  0  0  0
   10.3731    1.2311   24.4215 C   0  0  0  0  0  0  0  0  0  0  0  0
   13.1768    4.5844   22.3636 C   0  0  2  0  0  0  0  0  0  0  0  0
   10.5501    6.6928   24.0010 N   0  0  0  0  0  0  0  0  0  0  0  0
   11.4678    6.5174   24.9671 N   0  0  0  0  0  0  0  0  0  0  0  0
    9.6551    3.0881   25.7633 N   0  0  0  0  0  0  0  0  0  0  0  0
   12.9072    3.1742   22.5288 N   0  0  0  0  0  0  0  0  0  0  0  0
   15.0593    2.4349   22.0832 O   0  0  0  0  0  0  0  0  0  0  0  0
    9.1072    3.0864   23.5283 O   0  0  0  0  0  0  0  0  0  0  0  0
   11.7462    1.4591   24.1122 O   0  0  0  0  0  0  0  0  0  0  0  0
   14.1996   -2.3260   21.4474 H   0  0  0  0  0  0  0  0  0  0  0  0
   12.3298   -2.8869   22.9771 H   0  0  0  0  0  0  0  0  0  0  0  0
   14.9153    0.0232   21.1710 H   0  0  0  0  0  0  0  0  0  0  0  0
   11.1734   -1.0947   24.2341 H   0  0  0  0  0  0  0  0  0  0  0  0
   10.5154    5.9968   22.0378 H   0  0  0  0  0  0  0  0  0  0  0  0
   13.3524    5.5387   25.2553 H   0  0  0  0  0  0  0  0  0  0  0  0
   12.0174    4.8783   20.5450 H   0  0  0  0  0  0  0  0  0  0  0  0
   13.3454    6.0338   20.7583 H   0  0  0  0  0  0  0  0  0  0  0  0
   13.6930    4.3831   20.2473 H   0  0  0  0  0  0  0  0  0  0  0  0
   11.7074    8.1073   26.2579 H   0  0  0  0  0  0  0  0  0  0  0  0
   10.1896    7.1710   26.4734 H   0  0  0  0  0  0  0  0  0  0  0  0
   11.7373    6.4840   27.0282 H   0  0  0  0  0  0  0  0  0  0  0  0
    9.9259    0.6102   23.6392 H   0  0  0  0  0  0  0  0  0  0  0  0
   10.3011    0.7217   25.3873 H   0  0  0  0  0  0  0  0  0  0  0  0
   14.2263    4.7150   22.6550 H   0  0  0  0  0  0  0  0  0  0  0  0
   10.1147    2.6070   26.5294 H   0  0  0  0  0  0  0  0  0  0  0  0
    9.2101    3.9739   25.9821 H   0  0  0  0  0  0  0  0  0  0  0  0
   11.9446    2.9059   22.7055 H   0  0  0  0  0  0  0  0  0  0  0  0
  1  2  1  0  0  0  0
  1  3  2  0  0  0  0
  2  4  2  0  0  0  0
  3  7  1  0  0  0  0
  4  9  1  0  0  0  0
  5  8  1  0  0  0  0
  5 16  2  0  0  0  0
  6  8  2  0  0  0  0
  6 17  1  0  0  0  0
  7  9  2  0  0  0  0
  7 10  1  0  0  0  0
  8 15  1  0  0  0  0
  9 22  1  0  0  0  0
 10 19  1  0  0  0  0
 10 20  2  0  0  0  0
 11 14  1  0  0  0  0
 11 18  1  0  0  0  0
 11 21  2  0  0  0  0
 12 15  1  0  0  0  0
 13 17  1  0  0  0  0
 14 22  1  0  0  0  0
 15 19  1  0  0  0  0
 16 17  1  0  0  0  0
  1 23  1  0  0  0  0
  2 24  1  0  0  0  0
  3 25  1  0  0  0  0
  4 26  1  0  0  0  0
  5 27  1  0  0  0  0
  6 28  1  0  0  0  0
 12 29  1  0  0  0  0
 12 30  1  0  0  0  0
 12 31  1  0  0  0  0
 13 32  1  0  0  0  0
 13 33  1  0  0  0  0
 13 34  1  0  0  0  0
 14 35  1  0  0  0  0
 14 36  1  0  0  0  0
 15 37  1  0  0  0  0
 18 38  1  0  0  0  0
 18 39  1  0  0  0  0
 19 40  1  0  0  0  0
M  END
> <Hybrid2>
-7.899331

> <fragments>
x0195

> <Mpro-x0195_dock>
-7.899331

> <Mpro-x0831_dock>
-7.269392

> <Mpro-x0678_dock>
-7.226137

> <Mpro-x0072_dock>
-6.884863

> <Mpro-x1392_dock>
-6.589306

> <Mpro-x0161_dock>
-6.426136

> <Mpro-x0749_dock>
-6.415298

> <Mpro-x0874_dock>
-6.347649

> <Mpro-x0830_dock>
-6.242143

> <Mpro-x0946_dock>
-6.209937

> <Mpro-x0434_dock>
-6.149486

> <Mpro-x1093_dock>
-6.090279

> <Mpro-x1385_dock>
-5.950397

> <Mpro-x0967_dock>
-5.588986

> <Mpro-x0397_dock>
-5.25338

> <Mpro-x0708_dock>
-5.196321

> <Mpro-x1077_dock>
-5.16772

> <Mpro-x0692_dock>
-4.937007

> <Mpro-x1334_dock>
-4.927006

> <Mpro-x0759_dock>
-4.892458

> <Mpro-x1249_dock>
-4.889533

> <Mpro-x0104_dock>
-4.869287

> <Mpro-x0107_dock>
-4.678737

> <Mpro-x1311_dock>
-4.668015

> <Mpro-x1187_dock>
-4.596586

> <Mpro-x0395_dock>
-4.341073

> <Mpro-x1375_dock>
-4.176373

> <Mpro-x1412_dock>
-4.170314

> <Mpro-x1418_dock>
-4.111022

> <Mpro-x0770_dock>
-3.652757

> <Mpro-x0305_dock>
-3.543632

> <Mpro-x0387_dock>
-3.501153

> <Mpro-x1386_dock>
-3.397594

> <Mpro-x1478_dock>
-3.345818

> <Mpro-x1374_dock>
-3.262951

> <Mpro-x0771_dock>
-3.177097

> <Mpro-x1493_dock>
-3.159811

> <Mpro-x0691_dock>
-3.020967

> <Mpro-x0981_dock>
-2.974228

> <Mpro-x0540_dock>
-2.953971

> <Mpro-x1458_dock>
-2.928386

> <Mpro-x1348_dock>
-2.841506

> <Mpro-x0774_dock>
-2.822314

> <Mpro-x0731_dock>
-2.542496

> <Mpro-x1380_dock>
-2.536375

> <Mpro-x0734_dock>
-2.425408

> <Mpro-x0705_dock>
-2.264917

> <Mpro-x0354_dock>
-2.233008

> <Mpro-x1384_dock>
-2.062462

> <Mpro-x0689_dock>
-1.926687

> <Mpro-x0786_dock>
-1.909816

> <Mpro-x1308_dock>
-1.821363

> <Mpro-x1351_dock>
-1.635189

> <Mpro-x1382_dock>
-1.574228

> <Mpro-x0755_dock>
-1.537918

> <Mpro-x1358_dock>
-1.535796

> <Mpro-x0752_dock>
-1.411096

> <Mpro-x1425_dock>
-1.367162

> <Mpro-x0736_dock>
-1.143665

> <Mpro-x0820_dock>
-0.834388

> <Mpro-x0769_dock>
-0.586386

> <Mpro-x1402_dock>
-0.451367

> <Mpro-x0426_dock>
-0.306425

> <Mpro-x0887_dock>
1.269228

> <Mpro-x0978_dock>
3.255826

> <site>
active-noncovalent

$$$$
VIR-GIT-7b3-3
  -OEChem-04022003013D

 38 38  0     0  0  0  0  0  0999 V2000
   11.1551   -3.3998   24.3285 C   0  0  0  0  0  0  0  0  0  0  0  0
    6.8273   -5.0451   22.1785 C   0  0  0  0  0  0  0  0  0  0  0  0
    8.7528   -2.7810   24.1351 C   0  0  0  0  0  0  0  0  0  0  0  0
    9.4238   -5.1689   24.6924 C   0  0  0  0  0  0  0  0  0  0  0  0
    8.4386   -3.2459   22.7142 C   0  0  0  0  0  0  0  0  0  0  0  0
    9.0705   -5.5637   23.2578 C   0  0  0  0  0  0  0  0  0  0  0  0
    9.7719   -3.6840   24.8373 C   0  0  0  0  0  0  0  0  0  0  0  0
   14.1534   -2.2116   25.7501 C   0  0  0  0  0  0  0  0  0  0  0  0
   13.2043   -0.5467   24.1151 C   0  0  0  0  0  0  0  0  0  0  0  0
   11.2945   -1.6156   26.0730 C   0  0  0  0  0  0  0  0  0  0  0  0
    6.1945   -6.2758   22.7776 C   0  0  0  0  0  0  0  0  0  0  0  0
   13.2133   -1.9979   24.5726 C   0  0  0  0  0  0  0  0  0  0  0  0
    8.0600   -4.6583   22.7026 N   0  0  0  0  0  0  0  0  0  0  0  0
   11.8591   -2.3780   24.9668 N   0  0  0  0  0  0  0  0  0  0  0  0
   11.5998   -4.0659   23.3899 O   0  0  0  0  0  0  0  0  0  0  0  0
    6.2410   -4.4458   21.2733 O   0  0  0  0  0  0  0  0  0  0  0  0
    5.9916   -5.9522   24.4957 Cl  0  0  0  0  0  0  0  0  0  0  0  0
    9.1157   -1.7466   24.1036 H   0  0  0  0  0  0  0  0  0  0  0  0
    7.8226   -2.7737   24.7178 H   0  0  0  0  0  0  0  0  0  0  0  0
    8.5660   -5.3956   25.3386 H   0  0  0  0  0  0  0  0  0  0  0  0
   10.2570   -5.7909   25.0414 H   0  0  0  0  0  0  0  0  0  0  0  0
    7.6419   -2.6246   22.2928 H   0  0  0  0  0  0  0  0  0  0  0  0
    9.3145   -3.1338   22.0647 H   0  0  0  0  0  0  0  0  0  0  0  0
    9.9519   -5.5016   22.6095 H   0  0  0  0  0  0  0  0  0  0  0  0
    8.7406   -6.6041   23.2429 H   0  0  0  0  0  0  0  0  0  0  0  0
    9.7909   -3.4275   25.9039 H   0  0  0  0  0  0  0  0  0  0  0  0
   13.8692   -1.5776   26.5961 H   0  0  0  0  0  0  0  0  0  0  0  0
   14.1427   -3.2545   26.0863 H   0  0  0  0  0  0  0  0  0  0  0  0
   15.1846   -1.9658   25.4735 H   0  0  0  0  0  0  0  0  0  0  0  0
   12.9036    0.1166   24.9336 H   0  0  0  0  0  0  0  0  0  0  0  0
   12.5022   -0.4032   23.2873 H   0  0  0  0  0  0  0  0  0  0  0  0
   14.1971   -0.2264   23.7800 H   0  0  0  0  0  0  0  0  0  0  0  0
   11.5408   -2.1110   27.0238 H   0  0  0  0  0  0  0  0  0  0  0  0
   11.7147   -0.5991   26.0698 H   0  0  0  0  0  0  0  0  0  0  0  0
   10.2016   -1.5610   25.9605 H   0  0  0  0  0  0  0  0  0  0  0  0
    6.8606   -7.1188   22.6338 H   0  0  0  0  0  0  0  0  0  0  0  0
    5.2288   -6.4363   22.3123 H   0  0  0  0  0  0  0  0  0  0  0  0
   13.5162   -2.6413   23.7394 H   0  0  0  0  0  0  0  0  0  0  0  0
  1  7  1  0  0  0  0
  1 14  1  0  0  0  0
  1 15  2  0  0  0  0
  2 11  1  0  0  0  0
  2 13  1  0  0  0  0
  2 16  2  0  0  0  0
  3  5  1  0  0  0  0
  3  7  1  0  0  0  0
  4  6  1  0  0  0  0
  4  7  1  0  0  0  0
  5 13  1  0  0  0  0
  6 13  1  0  0  0  0
  8 12  1  0  0  0  0
  9 12  1  0  0  0  0
 10 14  1  0  0  0  0
 11 17  1  0  0  0  0
 12 14  1  0  0  0  0
  3 18  1  0  0  0  0
  3 19  1  0  0  0  0
  4 20  1  0  0  0  0
  4 21  1  0  0  0  0
  5 22  1  0  0  0  0
  5 23  1  0  0  0  0
  6 24  1  0  0  0  0
  6 25  1  0  0  0  0
  7 26  1  0  0  0  0
  8 27  1  0  0  0  0
  8 28  1  0  0  0  0
  8 29  1  0  0  0  0
  9 30  1  0  0  0  0
  9 31  1  0  0  0  0
  9 32  1  0  0  0  0
 10 33  1  0  0  0  0
 10 34  1  0  0  0  0
 10 35  1  0  0  0  0
 11 36  1  0  0  0  0
 11 37  1  0  0  0  0
 12 38  1  0  0  0  0
M  END
> <Hybrid2>
-7.855107

> <fragments>
x0749

> <Mpro-x0749_dock>
-7.855107

> <Mpro-x0104_dock>
-7.485155

> <Mpro-x0678_dock>
-7.375888

> <Mpro-x1385_dock>
-6.564114

> <Mpro-x0161_dock>
-6.519801

> <Mpro-x0397_dock>
-6.481792

> <Mpro-x0434_dock>
-6.481678

> <Mpro-x0195_dock>
-6.438033

> <Mpro-x1392_dock>
-6.312914

> <Mpro-x1334_dock>
-6.310177

> <Mpro-x0736_dock>
-6.274941

> <Mpro-x1077_dock>
-6.243332

> <Mpro-x0072_dock>
-6.22319

> <Mpro-x0831_dock>
-6.063517

> <Mpro-x0708_dock>
-6.058912

> <Mpro-x1093_dock>
-6.012014

> <Mpro-x1311_dock>
-5.780477

> <Mpro-x0395_dock>
-5.775681

> <Mpro-x0387_dock>
-5.774583

> <Mpro-x0830_dock>
-5.463263

> <Mpro-x1412_dock>
-5.403081

> <Mpro-x1418_dock>
-5.303497

> <Mpro-x0874_dock>
-5.262241

> <Mpro-x0107_dock>
-5.224563

> <Mpro-x1348_dock>
-5.163086

> <Mpro-x0967_dock>
-5.162394

> <Mpro-x0692_dock>
-4.92801

> <Mpro-x0946_dock>
-4.846933

> <Mpro-x0759_dock>
-4.768297

> <Mpro-x1386_dock>
-4.550086

> <Mpro-x0770_dock>
-4.476692

> <Mpro-x0774_dock>
-4.444494

> <Mpro-x0734_dock>
-3.887695

> <Mpro-x1382_dock>
-3.761392

> <Mpro-x1375_dock>
-3.74003

> <Mpro-x1458_dock>
-3.637605

> <Mpro-x1187_dock>
-3.485659

> <Mpro-x0354_dock>
-3.416747

> <Mpro-x1478_dock>
-3.371539

> <Mpro-x1358_dock>
-3.356046

> <Mpro-x1374_dock>
-3.258421

> <Mpro-x0305_dock>
-3.103334

> <Mpro-x1249_dock>
-3.03946

> <Mpro-x0820_dock>
-3.027908

> <Mpro-x1380_dock>
-3.02136

> <Mpro-x0786_dock>
-2.750217

> <Mpro-x1493_dock>
-2.306747

> <Mpro-x0771_dock>
-2.100168

> <Mpro-x1384_dock>
-2.08633

> <Mpro-x1308_dock>
-1.999924

> <Mpro-x1351_dock>
-1.75533

> <Mpro-x1425_dock>
-1.694072

> <Mpro-x0705_dock>
-1.653722

> <Mpro-x0752_dock>
-1.309173

> <Mpro-x0978_dock>
-1.295002

> <Mpro-x0691_dock>
-1.288706

> <Mpro-x0769_dock>
-1.187866

> <Mpro-x0731_dock>
-1.028823

> <Mpro-x1402_dock>
-0.988284

> <Mpro-x0755_dock>
-0.983419

> <Mpro-x0426_dock>
-0.86407

> <Mpro-x0540_dock>
-0.811847

> <Mpro-x0689_dock>
-0.710148

> <Mpro-x0887_dock>
0.136903

> <Mpro-x0981_dock>
0.274355

> <site>
active-covalent

$$$$
BAR-COM-4e0-17
  -OEChem-04022003013D

 52 54  0     1  0  0  0  0  0999 V2000
   13.9045   -1.7946   22.2893 C   0  0  0  0  0  0  0  0  0  0  0  0
   14.5511   -0.6176   21.9122 C   0  0  0  0  0  0  0  0  0  0  0  0
   12.7589   -1.7375   23.0831 C   0  0  0  0  0  0  0  0  0  0  0  0
   14.0522    0.6165   22.3290 C   0  0  0  0  0  0  0  0  0  0  0  0
   10.3693    6.5219   22.7596 C   0  0  0  0  0  0  0  0  0  0  0  0
    9.2629    7.3256   22.9451 C   0  0  0  0  0  0  0  0  0  0  0  0
    9.9450    7.8663   25.0449 C   0  0  0  0  0  0  0  0  0  0  0  0
   12.2600   -0.5034   23.4999 C   0  0  0  0  0  0  0  0  0  0  0  0
   12.9066    0.6737   23.1228 C   0  0  0  0  0  0  0  0  0  0  0  0
   11.2435    6.4545   23.8252 C   0  0  0  0  0  0  0  0  0  0  0  0
   11.0605   -0.4789   24.3290 C   0  0  0  0  0  0  0  0  0  0  0  0
   12.9504    3.1963   23.2447 C   0  0  0  0  0  0  0  0  0  0  0  0
    7.6513   -1.3439   22.0057 C   0  0  0  0  0  0  0  0  0  0  0  0
    9.5753    0.2416   22.3732 C   0  0  0  0  0  0  0  0  0  0  0  0
    8.6210   -0.9550   24.3075 C   0  0  0  0  0  0  0  0  0  0  0  0
    8.9291   -0.7453   21.3937 C   0  0  2  0  0  0  0  0  0  0  0  0
    7.9331   -1.9683   23.3828 C   0  0  1  0  0  0  0  0  0  0  0  0
    8.6252   -0.0659   20.0611 C   0  0  0  0  0  0  0  0  0  0  0  0
    6.6452   -2.4901   24.0146 C   0  0  0  0  0  0  0  0  0  0  0  0
   12.4767    5.6049   23.7172 C   0  0  0  0  0  0  0  0  0  0  0  0
    9.0185    8.0146   24.0790 N   0  0  0  0  0  0  0  0  0  0  0  0
   11.0619    7.1161   24.9870 N   0  0  0  0  0  0  0  0  0  0  0  0
    9.8200   -0.4076   23.6689 N   0  0  0  0  0  0  0  0  0  0  0  0
   12.4259    1.9212   23.5302 N   0  0  0  0  0  0  0  0  0  0  0  0
   12.1759    4.1971   23.8401 N   0  0  0  0  0  0  0  0  0  0  0  0
   11.1560   -0.5219   25.5568 O   0  0  0  0  0  0  0  0  0  0  0  0
   13.9488    3.4329   22.5687 O   0  0  0  0  0  0  0  0  0  0  0  0
   14.2934   -2.7554   21.9649 H   0  0  0  0  0  0  0  0  0  0  0  0
   15.4429   -0.6626   21.2940 H   0  0  0  0  0  0  0  0  0  0  0  0
   12.2640   -2.6618   23.3700 H   0  0  0  0  0  0  0  0  0  0  0  0
   14.5652    1.5266   22.0284 H   0  0  0  0  0  0  0  0  0  0  0  0
   10.5321    5.9838   21.8347 H   0  0  0  0  0  0  0  0  0  0  0  0
    8.5195    7.4413   22.1636 H   0  0  0  0  0  0  0  0  0  0  0  0
    9.7735    8.4090   25.9665 H   0  0  0  0  0  0  0  0  0  0  0  0
    6.8862   -0.5622   22.1038 H   0  0  0  0  0  0  0  0  0  0  0  0
    7.2414   -2.1061   21.3316 H   0  0  0  0  0  0  0  0  0  0  0  0
   10.5012    0.6368   21.9466 H   0  0  0  0  0  0  0  0  0  0  0  0
    8.9149    1.0976   22.5596 H   0  0  0  0  0  0  0  0  0  0  0  0
    7.9560   -0.1117   24.5310 H   0  0  0  0  0  0  0  0  0  0  0  0
    8.8802   -1.4287   25.2605 H   0  0  0  0  0  0  0  0  0  0  0  0
    9.6404   -1.5626   21.2019 H   0  0  0  0  0  0  0  0  0  0  0  0
    8.6108   -2.8238   23.2429 H   0  0  0  0  0  0  0  0  0  0  0  0
    7.9218    0.7508   20.2151 H   0  0  0  0  0  0  0  0  0  0  0  0
    8.1898   -0.7861   19.3704 H   0  0  0  0  0  0  0  0  0  0  0  0
    9.5436    0.3307   19.6311 H   0  0  0  0  0  0  0  0  0  0  0  0
    5.9492   -1.6670   24.1677 H   0  0  0  0  0  0  0  0  0  0  0  0
    6.8664   -2.9533   24.9748 H   0  0  0  0  0  0  0  0  0  0  0  0
    6.1856   -3.2287   23.3597 H   0  0  0  0  0  0  0  0  0  0  0  0
   12.9699    5.7614   22.7516 H   0  0  0  0  0  0  0  0  0  0  0  0
   13.2006    5.8620   24.4976 H   0  0  0  0  0  0  0  0  0  0  0  0
   11.5827    1.9198   24.1118 H   0  0  0  0  0  0  0  0  0  0  0  0
   11.3644    3.9215   24.3842 H   0  0  0  0  0  0  0  0  0  0  0  0
  1  2  1  0  0  0  0
  1  3  2  0  0  0  0
  2  4  2  0  0  0  0
  3  8  1  0  0  0  0
  4  9  1  0  0  0  0
  5  6  2  0  0  0  0
  5 10  1  0  0  0  0
  6 21  1  0  0  0  0
  7 21  2  0  0  0  0
  7 22  1  0  0  0  0
  8  9  2  0  0  0  0
  8 11  1  0  0  0  0
  9 24  1  0  0  0  0
 10 20  1  0  0  0  0
 10 22  2  0  0  0  0
 11 23  1  0  0  0  0
 11 26  2  0  0  0  0
 12 24  1  0  0  0  0
 12 25  1  0  0  0  0
 12 27  2  0  0  0  0
 13 16  1  0  0  0  0
 13 17  1  0  0  0  0
 14 16  1  0  0  0  0
 14 23  1  0  0  0  0
 15 17  1  0  0  0  0
 15 23  1  0  0  0  0
 16 18  1  0  0  0  0
 17 19  1  0  0  0  0
 20 25  1  0  0  0  0
  1 28  1  0  0  0  0
  2 29  1  0  0  0  0
  3 30  1  0  0  0  0
  4 31  1  0  0  0  0
  5 32  1  0  0  0  0
  6 33  1  0  0  0  0
  7 34  1  0  0  0  0
 13 35  1  0  0  0  0
 13 36  1  0  0  0  0
 14 37  1  0  0  0  0
 14 38  1  0  0  0  0
 15 39  1  0  0  0  0
 15 40  1  0  0  0  0
 16 41  1  0  0  0  0
 17 42  1  0  0  0  0
 18 43  1  0  0  0  0
 18 44  1  0  0  0  0
 18 45  1  0  0  0  0
 19 46  1  0  0  0  0
 19 47  1  0  0  0  0
 19 48  1  0  0  0  0
 20 49  1  0  0  0  0
 20 50  1  0  0  0  0
 24 51  1  0  0  0  0
 25 52  1  0  0  0  0
M  END
> <Hybrid2>
-7.820384

> <fragments>
x0195

> <Mpro-x0195_dock>
-7.820384

> <Mpro-x0678_dock>
-7.570045

> <Mpro-x1334_dock>
-7.140097

> <Mpro-x0104_dock>
-6.973085

> <Mpro-x0107_dock>
-6.950949

> <Mpro-x0874_dock>
-6.485528

> <Mpro-x0434_dock>
-6.182627

> <Mpro-x1077_dock>
-5.842538

> <Mpro-x0831_dock>
-5.657603

> <Mpro-x0946_dock>
-5.300869

> <Mpro-x1093_dock>
-5.254189

> <Mpro-x0387_dock>
-5.115771

> <Mpro-x0830_dock>
-5.051095

> <Mpro-x0161_dock>
-4.684669

> <Mpro-x1385_dock>
-4.536936

> <Mpro-x1392_dock>
-4.436866

> <Mpro-x0692_dock>
-3.990728

> <Mpro-x0072_dock>
-3.962878

> <Mpro-x0397_dock>
-3.90337

> <Mpro-x1412_dock>
-3.584363

> <Mpro-x1418_dock>
-3.338017

> <Mpro-x0967_dock>
-3.321865

> <Mpro-x0774_dock>
-3.034933

> <Mpro-x1478_dock>
-2.767335

> <Mpro-x1380_dock>
-2.662251

> <Mpro-x1386_dock>
-2.577528

> <Mpro-x1311_dock>
-2.55842

> <Mpro-x0749_dock>
-2.549589

> <Mpro-x1493_dock>
-2.537144

> <Mpro-x0759_dock>
-2.465828

> <Mpro-x0731_dock>
-2.406284

> <Mpro-x0354_dock>
-2.347615

> <Mpro-x0770_dock>
-2.342303

> <Mpro-x1375_dock>
-2.293342

> <Mpro-x0395_dock>
-2.285673

> <Mpro-x1458_dock>
-2.103497

> <Mpro-x1351_dock>
-2.093767

> <Mpro-x0771_dock>
-2.072542

> <Mpro-x1358_dock>
-2.026188

> <Mpro-x0426_dock>
-1.945249

> <Mpro-x0734_dock>
-1.92109

> <Mpro-x0305_dock>
-1.920175

> <Mpro-x0708_dock>
-1.803815

> <Mpro-x1249_dock>
-1.702583

> <Mpro-x1348_dock>
-1.5013

> <Mpro-x1425_dock>
-1.493386

> <Mpro-x1384_dock>
-1.460511

> <Mpro-x0705_dock>
-1.458235

> <Mpro-x0820_dock>
-1.384531

> <Mpro-x1308_dock>
-1.297984

> <Mpro-x1187_dock>
-1.275676

> <Mpro-x0540_dock>
-1.135678

> <Mpro-x0736_dock>
-0.573672

> <Mpro-x0755_dock>
-0.566994

> <Mpro-x1382_dock>
-0.522556

> <Mpro-x0689_dock>
-0.395811

> <Mpro-x0769_dock>
-0.35796

> <Mpro-x0691_dock>
-0.3574

> <Mpro-x0752_dock>
-0.137916

> <Mpro-x1402_dock>
0.344974

> <Mpro-x0978_dock>
0.551819

> <Mpro-x0887_dock>
0.651

> <Mpro-x0786_dock>
1.721801

> <Mpro-x1374_dock>
2.226582

> <Mpro-x0981_dock>
2.340769

> <site>
active-noncovalent

$$$$
VIJ-CYC-1a3-12
  -OEChem-04022003013D

 33 33  0     1  0  0  0  0  0999 V2000
    8.4401    3.2329   22.3436 C   0  0  0  0  0  0  0  0  0  0  0  0
   13.4112    0.1461   22.4262 C   0  0  0  0  0  0  0  0  0  0  0  0
   12.2040    0.0434   24.5165 C   0  0  0  0  0  0  0  0  0  0  0  0
   13.1896    1.5219   22.3658 C   0  0  0  0  0  0  0  0  0  0  0  0
   11.9824    1.4192   24.4561 C   0  0  0  0  0  0  0  0  0  0  0  0
   12.9184   -0.5932   23.5016 C   0  0  0  0  0  0  0  0  0  0  0  0
   12.4752    2.1585   23.3807 C   0  0  0  0  0  0  0  0  0  0  0  0
    9.9755    6.1286   24.4072 C   0  0  0  0  0  0  0  0  0  0  0  0
    8.6125    6.1927   22.3048 C   0  0  0  0  0  0  0  0  0  0  0  0
   13.1545   -2.0643   23.5661 C   0  0  0  0  0  0  0  0  0  0  0  0
    9.4465    3.9470   23.1470 C   0  0  2  0  0  0  0  0  0  0  0  0
    8.9664    5.3622   23.5435 C   0  0  0  0  0  0  0  0  0  0  0  0
    7.6474    2.6671   21.7125 N   0  0  0  0  0  0  0  0  0  0  0  0
   10.7084    3.9705   22.4482 N   0  0  0  0  0  0  0  0  0  0  0  0
   11.9768    4.3791   24.6577 O   0  0  0  0  0  0  0  0  0  0  0  0
   13.2597    4.4663   22.4965 O   0  0  0  0  0  0  0  0  0  0  0  0
   13.8579   -2.3860   24.6883 F   0  0  0  0  0  0  0  0  0  0  0  0
   12.1962    3.9024   23.3055 S   0  0  0  0  0  0  0  0  0  0  0  0
   13.9686   -0.3413   21.6308 H   0  0  0  0  0  0  0  0  0  0  0  0
   11.8160   -0.5246   25.3579 H   0  0  0  0  0  0  0  0  0  0  0  0
   13.5774    2.0884   21.5233 H   0  0  0  0  0  0  0  0  0  0  0  0
   11.4242    1.9050   25.2521 H   0  0  0  0  0  0  0  0  0  0  0  0
   10.9179    6.2641   23.8649 H   0  0  0  0  0  0  0  0  0  0  0  0
   10.2020    5.5941   25.3357 H   0  0  0  0  0  0  0  0  0  0  0  0
    9.6029    7.1240   24.6685 H   0  0  0  0  0  0  0  0  0  0  0  0
    9.4830    6.3458   21.6582 H   0  0  0  0  0  0  0  0  0  0  0  0
    7.8323    5.6998   21.7153 H   0  0  0  0  0  0  0  0  0  0  0  0
    8.2348    7.1786   22.5964 H   0  0  0  0  0  0  0  0  0  0  0  0
   13.7274   -2.4231   22.7030 H   0  0  0  0  0  0  0  0  0  0  0  0
   12.2143   -2.6277   23.5929 H   0  0  0  0  0  0  0  0  0  0  0  0
    9.6204    3.3642   24.0601 H   0  0  0  0  0  0  0  0  0  0  0  0
    8.0456    5.2558   24.1339 H   0  0  0  0  0  0  0  0  0  0  0  0
   10.7172    3.6296   21.4662 H   0  0  0  0  0  0  0  0  0  0  0  0
  1 11  1  0  0  0  0
  1 13  3  0  0  0  0
  2  4  2  0  0  0  0
  2  6  1  0  0  0  0
  3  5  1  0  0  0  0
  3  6  2  0  0  0  0
  4  7  1  0  0  0  0
  5  7  2  0  0  0  0
  6 10  1  0  0  0  0
  7 18  1  0  0  0  0
  8 12  1  0  0  0  0
  9 12  1  0  0  0  0
 10 17  1  0  0  0  0
 11 12  1  0  0  0  0
 11 14  1  0  0  0  0
 14 18  1  0  0  0  0
 15 18  2  0  0  0  0
 16 18  2  0  0  0  0
  2 19  1  0  0  0  0
  3 20  1  0  0  0  0
  4 21  1  0  0  0  0
  5 22  1  0  0  0  0
  8 23  1  0  0  0  0
  8 24  1  0  0  0  0
  8 25  1  0  0  0  0
  9 26  1  0  0  0  0
  9 27  1  0  0  0  0
  9 28  1  0  0  0  0
 10 29  1  0  0  0  0
 10 30  1  0  0  0  0
 11 31  1  0  0  0  0
 12 32  1  0  0  0  0
 14 33  1  0  0  0  0
M  END
> <Hybrid2>
-7.813967

> <fragments>
x0161

> <Mpro-x0161_dock>
-7.813967

> <Mpro-x0104_dock>
-7.064913

> <Mpro-x0678_dock>
-6.906078

> <Mpro-x0107_dock>
-6.714749

> <Mpro-x0434_dock>
-6.574573

> <Mpro-x0946_dock>
-6.464504

> <Mpro-x1375_dock>
-6.452967

> <Mpro-x1093_dock>
-6.416472

> <Mpro-x0749_dock>
-6.381449

> <Mpro-x0830_dock>
-6.329101

> <Mpro-x1412_dock>
-6.280231

> <Mpro-x1334_dock>
-6.239889

> <Mpro-x0831_dock>
-6.123715

> <Mpro-x0072_dock>
-6.114981

> <Mpro-x0874_dock>
-6.077931

> <Mpro-x1386_dock>
-6.063205

> <Mpro-x0708_dock>
-5.954266

> <Mpro-x0397_dock>
-5.933851

> <Mpro-x0692_dock>
-5.93301

> <Mpro-x1385_dock>
-5.871868

> <Mpro-x1374_dock>
-5.811288

> <Mpro-x1077_dock>
-5.766058

> <Mpro-x1392_dock>
-5.722506

> <Mpro-x1311_dock>
-5.611611

> <Mpro-x1418_dock>
-5.597135

> <Mpro-x0395_dock>
-5.558719

> <Mpro-x0774_dock>
-5.437835

> <Mpro-x0195_dock>
-5.380597

> <Mpro-x0770_dock>
-5.285233

> <Mpro-x0759_dock>
-5.193507

> <Mpro-x0387_dock>
-4.961975

> <Mpro-x1249_dock>
-4.934468

> <Mpro-x0734_dock>
-4.797177

> <Mpro-x1458_dock>
-4.698823

> <Mpro-x0305_dock>
-4.627639

> <Mpro-x1187_dock>
-4.592099

> <Mpro-x1380_dock>
-4.564926

> <Mpro-x0978_dock>
-4.209182

> <Mpro-x0736_dock>
-3.971475

> <Mpro-x0967_dock>
-3.96945

> <Mpro-x0354_dock>
-3.843852

> <Mpro-x1478_dock>
-3.646634

> <Mpro-x0820_dock>
-3.500978

> <Mpro-x1493_dock>
-2.968302

> <Mpro-x0771_dock>
-2.777852

> <Mpro-x1384_dock>
-2.755662

> <Mpro-x0752_dock>
-2.725658

> <Mpro-x1358_dock>
-2.692881

> <Mpro-x1348_dock>
-2.649366

> <Mpro-x0769_dock>
-2.600113

> <Mpro-x0755_dock>
-2.553

> <Mpro-x1425_dock>
-2.477695

> <Mpro-x0691_dock>
-2.455047

> <Mpro-x0731_dock>
-2.43736

> <Mpro-x1382_dock>
-2.379949

> <Mpro-x1308_dock>
-2.335476

> <Mpro-x1351_dock>
-2.289687

> <Mpro-x0689_dock>
-2.115178

> <Mpro-x0786_dock>
-2.003971

> <Mpro-x1402_dock>
-1.968861

> <Mpro-x0705_dock>
-0.994801

> <Mpro-x0981_dock>
-0.754827

> <Mpro-x0426_dock>
-0.334529

> <Mpro-x0887_dock>
-0.299311

> <Mpro-x0540_dock>
0.16717

> <site>
active-noncovalent

$$$$
BAR-COM-4e0-38
  -OEChem-04022003013D

 46 48  0     1  0  0  0  0  0999 V2000
   14.3339   -1.6844   24.3052 C   0  0  0  0  0  0  0  0  0  0  0  0
   14.5184   -2.1234   22.9942 C   0  0  0  0  0  0  0  0  0  0  0  0
   13.2969   -0.8012   24.6056 C   0  0  0  0  0  0  0  0  0  0  0  0
   13.6660   -1.6791   21.9835 C   0  0  0  0  0  0  0  0  0  0  0  0
   12.4445   -0.3569   23.5949 C   0  0  0  0  0  0  0  0  0  0  0  0
    6.1867   -0.3757   18.2613 C   0  0  0  0  0  0  0  0  0  0  0  0
    5.9590   -0.1589   19.5998 C   0  0  0  0  0  0  0  0  0  0  0  0
    8.0889    0.0931   19.0933 C   0  0  0  0  0  0  0  0  0  0  0  0
   12.6290   -0.7959   22.2838 C   0  0  0  0  0  0  0  0  0  0  0  0
   12.1650    3.6861   22.8214 C   0  0  0  0  0  0  0  0  0  0  0  0
   12.3360    2.1456   21.4513 C   0  0  0  0  0  0  0  0  0  0  0  0
    9.4425   -1.1533   21.7696 C   0  0  0  0  0  0  0  0  0  0  0  0
   11.5778    4.6109   23.7973 C   0  0  0  0  0  0  0  0  0  0  0  0
    7.1421   -1.8837   22.4967 C   0  0  0  0  0  0  0  0  0  0  0  0
   12.1943    0.9817   20.4970 C   0  0  0  0  0  0  0  0  0  0  0  0
    7.4822    0.4528   21.5147 C   0  0  0  0  0  0  0  0  0  0  0  0
   11.7003   -0.3114   21.1834 C   0  0  2  0  0  0  0  0  0  0  0  0
    8.0953   -0.6997   22.3342 C   0  0  2  0  0  0  0  0  0  0  0  0
    7.5145   -0.2176   17.9524 N   0  0  0  0  0  0  0  0  0  0  0  0
   11.4335    2.7060   22.2162 N   0  0  0  0  0  0  0  0  0  0  0  0
   13.4522    3.7519   22.4687 N   0  0  0  0  0  0  0  0  0  0  0  0
    7.1868    0.1400   20.1196 N   0  0  0  0  0  0  0  0  0  0  0  0
   10.3623   -0.1181   21.6898 N   0  0  0  0  0  0  0  0  0  0  0  0
    9.6641   -2.3129   21.4267 O   0  0  0  0  0  0  0  0  0  0  0  0
   13.5692    2.7092   21.5411 O   0  0  0  0  0  0  0  0  0  0  0  0
   14.9969   -2.0315   25.0924 H   0  0  0  0  0  0  0  0  0  0  0  0
   15.3251   -2.8120   22.7603 H   0  0  0  0  0  0  0  0  0  0  0  0
   13.1523   -0.4600   25.6264 H   0  0  0  0  0  0  0  0  0  0  0  0
   13.8174   -2.0264   20.9648 H   0  0  0  0  0  0  0  0  0  0  0  0
   11.6393    0.3314   23.8382 H   0  0  0  0  0  0  0  0  0  0  0  0
    5.4619   -0.6376   17.5042 H   0  0  0  0  0  0  0  0  0  0  0  0
    5.0631   -0.1905   20.2040 H   0  0  0  0  0  0  0  0  0  0  0  0
    9.1421    0.2925   19.2363 H   0  0  0  0  0  0  0  0  0  0  0  0
   11.6562    4.2178   24.8277 H   0  0  0  0  0  0  0  0  0  0  0  0
   12.0678    5.6032   23.7873 H   0  0  0  0  0  0  0  0  0  0  0  0
   10.5061    4.8070   23.6021 H   0  0  0  0  0  0  0  0  0  0  0  0
    6.8984   -2.3262   21.5253 H   0  0  0  0  0  0  0  0  0  0  0  0
    6.2045   -1.5576   22.9610 H   0  0  0  0  0  0  0  0  0  0  0  0
    7.5623   -2.6654   23.1377 H   0  0  0  0  0  0  0  0  0  0  0  0
   13.1776    0.8074   20.0380 H   0  0  0  0  0  0  0  0  0  0  0  0
   11.5327    1.2638   19.6673 H   0  0  0  0  0  0  0  0  0  0  0  0
    8.1466    1.3258   21.5101 H   0  0  0  0  0  0  0  0  0  0  0  0
    6.5456    0.7849   21.9804 H   0  0  0  0  0  0  0  0  0  0  0  0
   11.6265   -1.0992   20.4229 H   0  0  0  0  0  0  0  0  0  0  0  0
    8.2926   -0.3107   23.3430 H   0  0  0  0  0  0  0  0  0  0  0  0
   10.0846    0.8087   21.9985 H   0  0  0  0  0  0  0  0  0  0  0  0
  1  2  1  0  0  0  0
  1  3  2  0  0  0  0
  2  4  2  0  0  0  0
  3  5  1  0  0  0  0
  4  9  1  0  0  0  0
  5  9  2  0  0  0  0
  6  7  2  0  0  0  0
  6 19  1  0  0  0  0
  7 22  1  0  0  0  0
  8 19  2  0  0  0  0
  8 22  1  0  0  0  0
  9 17  1  0  0  0  0
 10 13  1  0  0  0  0
 10 20  1  0  0  0  0
 10 21  2  0  0  0  0
 11 15  1  0  0  0  0
 11 20  2  0  0  0  0
 11 25  1  0  0  0  0
 12 18  1  0  0  0  0
 12 23  1  0  0  0  0
 12 24  2  0  0  0  0
 14 18  1  0  0  0  0
 15 17  1  0  0  0  0
 16 18  1  0  0  0  0
 16 22  1  0  0  0  0
 17 23  1  0  0  0  0
 21 25  1  0  0  0  0
  1 26  1  0  0  0  0
  2 27  1  0  0  0  0
  3 28  1  0  0  0  0
  4 29  1  0  0  0  0
  5 30  1  0  0  0  0
  6 31  1  0  0  0  0
  7 32  1  0  0  0  0
  8 33  1  0  0  0  0
 13 34  1  0  0  0  0
 13 35  1  0  0  0  0
 13 36  1  0  0  0  0
 14 37  1  0  0  0  0
 14 38  1  0  0  0  0
 14 39  1  0  0  0  0
 15 40  1  0  0  0  0
 15 41  1  0  0  0  0
 16 42  1  0  0  0  0
 16 43  1  0  0  0  0
 17 44  1  0  0  0  0
 18 45  1  0  0  0  0
 23 46  1  0  0  0  0
M  END
> <Hybrid2>
-7.774179

> <fragments>
x0678

> <Mpro-x0678_dock>
-7.774179

> <Mpro-x1093_dock>
-7.734875

> <Mpro-x0874_dock>
-6.77344

> <Mpro-x0072_dock>
-6.76417

> <Mpro-x0434_dock>
-6.533119

> <Mpro-x0107_dock>
-6.290555

> <Mpro-x0831_dock>
-6.190629

> <Mpro-x0397_dock>
-6.1287

> <Mpro-x0749_dock>
-5.747181

> <Mpro-x1077_dock>
-5.631207

> <Mpro-x0195_dock>
-5.381687

> <Mpro-x0967_dock>
-5.042019

> <Mpro-x1392_dock>
-4.797512

> <Mpro-x0387_dock>
-4.726313

> <Mpro-x0708_dock>
-4.47481

> <Mpro-x0830_dock>
-4.2268

> <Mpro-x0395_dock>
-4.184222

> <Mpro-x0305_dock>
-3.982435

> <Mpro-x1418_dock>
-3.957381

> <Mpro-x1375_dock>
-3.956579

> <Mpro-x0161_dock>
-3.883246

> <Mpro-x1385_dock>
-3.771549

> <Mpro-x1386_dock>
-3.7615

> <Mpro-x1412_dock>
-3.599057

> <Mpro-x0692_dock>
-3.587317

> <Mpro-x0946_dock>
-3.541276

> <Mpro-x0759_dock>
-3.439359

> <Mpro-x0770_dock>
-3.401111

> <Mpro-x0104_dock>
-3.394063

> <Mpro-x1478_dock>
-3.238485

> <Mpro-x1187_dock>
-3.179897

> <Mpro-x1249_dock>
-3.165937

> <Mpro-x1334_dock>
-3.12644

> <Mpro-x0774_dock>
-2.841503

> <Mpro-x0354_dock>
-2.526693

> <Mpro-x0734_dock>
-2.50227

> <Mpro-x1311_dock>
-2.459823

> <Mpro-x0771_dock>
-2.364701

> <Mpro-x1382_dock>
-2.244417

> <Mpro-x1458_dock>
-2.018108

> <Mpro-x1348_dock>
-1.762229

> <Mpro-x0540_dock>
-1.702309

> <Mpro-x0736_dock>
-1.636962

> <Mpro-x1402_dock>
-1.413705

> <Mpro-x0755_dock>
-1.401376

> <Mpro-x1425_dock>
-1.360191

> <Mpro-x1380_dock>
-1.333291

> <Mpro-x1308_dock>
-1.178591

> <Mpro-x0769_dock>
-1.143821

> <Mpro-x1374_dock>
-1.112401

> <Mpro-x0691_dock>
-0.931963

> <Mpro-x0689_dock>
-0.883609

> <Mpro-x0426_dock>
-0.705561

> <Mpro-x1493_dock>
-0.632512

> <Mpro-x0731_dock>
-0.565148

> <Mpro-x1358_dock>
-0.487499

> <Mpro-x0786_dock>
-0.253163

> <Mpro-x0820_dock>
-0.239846

> <Mpro-x0752_dock>
0.193319

> <Mpro-x0705_dock>
0.33947

> <Mpro-x1384_dock>
0.414117

> <Mpro-x1351_dock>
0.935451

> <Mpro-x0981_dock>
1.154035

> <Mpro-x0978_dock>
2.250815

> <Mpro-x0887_dock>
2.55209

> <site>
active-noncovalent

$$$$
BAR-COM-4e0-54
  -OEChem-04022003013D

 50 52  0     0  0  0  0  0  0999 V2000
    6.4841    0.7203   17.6494 C   0  0  0  0  0  0  0  0  0  0  0  0
   13.8891   -0.0560   23.3361 C   0  0  0  0  0  0  0  0  0  0  0  0
    7.6035    0.0390   18.1271 C   0  0  0  0  0  0  0  0  0  0  0  0
    5.5132    1.1779   18.5404 C   0  0  0  0  0  0  0  0  0  0  0  0
   13.1232   -1.0294   22.7191 C   0  0  0  0  0  0  0  0  0  0  0  0
    6.7813    0.2727   20.3869 C   0  0  0  0  0  0  0  0  0  0  0  0
   13.3515    0.5920   24.4300 C   0  0  0  0  0  0  0  0  0  0  0  0
    7.7521   -0.1848   19.4959 C   0  0  0  0  0  0  0  0  0  0  0  0
    5.6618    0.9540   19.9091 C   0  0  0  0  0  0  0  0  0  0  0  0
   11.8705   -1.2906   23.2369 C   0  0  0  0  0  0  0  0  0  0  0  0
    9.2004   -1.1888   21.3056 C   0  0  0  0  0  0  0  0  0  0  0  0
    4.4739    4.0897   23.8581 C   0  0  0  0  0  0  0  0  0  0  0  0
    5.5254    4.8860   21.7505 C   0  0  0  0  0  0  0  0  0  0  0  0
    5.7710    4.4460   24.5642 C   0  0  0  0  0  0  0  0  0  0  0  0
    6.7681    5.2017   22.5657 C   0  0  0  0  0  0  0  0  0  0  0  0
   10.9996   -2.3382   22.6059 C   0  0  0  0  0  0  0  0  0  0  0  0
    3.5719    3.3305   21.6548 C   0  0  0  0  0  0  0  0  0  0  0  0
    3.9958    2.5753   20.4105 C   0  0  0  0  0  0  0  0  0  0  0  0
   12.1225    0.3159   24.9153 N   0  0  0  0  0  0  0  0  0  0  0  0
   11.3699   -0.6410   24.3090 N   0  0  0  0  0  0  0  0  0  0  0  0
    8.8722   -0.8662   19.9734 N   0  0  0  0  0  0  0  0  0  0  0  0
   10.4145   -1.8803   21.3668 N   0  0  0  0  0  0  0  0  0  0  0  0
    4.7937    3.7475   22.4219 N   0  3  0  0  0  0  0  0  0  0  0  0
    8.5329   -0.9149   22.3001 O   0  0  0  0  0  0  0  0  0  0  0  0
    6.4147    5.5392   23.9079 O   0  0  0  0  0  0  0  0  0  0  0  0
    4.7079    1.4034   20.7846 O   0  0  0  0  0  0  0  0  0  0  0  0
    6.3692    0.8952   16.5837 H   0  0  0  0  0  0  0  0  0  0  0  0
   14.8799    0.1895   22.9717 H   0  0  0  0  0  0  0  0  0  0  0  0
    8.3534   -0.3135   17.4235 H   0  0  0  0  0  0  0  0  0  0  0  0
    4.6441    1.7085   18.1617 H   0  0  0  0  0  0  0  0  0  0  0  0
   13.5038   -1.5645   21.8556 H   0  0  0  0  0  0  0  0  0  0  0  0
    6.8929    0.1009   21.4551 H   0  0  0  0  0  0  0  0  0  0  0  0
   13.9010    1.3635   24.9565 H   0  0  0  0  0  0  0  0  0  0  0  0
    3.9984    3.2157   24.3132 H   0  0  0  0  0  0  0  0  0  0  0  0
    3.7781    4.9357   23.8406 H   0  0  0  0  0  0  0  0  0  0  0  0
    4.8361    5.7367   21.7188 H   0  0  0  0  0  0  0  0  0  0  0  0
    5.7830    4.5670   20.7360 H   0  0  0  0  0  0  0  0  0  0  0  0
    5.5577    4.7575   25.5917 H   0  0  0  0  0  0  0  0  0  0  0  0
    6.4547    3.5901   24.6155 H   0  0  0  0  0  0  0  0  0  0  0  0
    7.4761    4.3644   22.5686 H   0  0  0  0  0  0  0  0  0  0  0  0
    7.2826    6.0655   22.1331 H   0  0  0  0  0  0  0  0  0  0  0  0
   11.5781   -3.2434   22.3916 H   0  0  0  0  0  0  0  0  0  0  0  0
   10.1824   -2.6255   23.2759 H   0  0  0  0  0  0  0  0  0  0  0  0
    2.9798    2.7090   22.3324 H   0  0  0  0  0  0  0  0  0  0  0  0
    3.0294    4.2466   21.4068 H   0  0  0  0  0  0  0  0  0  0  0  0
    3.1117    2.2668   19.8439 H   0  0  0  0  0  0  0  0  0  0  0  0
    4.6324    3.1873   19.7632 H   0  0  0  0  0  0  0  0  0  0  0  0
    9.5536   -1.1795   19.2741 H   0  0  0  0  0  0  0  0  0  0  0  0
   10.9078   -2.0694   20.4999 H   0  0  0  0  0  0  0  0  0  0  0  0
    5.4270    2.9359   22.4310 H   0  0  0  0  0  0  0  0  0  0  0  0
  1  3  2  0  0  0  0
  1  4  1  0  0  0  0
  2  5  2  0  0  0  0
  2  7  1  0  0  0  0
  3  8  1  0  0  0  0
  4  9  2  0  0  0  0
  5 10  1  0  0  0  0
  6  8  2  0  0  0  0
  6  9  1  0  0  0  0
  7 19  2  0  0  0  0
  8 21  1  0  0  0  0
  9 26  1  0  0  0  0
 10 16  1  0  0  0  0
 10 20  2  0  0  0  0
 11 21  1  0  0  0  0
 11 22  1  0  0  0  0
 11 24  2  0  0  0  0
 12 14  1  0  0  0  0
 12 23  1  0  0  0  0
 13 15  1  0  0  0  0
 13 23  1  0  0  0  0
 14 25  1  0  0  0  0
 15 25  1  0  0  0  0
 16 22  1  0  0  0  0
 17 18  1  0  0  0  0
 17 23  1  0  0  0  0
 18 26  1  0  0  0  0
 19 20  1  0  0  0  0
  1 27  1  0  0  0  0
  2 28  1  0  0  0  0
  3 29  1  0  0  0  0
  4 30  1  0  0  0  0
  5 31  1  0  0  0  0
  6 32  1  0  0  0  0
  7 33  1  0  0  0  0
 12 34  1  0  0  0  0
 12 35  1  0  0  0  0
 13 36  1  0  0  0  0
 13 37  1  0  0  0  0
 14 38  1  0  0  0  0
 14 39  1  0  0  0  0
 15 40  1  0  0  0  0
 15 41  1  0  0  0  0
 16 42  1  0  0  0  0
 16 43  1  0  0  0  0
 17 44  1  0  0  0  0
 17 45  1  0  0  0  0
 18 46  1  0  0  0  0
 18 47  1  0  0  0  0
 21 48  1  0  0  0  0
 22 49  1  0  0  0  0
 23 50  1  0  0  0  0
M  CHG  1  23   1
M  END
> <Hybrid2>
-7.753376

> <fragments>
x0678

> <Mpro-x0678_dock>
-7.753376

> <Mpro-x1093_dock>
-7.330347

> <Mpro-x0195_dock>
-6.94816

> <Mpro-x0104_dock>
-6.278428

> <Mpro-x0107_dock>
-6.063675

> <Mpro-x0946_dock>
-5.48709

> <Mpro-x0831_dock>
-5.303371

> <Mpro-x1077_dock>
-5.114277

> <Mpro-x0967_dock>
-5.091152

> <Mpro-x0161_dock>
-5.030622

> <Mpro-x0874_dock>
-4.632695

> <Mpro-x0395_dock>
-4.558118

> <Mpro-x0830_dock>
-4.386173

> <Mpro-x0072_dock>
-4.33198

> <Mpro-x0434_dock>
-3.902992

> <Mpro-x0387_dock>
-3.317947

> <Mpro-x0397_dock>
-2.349638

> <Mpro-x0426_dock>
-2.025989

> <Mpro-x1187_dock>
-1.900677

> <Mpro-x0749_dock>
-1.750286

> <Mpro-x0708_dock>
-1.668338

> <Mpro-x0305_dock>
-1.61532

> <Mpro-x1311_dock>
-1.172734

> <Mpro-x1392_dock>
-1.102919

> <Mpro-x1249_dock>
-0.753571

> <Mpro-x1380_dock>
-0.539211

> <Mpro-x0887_dock>
-0.528926

> <Mpro-x1493_dock>
-0.466365

> <Mpro-x0752_dock>
-0.332233

> <Mpro-x1384_dock>
-0.315123

> <Mpro-x1458_dock>
-0.148535

> <Mpro-x0692_dock>
-0.004431

> <Mpro-x0354_dock>
0.118577

> <Mpro-x0540_dock>
0.121066

> <Mpro-x1374_dock>
0.308392

> <Mpro-x0691_dock>
0.318188

> <Mpro-x1478_dock>
0.450865

> <Mpro-x0820_dock>
0.48602

> <Mpro-x1348_dock>
0.545064

> <Mpro-x1308_dock>
0.660143

> <Mpro-x1418_dock>
0.780414

> <Mpro-x0734_dock>
0.908256

> <Mpro-x1425_dock>
0.930092

> <Mpro-x0769_dock>
1.000066

> <Mpro-x1334_dock>
1.018445

> <Mpro-x1358_dock>
1.08827

> <Mpro-x0978_dock>
1.250845

> <Mpro-x0731_dock>
1.393528

> <Mpro-x0689_dock>
1.42935

> <Mpro-x0771_dock>
1.472165

> <Mpro-x0770_dock>
1.47325

> <Mpro-x0755_dock>
1.518694

> <Mpro-x1386_dock>
1.54274

> <Mpro-x1385_dock>
1.590051

> <Mpro-x1375_dock>
1.818971

> <Mpro-x0759_dock>
1.981116

> <Mpro-x0736_dock>
2.342601

> <Mpro-x1402_dock>
2.439476

> <Mpro-x1351_dock>
2.804079

> <Mpro-x0786_dock>
3.0156

> <Mpro-x0705_dock>
3.175587

> <Mpro-x0981_dock>
3.209675

> <Mpro-x1412_dock>
4.138042

> <Mpro-x1382_dock>
5.448672

> <Mpro-x0774_dock>
6.099532

> <site>
active-noncovalent

$$$$
GIA-UNK-eaa-3
  -OEChem-04022003013D

 45 47  0     0  0  0  0  0  0999 V2000
   13.3785   -0.6750   23.8953 C   0  0  0  0  0  0  0  0  0  0  0  0
   12.3101    0.0640   24.4029 C   0  0  0  0  0  0  0  0  0  0  0  0
   13.1367   -1.7868   23.0883 C   0  0  0  0  0  0  0  0  0  0  0  0
   10.9996   -0.3088   24.1038 C   0  0  0  0  0  0  0  0  0  0  0  0
   11.8263   -2.1596   22.7891 C   0  0  0  0  0  0  0  0  0  0  0  0
   10.7577   -1.4206   23.2969 C   0  0  0  0  0  0  0  0  0  0  0  0
    6.8112   -4.9576   26.3708 C   0  0  0  0  0  0  0  0  0  0  0  0
    7.9145   -2.7832   25.9864 C   0  0  0  0  0  0  0  0  0  0  0  0
    6.5878   -3.8751   24.1130 C   0  0  0  0  0  0  0  0  0  0  0  0
    9.1960   -3.2419   25.2956 C   0  0  0  0  0  0  0  0  0  0  0  0
    7.9073   -4.2901   23.4667 C   0  0  0  0  0  0  0  0  0  0  0  0
    5.6239   -6.8061   27.5084 C   0  0  0  0  0  0  0  0  0  0  0  0
    4.2716   -5.0641   26.4177 C   0  0  0  0  0  0  0  0  0  0  0  0
    4.6650   -6.7426   28.6887 C   0  0  0  0  0  0  0  0  0  0  0  0
    3.3652   -5.0771   27.6423 C   0  0  0  0  0  0  0  0  0  0  0  0
    6.7053   -3.6414   25.6166 C   0  0  0  0  0  0  0  0  0  0  0  0
    5.6121   -5.5414   26.7733 N   0  0  0  0  0  0  0  0  0  0  0  0
    8.9910   -3.3372   23.8256 N   0  0  0  0  0  0  0  0  0  0  0  0
    7.9246   -5.4400   26.5930 O   0  0  0  0  0  0  0  0  0  0  0  0
    8.2145   -0.9073   23.5015 O   0  0  0  0  0  0  0  0  0  0  0  0
    9.0357   -2.2181   21.5127 O   0  0  0  0  0  0  0  0  0  0  0  0
    3.3570   -6.3748   28.2430 O   0  0  0  0  0  0  0  0  0  0  0  0
    9.0993   -1.8939   22.9213 S   0  0  0  0  0  0  0  0  0  0  0  0
   14.3992   -0.3857   24.1283 H   0  0  0  0  0  0  0  0  0  0  0  0
   12.4979    0.9290   25.0321 H   0  0  0  0  0  0  0  0  0  0  0  0
   13.9688   -2.3623   22.6938 H   0  0  0  0  0  0  0  0  0  0  0  0
   10.1745    0.2734   24.5053 H   0  0  0  0  0  0  0  0  0  0  0  0
   11.6494   -3.0282   22.1606 H   0  0  0  0  0  0  0  0  0  0  0  0
    8.0674   -2.7801   27.0692 H   0  0  0  0  0  0  0  0  0  0  0  0
    7.7075   -1.7508   25.6853 H   0  0  0  0  0  0  0  0  0  0  0  0
    6.2451   -2.9435   23.6419 H   0  0  0  0  0  0  0  0  0  0  0  0
    5.8259   -4.6355   23.8981 H   0  0  0  0  0  0  0  0  0  0  0  0
    9.9902   -2.5118   25.5064 H   0  0  0  0  0  0  0  0  0  0  0  0
    9.5274   -4.2143   25.6870 H   0  0  0  0  0  0  0  0  0  0  0  0
    8.1910   -5.3091   23.7736 H   0  0  0  0  0  0  0  0  0  0  0  0
    7.7758   -4.2999   22.3737 H   0  0  0  0  0  0  0  0  0  0  0  0
    6.6329   -7.0567   27.8488 H   0  0  0  0  0  0  0  0  0  0  0  0
    5.3021   -7.5793   26.8008 H   0  0  0  0  0  0  0  0  0  0  0  0
    3.8897   -5.7574   25.6591 H   0  0  0  0  0  0  0  0  0  0  0  0
    4.2911   -4.0644   25.9806 H   0  0  0  0  0  0  0  0  0  0  0  0
    4.5897   -7.7271   29.1611 H   0  0  0  0  0  0  0  0  0  0  0  0
    5.0092   -6.0330   29.4506 H   0  0  0  0  0  0  0  0  0  0  0  0
    3.6773   -4.3299   28.3816 H   0  0  0  0  0  0  0  0  0  0  0  0
    2.3376   -4.8429   27.3467 H   0  0  0  0  0  0  0  0  0  0  0  0
    5.8047   -3.1627   25.9905 H   0  0  0  0  0  0  0  0  0  0  0  0
  1  2  1  0  0  0  0
  1  3  2  0  0  0  0
  2  4  2  0  0  0  0
  3  5  1  0  0  0  0
  4  6  1  0  0  0  0
  5  6  2  0  0  0  0
  6 23  1  0  0  0  0
  7 16  1  0  0  0  0
  7 17  1  0  0  0  0
  7 19  2  0  0  0  0
  8 10  1  0  0  0  0
  8 16  1  0  0  0  0
  9 11  1  0  0  0  0
  9 16  1  0  0  0  0
 10 18  1  0  0  0  0
 11 18  1  0  0  0  0
 12 14  1  0  0  0  0
 12 17  1  0  0  0  0
 13 15  1  0  0  0  0
 13 17  1  0  0  0  0
 14 22  1  0  0  0  0
 15 22  1  0  0  0  0
 18 23  1  0  0  0  0
 20 23  2  0  0  0  0
 21 23  2  0  0  0  0
  1 24  1  0  0  0  0
  2 25  1  0  0  0  0
  3 26  1  0  0  0  0
  4 27  1  0  0  0  0
  5 28  1  0  0  0  0
  8 29  1  0  0  0  0
  8 30  1  0  0  0  0
  9 31  1  0  0  0  0
  9 32  1  0  0  0  0
 10 33  1  0  0  0  0
 10 34  1  0  0  0  0
 11 35  1  0  0  0  0
 11 36  1  0  0  0  0
 12 37  1  0  0  0  0
 12 38  1  0  0  0  0
 13 39  1  0  0  0  0
 13 40  1  0  0  0  0
 14 41  1  0  0  0  0
 14 42  1  0  0  0  0
 15 43  1  0  0  0  0
 15 44  1  0  0  0  0
 16 45  1  0  0  0  0
M  END
> <Hybrid2>
-7.749019

> <fragments>
x0072

> <Mpro-x0072_dock>
-7.749019

> <Mpro-x1093_dock>
-7.292527

> <Mpro-x0161_dock>
-7.188406

> <Mpro-x0967_dock>
-6.589279

> <Mpro-x0195_dock>
-6.422795

> <Mpro-x0874_dock>
-6.077409

> <Mpro-x0434_dock>
-6.031229

> <Mpro-x1334_dock>
-5.901171

> <Mpro-x1077_dock>
-5.796535

> <Mpro-x0946_dock>
-5.601248

> <Mpro-x0397_dock>
-5.542387

> <Mpro-x0104_dock>
-5.458894

> <Mpro-x0831_dock>
-5.155482

> <Mpro-x0830_dock>
-5.130439

> <Mpro-x0749_dock>
-5.077405

> <Mpro-x0678_dock>
-4.932178

> <Mpro-x1311_dock>
-4.878437

> <Mpro-x0395_dock>
-4.766565

> <Mpro-x1385_dock>
-4.675177

> <Mpro-x1392_dock>
-4.490214

> <Mpro-x0387_dock>
-4.430578

> <Mpro-x0107_dock>
-4.29021

> <Mpro-x0354_dock>
-3.655221

> <Mpro-x1348_dock>
-3.568458

> <Mpro-x0692_dock>
-3.531194

> <Mpro-x1249_dock>
-3.311142

> <Mpro-x0786_dock>
-3.244952

> <Mpro-x1386_dock>
-3.214581

> <Mpro-x1493_dock>
-3.130449

> <Mpro-x1412_dock>
-2.989183

> <Mpro-x1382_dock>
-2.976836

> <Mpro-x1384_dock>
-2.915493

> <Mpro-x0771_dock>
-2.81162

> <Mpro-x1374_dock>
-2.785213

> <Mpro-x0736_dock>
-2.727105

> <Mpro-x1458_dock>
-2.720093

> <Mpro-x0769_dock>
-2.660215

> <Mpro-x0689_dock>
-2.542878

> <Mpro-x1418_dock>
-2.486593

> <Mpro-x1308_dock>
-2.484661

> <Mpro-x0691_dock>
-2.447598

> <Mpro-x0774_dock>
-2.384172

> <Mpro-x1187_dock>
-2.315673

> <Mpro-x1402_dock>
-2.245663

> <Mpro-x0752_dock>
-2.1502

> <Mpro-x0734_dock>
-2.103339

> <Mpro-x1375_dock>
-2.078469

> <Mpro-x1425_dock>
-2.05364

> <Mpro-x0820_dock>
-1.979013

> <Mpro-x0708_dock>
-1.957572

> <Mpro-x1478_dock>
-1.867576

> <Mpro-x0305_dock>
-1.821631

> <Mpro-x0731_dock>
-1.628103

> <Mpro-x1358_dock>
-1.484208

> <Mpro-x0759_dock>
-1.394905

> <Mpro-x0770_dock>
-1.178443

> <Mpro-x0978_dock>
-1.056103

> <Mpro-x0755_dock>
-0.868304

> <Mpro-x0705_dock>
-0.589799

> <Mpro-x1380_dock>
-0.078968

> <Mpro-x0981_dock>
-0.024847

> <Mpro-x1351_dock>
0.321016

> <Mpro-x0887_dock>
0.929994

> <Mpro-x0426_dock>
1.143087

> <Mpro-x0540_dock>
1.161635

> <site>
active-noncovalent

$$$$
WAR-XCH-b68-23
  -OEChem-04022003013D

 44 45  0     0  0  0  0  0  0999 V2000
   10.1202   -2.9794   23.5236 C   0  0  0  0  0  0  0  0  0  0  0  0
    9.2571   -1.2175   24.9334 C   0  0  0  0  0  0  0  0  0  0  0  0
    9.6091   -3.9337   24.4032 C   0  0  0  0  0  0  0  0  0  0  0  0
    8.7459   -2.1717   25.8130 C   0  0  0  0  0  0  0  0  0  0  0  0
    9.9443   -1.6213   23.7887 C   0  0  0  0  0  0  0  0  0  0  0  0
    8.9219   -3.5298   25.5479 C   0  0  0  0  0  0  0  0  0  0  0  0
   12.5032    0.5604   23.4189 C   0  0  0  0  0  0  0  0  0  0  0  0
   10.2557    1.7324   23.3432 C   0  0  0  0  0  0  0  0  0  0  0  0
   11.8935   -0.6044   22.6306 C   0  0  0  0  0  0  0  0  0  0  0  0
    9.7074    0.5415   22.5548 C   0  0  0  0  0  0  0  0  0  0  0  0
   11.7642    1.8671   23.1189 C   0  0  0  0  0  0  0  0  0  0  0  0
   13.1128    4.6058   22.4271 C   0  0  0  0  0  0  0  0  0  0  0  0
   12.1567    5.2815   24.6640 C   0  0  0  0  0  0  0  0  0  0  0  0
   12.0704    4.3140   23.4945 C   0  0  0  0  0  0  0  0  0  0  0  0
   10.4539   -0.6692   22.9118 N   0  0  0  0  0  0  0  0  0  0  0  0
    7.5637   -3.7223   27.8333 N   0  0  0  0  0  0  0  0  0  0  0  0
   12.2921    2.9365   24.0053 N   0  3  0  0  0  0  0  0  0  0  0  0
    7.2344   -5.4669   25.9643 O   0  0  0  0  0  0  0  0  0  0  0  0
    9.3972   -5.4377   27.2563 O   0  0  0  0  0  0  0  0  0  0  0  0
    8.2823   -4.7235   26.6498 S   0  0  0  0  0  0  0  0  0  0  0  0
   10.6544   -3.3053   22.6347 H   0  0  0  0  0  0  0  0  0  0  0  0
    9.1135   -0.1617   25.1490 H   0  0  0  0  0  0  0  0  0  0  0  0
    9.7522   -4.9889   24.1867 H   0  0  0  0  0  0  0  0  0  0  0  0
    8.2124   -1.8456   26.7019 H   0  0  0  0  0  0  0  0  0  0  0  0
   12.4775    0.3410   24.4817 H   0  0  0  0  0  0  0  0  0  0  0  0
   13.5458    0.6725   23.1305 H   0  0  0  0  0  0  0  0  0  0  0  0
    9.7670    2.6390   22.9996 H   0  0  0  0  0  0  0  0  0  0  0  0
   10.0342    1.6137   24.3973 H   0  0  0  0  0  0  0  0  0  0  0  0
   12.0645   -0.4309   21.5680 H   0  0  0  0  0  0  0  0  0  0  0  0
   12.3741   -1.5431   22.9045 H   0  0  0  0  0  0  0  0  0  0  0  0
    8.6432    0.4033   22.7614 H   0  0  0  0  0  0  0  0  0  0  0  0
    9.8162    0.7526   21.4875 H   0  0  0  0  0  0  0  0  0  0  0  0
   11.9725    2.2008   22.0970 H   0  0  0  0  0  0  0  0  0  0  0  0
   14.1191    4.5958   22.8588 H   0  0  0  0  0  0  0  0  0  0  0  0
   13.0839    3.8626   21.6224 H   0  0  0  0  0  0  0  0  0  0  0  0
   12.9508    5.5926   21.9800 H   0  0  0  0  0  0  0  0  0  0  0  0
   13.1622    5.2722   25.0978 H   0  0  0  0  0  0  0  0  0  0  0  0
   11.4457    5.0208   25.4555 H   0  0  0  0  0  0  0  0  0  0  0  0
   11.9417    6.3061   24.3419 H   0  0  0  0  0  0  0  0  0  0  0  0
   11.0649    4.3242   23.0616 H   0  0  0  0  0  0  0  0  0  0  0  0
    6.5379   -3.6823   27.8724 H   0  0  0  0  0  0  0  0  0  0  0  0
    8.0169   -3.6618   28.7532 H   0  0  0  0  0  0  0  0  0  0  0  0
   11.8591    2.8453   24.9335 H   0  0  0  0  0  0  0  0  0  0  0  0
   13.2992    2.7855   24.1478 H   0  0  0  0  0  0  0  0  0  0  0  0
  1  3  2  0  0  0  0
  1  5  1  0  0  0  0
  2  4  1  0  0  0  0
  2  5  2  0  0  0  0
  3  6  1  0  0  0  0
  4  6  2  0  0  0  0
  5 15  1  0  0  0  0
  6 20  1  0  0  0  0
  7  9  1  0  0  0  0
  7 11  1  0  0  0  0
  8 10  1  0  0  0  0
  8 11  1  0  0  0  0
  9 15  1  0  0  0  0
 10 15  1  0  0  0  0
 11 17  1  0  0  0  0
 12 14  1  0  0  0  0
 13 14  1  0  0  0  0
 14 17  1  0  0  0  0
 16 20  1  0  0  0  0
 18 20  2  0  0  0  0
 19 20  2  0  0  0  0
  1 21  1  0  0  0  0
  2 22  1  0  0  0  0
  3 23  1  0  0  0  0
  4 24  1  0  0  0  0
  7 25  1  0  0  0  0
  7 26  1  0  0  0  0
  8 27  1  0  0  0  0
  8 28  1  0  0  0  0
  9 29  1  0  0  0  0
  9 30  1  0  0  0  0
 10 31  1  0  0  0  0
 10 32  1  0  0  0  0
 11 33  1  0  0  0  0
 12 34  1  0  0  0  0
 12 35  1  0  0  0  0
 12 36  1  0  0  0  0
 13 37  1  0  0  0  0
 13 38  1  0  0  0  0
 13 39  1  0  0  0  0
 14 40  1  0  0  0  0
 16 41  1  0  0  0  0
 16 42  1  0  0  0  0
 17 43  1  0  0  0  0
 17 44  1  0  0  0  0
M  CHG  1  17   1
M  END
> <Hybrid2>
-7.678153

> <fragments>
x0395

> <Mpro-x0395_dock>
-7.678153

> <Mpro-x0195_dock>
-7.623861

> <Mpro-x0874_dock>
-7.428753

> <Mpro-x0161_dock>
-7.129387

> <Mpro-x0749_dock>
-6.631047

> <Mpro-x1077_dock>
-6.581486

> <Mpro-x0072_dock>
-6.410915

> <Mpro-x0104_dock>
-6.097583

> <Mpro-x0946_dock>
-6.03646

> <Mpro-x1334_dock>
-5.978013

> <Mpro-x0967_dock>
-5.336039

> <Mpro-x0397_dock>
-5.138862

> <Mpro-x0830_dock>
-5.112517

> <Mpro-x1385_dock>
-5.071846

> <Mpro-x0387_dock>
-5.02529

> <Mpro-x0692_dock>
-4.88899

> <Mpro-x0678_dock>
-4.768162

> <Mpro-x1093_dock>
-4.727146

> <Mpro-x1392_dock>
-4.29144

> <Mpro-x0107_dock>
-4.254326

> <Mpro-x0708_dock>
-4.214872

> <Mpro-x1386_dock>
-4.001401

> <Mpro-x1311_dock>
-3.955726

> <Mpro-x0305_dock>
-3.922389

> <Mpro-x1187_dock>
-3.862284

> <Mpro-x0831_dock>
-3.682223

> <Mpro-x1412_dock>
-3.320459

> <Mpro-x1348_dock>
-3.136102

> <Mpro-x1249_dock>
-2.888365

> <Mpro-x1375_dock>
-2.601972

> <Mpro-x1351_dock>
-2.599599

> <Mpro-x1358_dock>
-2.300922

> <Mpro-x0759_dock>
-2.217289

> <Mpro-x1374_dock>
-2.173646

> <Mpro-x0774_dock>
-2.165388

> <Mpro-x1418_dock>
-2.122027

> <Mpro-x0434_dock>
-2.071798

> <Mpro-x1380_dock>
-2.010101

> <Mpro-x0770_dock>
-1.986135

> <Mpro-x0736_dock>
-1.763701

> <Mpro-x0426_dock>
-1.723207

> <Mpro-x0354_dock>
-1.692736

> <Mpro-x1458_dock>
-1.519628

> <Mpro-x0540_dock>
-1.4363

> <Mpro-x0734_dock>
-1.161322

> <Mpro-x0820_dock>
-1.028028

> <Mpro-x1493_dock>
-0.931861

> <Mpro-x0978_dock>
-0.568554

> <Mpro-x0887_dock>
-0.430179

> <Mpro-x1425_dock>
-0.16579

> <Mpro-x1478_dock>
-0.101741

> <Mpro-x0752_dock>
-0.093924

> <Mpro-x0705_dock>
-0.076634

> <Mpro-x1384_dock>
0.163399

> <Mpro-x0786_dock>
0.225613

> <Mpro-x1308_dock>
0.277622

> <Mpro-x0771_dock>
0.30926

> <Mpro-x0691_dock>
0.362519

> <Mpro-x1382_dock>
0.468433

> <Mpro-x0769_dock>
1.027818

> <Mpro-x0981_dock>
1.179433

> <Mpro-x0755_dock>
1.371233

> <Mpro-x0731_dock>
1.372856

> <Mpro-x1402_dock>
1.482613

> <Mpro-x0689_dock>
1.516358

> <site>
active-noncovalent

$$$$
MAK-UNK-915-6
  -OEChem-04022003013D

 45 47  0     0  0  0  0  0  0999 V2000
   12.6085    1.5588   23.2903 C   0  0  0  0  0  0  0  0  0  0  0  0
    9.9228   -5.4673   24.5131 C   0  0  0  0  0  0  0  0  0  0  0  0
   11.8726    0.4816   23.7839 C   0  0  0  0  0  0  0  0  0  0  0  0
    8.7135   -5.5657   25.2012 C   0  0  0  0  0  0  0  0  0  0  0  0
   11.9677    2.7591   22.9834 C   0  0  0  0  0  0  0  0  0  0  0  0
   10.4390   -4.2135   24.1857 C   0  0  0  0  0  0  0  0  0  0  0  0
    9.8548    1.8050   23.6636 C   0  0  0  0  0  0  0  0  0  0  0  0
    8.5364   -3.1564   25.2344 C   0  0  0  0  0  0  0  0  0  0  0  0
   10.4957    0.6047   23.9705 C   0  0  0  0  0  0  0  0  0  0  0  0
    8.0203   -4.4103   25.5618 C   0  0  0  0  0  0  0  0  0  0  0  0
   10.5908    2.8822   23.1700 C   0  0  0  0  0  0  0  0  0  0  0  0
    9.7458   -3.0580   24.5463 C   0  0  0  0  0  0  0  0  0  0  0  0
    5.9720   -3.4442   26.6963 C   0  0  0  0  0  0  0  0  0  0  0  0
    9.7184   -0.5328   24.4915 C   0  0  0  0  0  0  0  0  0  0  0  0
    4.8271   -4.0411   27.4829 C   0  0  0  0  0  0  0  0  0  0  0  0
    4.7952   -5.4826   27.0159 C   0  0  0  0  0  0  0  0  0  0  0  0
    6.2469   -5.7842   26.7077 C   0  0  0  0  0  0  0  0  0  0  0  0
    9.1478    5.0839   25.2316 C   0  0  0  0  0  0  0  0  0  0  0  0
    6.7840   -4.5117   26.2659 N   0  0  0  0  0  0  0  0  0  0  0  0
   10.2626   -1.8042   24.2186 N   0  0  0  0  0  0  0  0  0  0  0  0
    9.9361    4.1115   22.8555 N   0  0  0  0  0  0  0  0  0  0  0  0
    6.1192   -2.2381   26.5620 O   0  0  0  0  0  0  0  0  0  0  0  0
    8.6582   -0.3546   25.0873 O   0  0  0  0  0  0  0  0  0  0  0  0
   11.5850    5.3867   24.3738 O   0  0  0  0  0  0  0  0  0  0  0  0
    9.7438    6.6914   23.2546 O   0  0  0  0  0  0  0  0  0  0  0  0
   10.2264    5.4716   23.8712 S   0  0  0  0  0  0  0  0  0  0  0  0
   13.6808    1.4632   23.1456 H   0  0  0  0  0  0  0  0  0  0  0  0
   10.4631   -6.3669   24.2332 H   0  0  0  0  0  0  0  0  0  0  0  0
   12.3824   -0.4493   24.0193 H   0  0  0  0  0  0  0  0  0  0  0  0
    8.3208   -6.5484   25.4502 H   0  0  0  0  0  0  0  0  0  0  0  0
   12.5506    3.5923   22.5989 H   0  0  0  0  0  0  0  0  0  0  0  0
   11.3819   -4.1496   23.6485 H   0  0  0  0  0  0  0  0  0  0  0  0
    8.7811    1.9018   23.8093 H   0  0  0  0  0  0  0  0  0  0  0  0
    7.9954   -2.2551   25.5155 H   0  0  0  0  0  0  0  0  0  0  0  0
    5.0583   -3.9671   28.5502 H   0  0  0  0  0  0  0  0  0  0  0  0
    3.8908   -3.5212   27.2659 H   0  0  0  0  0  0  0  0  0  0  0  0
    4.3750   -6.1557   27.7686 H   0  0  0  0  0  0  0  0  0  0  0  0
    4.1914   -5.5690   26.1043 H   0  0  0  0  0  0  0  0  0  0  0  0
    6.7922   -6.0942   27.6060 H   0  0  0  0  0  0  0  0  0  0  0  0
    6.3557   -6.5438   25.9276 H   0  0  0  0  0  0  0  0  0  0  0  0
    9.2290    5.8801   25.9732 H   0  0  0  0  0  0  0  0  0  0  0  0
    8.1267    5.0166   24.8530 H   0  0  0  0  0  0  0  0  0  0  0  0
    9.4613    4.1301   25.6585 H   0  0  0  0  0  0  0  0  0  0  0  0
   11.1557   -1.8080   23.7127 H   0  0  0  0  0  0  0  0  0  0  0  0
    8.9543    4.0034   22.5515 H   0  0  0  0  0  0  0  0  0  0  0  0
  1  3  1  0  0  0  0
  1  5  2  0  0  0  0
  2  4  1  0  0  0  0
  2  6  2  0  0  0  0
  3  9  2  0  0  0  0
  4 10  2  0  0  0  0
  5 11  1  0  0  0  0
  6 12  1  0  0  0  0
  7  9  1  0  0  0  0
  7 11  2  0  0  0  0
  8 10  1  0  0  0  0
  8 12  2  0  0  0  0
  9 14  1  0  0  0  0
 10 19  1  0  0  0  0
 11 21  1  0  0  0  0
 12 20  1  0  0  0  0
 13 15  1  0  0  0  0
 13 19  1  0  0  0  0
 13 22  2  0  0  0  0
 14 20  1  0  0  0  0
 14 23  2  0  0  0  0
 15 16  1  0  0  0  0
 16 17  1  0  0  0  0
 17 19  1  0  0  0  0
 18 26  1  0  0  0  0
 21 26  1  0  0  0  0
 24 26  2  0  0  0  0
 25 26  2  0  0  0  0
  1 27  1  0  0  0  0
  2 28  1  0  0  0  0
  3 29  1  0  0  0  0
  4 30  1  0  0  0  0
  5 31  1  0  0  0  0
  6 32  1  0  0  0  0
  7 33  1  0  0  0  0
  8 34  1  0  0  0  0
 15 35  1  0  0  0  0
 15 36  1  0  0  0  0
 16 37  1  0  0  0  0
 16 38  1  0  0  0  0
 17 39  1  0  0  0  0
 17 40  1  0  0  0  0
 18 41  1  0  0  0  0
 18 42  1  0  0  0  0
 18 43  1  0  0  0  0
 20 44  1  0  0  0  0
 21 45  1  0  0  0  0
M  END
> <Hybrid2>
-7.669181

> <fragments>
x1077

> <Mpro-x1077_dock>
-7.669181

> <Mpro-x0161_dock>
-7.557283

> <Mpro-x0874_dock>
-7.437485

> <Mpro-x0104_dock>
-7.084365

> <Mpro-x0946_dock>
-5.837067

> <Mpro-x0195_dock>
-5.829289

> <Mpro-x1093_dock>
-5.015421

> <Mpro-x0072_dock>
-4.462825

> <Mpro-x1392_dock>
-4.316429

> <Mpro-x0678_dock>
-4.303325

> <Mpro-x1348_dock>
-3.977446

> <Mpro-x0967_dock>
-3.613831

> <Mpro-x0397_dock>
-3.603906

> <Mpro-x1311_dock>
-3.596907

> <Mpro-x1334_dock>
-3.596724

> <Mpro-x1385_dock>
-3.510407

> <Mpro-x0749_dock>
-3.399271

> <Mpro-x0305_dock>
-3.390611

> <Mpro-x0107_dock>
-3.331588

> <Mpro-x1187_dock>
-3.138309

> <Mpro-x0395_dock>
-2.934375

> <Mpro-x0708_dock>
-2.408069

> <Mpro-x0692_dock>
-2.118963

> <Mpro-x0434_dock>
-2.017555

> <Mpro-x0830_dock>
-1.902252

> <Mpro-x0387_dock>
-1.792986

> <Mpro-x0831_dock>
-1.757942

> <Mpro-x1358_dock>
-1.653659

> <Mpro-x1249_dock>
-1.437305

> <Mpro-x1375_dock>
-1.324213

> <Mpro-x1374_dock>
-1.311488

> <Mpro-x1380_dock>
-1.104203

> <Mpro-x1412_dock>
-0.875489

> <Mpro-x0354_dock>
-0.726625

> <Mpro-x1384_dock>
-0.39832

> <Mpro-x0771_dock>
-0.153884

> <Mpro-x0736_dock>
-0.102264

> <Mpro-x1478_dock>
0.09046

> <Mpro-x0786_dock>
0.117619

> <Mpro-x1493_dock>
0.221484

> <Mpro-x0978_dock>
0.228925

> <Mpro-x1458_dock>
0.508581

> <Mpro-x0734_dock>
0.627932

> <Mpro-x1425_dock>
0.653893

> <Mpro-x1418_dock>
0.812912

> <Mpro-x0540_dock>
1.000047

> <Mpro-x0426_dock>
1.373305

> <Mpro-x1308_dock>
1.516713

> <Mpro-x1351_dock>
1.528028

> <Mpro-x0887_dock>
1.629262

> <Mpro-x0774_dock>
1.672592

> <Mpro-x0759_dock>
1.855948

> <Mpro-x0731_dock>
1.979131

> <Mpro-x0769_dock>
2.144828

> <Mpro-x0705_dock>
2.195073

> <Mpro-x1386_dock>
2.215928

> <Mpro-x0755_dock>
2.266814

> <Mpro-x0770_dock>
2.290177

> <Mpro-x0752_dock>
2.810387

> <Mpro-x0689_dock>
2.869025

> <Mpro-x0981_dock>
2.957791

> <Mpro-x0691_dock>
3.059455

> <Mpro-x0820_dock>
3.431166

> <Mpro-x1402_dock>
4.072592

> <Mpro-x1382_dock>
5.451528

> <site>
active-noncovalent

$$$$
PET-SGC-abc-1
  -OEChem-04022003013D

 43 44  0     1  0  0  0  0  0999 V2000
   11.7461   -1.6165   24.1522 C   0  0  0  0  0  0  0  0  0  0  0  0
   10.5725   -1.0287   24.6098 C   0  0  0  0  0  0  0  0  0  0  0  0
   11.2291    1.0470   23.5636 C   0  0  0  0  0  0  0  0  0  0  0  0
   12.6658   -0.8775   23.3877 C   0  0  0  0  0  0  0  0  0  0  0  0
   12.4321    0.4873   23.0898 C   0  0  0  0  0  0  0  0  0  0  0  0
   10.3127    0.3021   24.3126 C   0  0  0  0  0  0  0  0  0  0  0  0
   13.9303   -1.5648   22.9323 C   0  0  0  0  0  0  0  0  0  0  0  0
   14.5616   -0.8325   21.7571 C   0  0  0  0  0  0  0  0  0  0  0  0
   14.6721    0.6509   22.0759 C   0  0  0  0  0  0  0  0  0  0  0  0
    9.9706    6.8753   23.3021 C   0  0  0  0  0  0  0  0  0  0  0  0
   13.6732    3.5064   23.2553 C   0  0  0  0  0  0  0  0  0  0  0  0
   13.1667    2.6459   22.0996 C   0  0  0  0  0  0  0  0  0  0  0  0
   13.5211    5.0074   23.0189 C   0  0  0  0  0  0  0  0  0  0  0  0
   13.3522    1.2220   22.3399 N   0  0  3  0  0  0  0  0  0  0  0  0
    9.3295    1.6511   26.3907 N   0  0  0  0  0  0  0  0  0  0  0  0
   12.1552    5.3953   22.7961 N   0  0  0  0  0  0  0  0  0  0  0  0
    8.5267    2.1685   23.9963 O   0  0  0  0  0  0  0  0  0  0  0  0
    7.8432    0.0014   25.0844 O   0  0  0  0  0  0  0  0  0  0  0  0
   11.9019    6.6428   25.0533 O   0  0  0  0  0  0  0  0  0  0  0  0
   10.4261    4.6522   24.5888 O   0  0  0  0  0  0  0  0  0  0  0  0
    8.8345    1.0463   24.8714 S   0  0  0  0  0  0  0  0  0  0  0  0
   11.1443    5.8245   24.1269 S   0  0  0  0  0  0  0  0  0  0  0  0
   11.9475   -2.6572   24.3945 H   0  0  0  0  0  0  0  0  0  0  0  0
    9.8706   -1.6162   25.1947 H   0  0  0  0  0  0  0  0  0  0  0  0
   10.9812    2.0843   23.3481 H   0  0  0  0  0  0  0  0  0  0  0  0
   14.6551   -1.6108   23.7534 H   0  0  0  0  0  0  0  0  0  0  0  0
   13.6820   -2.5936   22.6439 H   0  0  0  0  0  0  0  0  0  0  0  0
   15.5577   -1.2413   21.5420 H   0  0  0  0  0  0  0  0  0  0  0  0
   13.9537   -0.9816   20.8575 H   0  0  0  0  0  0  0  0  0  0  0  0
   15.3223    0.7723   22.9504 H   0  0  0  0  0  0  0  0  0  0  0  0
   15.1448    1.1902   21.2454 H   0  0  0  0  0  0  0  0  0  0  0  0
    9.2493    7.2311   24.0395 H   0  0  0  0  0  0  0  0  0  0  0  0
   10.5106    7.7140   22.8599 H   0  0  0  0  0  0  0  0  0  0  0  0
    9.4702    6.2916   22.5282 H   0  0  0  0  0  0  0  0  0  0  0  0
   14.7308    3.2721   23.4283 H   0  0  0  0  0  0  0  0  0  0  0  0
   13.1305    3.2398   24.1705 H   0  0  0  0  0  0  0  0  0  0  0  0
   12.1030    2.8171   21.9084 H   0  0  0  0  0  0  0  0  0  0  0  0
   13.7178    2.8881   21.1854 H   0  0  0  0  0  0  0  0  0  0  0  0
   14.0844    5.3032   22.1282 H   0  0  0  0  0  0  0  0  0  0  0  0
   13.8996    5.5873   23.8663 H   0  0  0  0  0  0  0  0  0  0  0  0
    9.4387    2.6675   26.4924 H   0  0  0  0  0  0  0  0  0  0  0  0
    8.9728    1.1855   27.2341 H   0  0  0  0  0  0  0  0  0  0  0  0
   11.6631    4.8993   22.0208 H   0  0  0  0  0  0  0  0  0  0  0  0
  1  2  2  0  0  0  0
  1  4  1  0  0  0  0
  2  6  1  0  0  0  0
  3  5  1  0  0  0  0
  3  6  2  0  0  0  0
  4  5  2  0  0  0  0
  4  7  1  0  0  0  0
  5 14  1  0  0  0  0
  6 21  1  0  0  0  0
  7  8  1  0  0  0  0
  8  9  1  0  0  0  0
  9 14  1  0  0  0  0
 10 22  1  0  0  0  0
 11 12  1  0  0  0  0
 11 13  1  0  0  0  0
 12 14  1  0  0  0  0
 13 16  1  0  0  0  0
 15 21  1  0  0  0  0
 16 22  1  0  0  0  0
 17 21  2  0  0  0  0
 18 21  2  0  0  0  0
 19 22  2  0  0  0  0
 20 22  2  0  0  0  0
  1 23  1  0  0  0  0
  2 24  1  0  0  0  0
  3 25  1  0  0  0  0
  7 26  1  0  0  0  0
  7 27  1  0  0  0  0
  8 28  1  0  0  0  0
  8 29  1  0  0  0  0
  9 30  1  0  0  0  0
  9 31  1  0  0  0  0
 10 32  1  0  0  0  0
 10 33  1  0  0  0  0
 10 34  1  0  0  0  0
 11 35  1  0  0  0  0
 11 36  1  0  0  0  0
 12 37  1  0  0  0  0
 12 38  1  0  0  0  0
 13 39  1  0  0  0  0
 13 40  1  0  0  0  0
 15 41  1  0  0  0  0
 15 42  1  0  0  0  0
 16 43  1  0  0  0  0
M  END
> <Hybrid2>
-7.647782

> <fragments>
x0195

> <Mpro-x0195_dock>
-7.647782

> <Mpro-x0104_dock>
-7.313047

> <Mpro-x0874_dock>
-6.649347

> <Mpro-x0161_dock>
-6.606551

> <Mpro-x1077_dock>
-6.112913

> <Mpro-x0946_dock>
-6.056772

> <Mpro-x0749_dock>
-5.875356

> <Mpro-x0107_dock>
-5.691053

> <Mpro-x1311_dock>
-5.579634

> <Mpro-x0072_dock>
-5.30154

> <Mpro-x0678_dock>
-5.280584

> <Mpro-x0831_dock>
-5.25579

> <Mpro-x0830_dock>
-5.215548

> <Mpro-x1187_dock>
-5.178592

> <Mpro-x1392_dock>
-4.707318

> <Mpro-x1385_dock>
-4.606621

> <Mpro-x1334_dock>
-4.511135

> <Mpro-x0397_dock>
-4.484756

> <Mpro-x0967_dock>
-4.296951

> <Mpro-x0387_dock>
-4.257695

> <Mpro-x0774_dock>
-4.236873

> <Mpro-x0692_dock>
-4.236075

> <Mpro-x1380_dock>
-4.217105

> <Mpro-x0708_dock>
-3.821781

> <Mpro-x0395_dock>
-3.804361

> <Mpro-x1093_dock>
-3.629003

> <Mpro-x0305_dock>
-3.468988

> <Mpro-x1458_dock>
-3.440144

> <Mpro-x0770_dock>
-3.273932

> <Mpro-x1418_dock>
-3.245632

> <Mpro-x1386_dock>
-3.245377

> <Mpro-x0759_dock>
-3.084635

> <Mpro-x0354_dock>
-3.074889

> <Mpro-x1249_dock>
-2.929469

> <Mpro-x0434_dock>
-2.826735

> <Mpro-x1382_dock>
-2.817639

> <Mpro-x1348_dock>
-2.781587

> <Mpro-x1478_dock>
-2.568163

> <Mpro-x0820_dock>
-2.467748

> <Mpro-x1412_dock>
-2.457087

> <Mpro-x1374_dock>
-2.316059

> <Mpro-x1375_dock>
-2.306616

> <Mpro-x0736_dock>
-2.25005

> <Mpro-x0771_dock>
-2.09203

> <Mpro-x1308_dock>
-1.995077

> <Mpro-x1493_dock>
-1.983491

> <Mpro-x0540_dock>
-1.948487

> <Mpro-x0752_dock>
-1.585003

> <Mpro-x0691_dock>
-1.472267

> <Mpro-x0734_dock>
-1.233897

> <Mpro-x1358_dock>
-1.152461

> <Mpro-x0769_dock>
-1.096713

> <Mpro-x0689_dock>
-1.038647

> <Mpro-x1402_dock>
-0.894101

> <Mpro-x0755_dock>
-0.795026

> <Mpro-x1425_dock>
-0.765704

> <Mpro-x0705_dock>
-0.634225

> <Mpro-x1384_dock>
-0.575517

> <Mpro-x0426_dock>
-0.525661

> <Mpro-x1351_dock>
-0.472134

> <Mpro-x0731_dock>
-0.277968

> <Mpro-x0786_dock>
-0.232629

> <Mpro-x0887_dock>
0.492304

> <Mpro-x0978_dock>
1.271455

> <Mpro-x0981_dock>
2.304781

> <site>
active-noncovalent

$$$$
MAR-UNI-9ca-1
  -OEChem-04022003013D

 34 35  0     0  0  0  0  0  0999 V2000
   11.9874    1.1540   24.5514 C   0  0  0  0  0  0  0  0  0  0  0  0
   12.9237    0.9425   23.5353 C   0  0  0  0  0  0  0  0  0  0  0  0
   11.8728   -1.1600   22.9253 C   0  0  0  0  0  0  0  0  0  0  0  0
    9.2332   -1.0193   25.4498 C   0  0  0  0  0  0  0  0  0  0  0  0
   10.9179   -0.9684   23.9436 C   0  0  0  0  0  0  0  0  0  0  0  0
    9.8001   -1.7166   24.4080 C   0  0  0  0  0  0  0  0  0  0  0  0
   10.9971    0.1819   24.7316 C   0  0  0  0  0  0  0  0  0  0  0  0
   12.8692   -0.1959   22.7336 C   0  0  0  0  0  0  0  0  0  0  0  0
   13.6861   -1.5589   20.9642 C   0  0  0  0  0  0  0  0  0  0  0  0
    6.2208   -0.3937   21.5204 C   0  0  0  0  0  0  0  0  0  0  0  0
    9.3244   -3.0090   23.8750 C   0  0  0  0  0  0  0  0  0  0  0  0
    8.0692   -2.8994   22.9903 C   0  0  0  0  0  0  0  0  0  0  0  0
    9.9619    0.1245   25.6373 N   0  0  0  0  0  0  0  0  0  0  0  0
    8.2924   -2.0757   21.8324 N   0  0  0  0  0  0  0  0  0  0  0  0
    6.0848   -2.8906   20.7475 O   0  0  0  0  0  0  0  0  0  0  0  0
    7.5555   -1.2926   19.4671 O   0  0  0  0  0  0  0  0  0  0  0  0
   13.7958   -0.3741   21.7500 O   0  0  0  0  0  0  0  0  0  0  0  0
    7.0082   -1.7733   20.7212 S   0  0  0  0  0  0  0  0  0  0  0  0
   12.0312    2.0405   25.1754 H   0  0  0  0  0  0  0  0  0  0  0  0
   13.7049    1.6820   23.3747 H   0  0  0  0  0  0  0  0  0  0  0  0
   11.8381   -2.0443   22.2946 H   0  0  0  0  0  0  0  0  0  0  0  0
    8.3773   -1.2332   26.0748 H   0  0  0  0  0  0  0  0  0  0  0  0
   14.4842   -1.5773   20.2180 H   0  0  0  0  0  0  0  0  0  0  0  0
   12.7110   -1.5811   20.4710 H   0  0  0  0  0  0  0  0  0  0  0  0
   13.7814   -2.4291   21.6179 H   0  0  0  0  0  0  0  0  0  0  0  0
    5.3673   -0.0859   20.9142 H   0  0  0  0  0  0  0  0  0  0  0  0
    5.8916   -0.7115   22.5108 H   0  0  0  0  0  0  0  0  0  0  0  0
    6.9458    0.4177   21.6001 H   0  0  0  0  0  0  0  0  0  0  0  0
    9.0926   -3.7018   24.7081 H   0  0  0  0  0  0  0  0  0  0  0  0
   10.1191   -3.5248   23.2989 H   0  0  0  0  0  0  0  0  0  0  0  0
    7.7606   -3.8832   22.6230 H   0  0  0  0  0  0  0  0  0  0  0  0
    7.2328   -2.4655   23.5481 H   0  0  0  0  0  0  0  0  0  0  0  0
    9.7691    0.8255   26.3392 H   0  0  0  0  0  0  0  0  0  0  0  0
    8.9479   -1.2752   21.9657 H   0  0  0  0  0  0  0  0  0  0  0  0
  1  2  2  0  0  0  0
  1  7  1  0  0  0  0
  2  8  1  0  0  0  0
  3  5  1  0  0  0  0
  3  8  2  0  0  0  0
  4  6  2  0  0  0  0
  4 13  1  0  0  0  0
  5  6  1  0  0  0  0
  5  7  2  0  0  0  0
  6 11  1  0  0  0  0
  7 13  1  0  0  0  0
  8 17  1  0  0  0  0
  9 17  1  0  0  0  0
 10 18  1  0  0  0  0
 11 12  1  0  0  0  0
 12 14  1  0  0  0  0
 14 18  1  0  0  0  0
 15 18  2  0  0  0  0
 16 18  2  0  0  0  0
  1 19  1  0  0  0  0
  2 20  1  0  0  0  0
  3 21  1  0  0  0  0
  4 22  1  0  0  0  0
  9 23  1  0  0  0  0
  9 24  1  0  0  0  0
  9 25  1  0  0  0  0
 10 26  1  0  0  0  0
 10 27  1  0  0  0  0
 10 28  1  0  0  0  0
 11 29  1  0  0  0  0
 11 30  1  0  0  0  0
 12 31  1  0  0  0  0
 12 32  1  0  0  0  0
 13 33  1  0  0  0  0
 14 34  1  0  0  0  0
M  END
> <Hybrid2>
-7.645136

> <fragments>
x0831

> <Mpro-x0831_dock>
-7.645136

> <Mpro-x0072_dock>
-7.407963

> <Mpro-x0104_dock>
-7.218356

> <Mpro-x0967_dock>
-7.17816

> <Mpro-x0946_dock>
-7.012744

> <Mpro-x1077_dock>
-6.93626

> <Mpro-x0874_dock>
-6.78691

> <Mpro-x0749_dock>
-6.69451

> <Mpro-x0395_dock>
-6.654159

> <Mpro-x1392_dock>
-6.651678

> <Mpro-x0195_dock>
-6.641188

> <Mpro-x0161_dock>
-6.544393

> <Mpro-x1093_dock>
-6.47751

> <Mpro-x0678_dock>
-6.451865

> <Mpro-x0434_dock>
-6.451635

> <Mpro-x0830_dock>
-6.269408

> <Mpro-x1478_dock>
-5.507668

> <Mpro-x1249_dock>
-5.154794

> <Mpro-x0107_dock>
-5.123549

> <Mpro-x1374_dock>
-5.069955

> <Mpro-x0692_dock>
-5.046927

> <Mpro-x1311_dock>
-4.804887

> <Mpro-x0397_dock>
-4.638407

> <Mpro-x1418_dock>
-4.638011

> <Mpro-x0708_dock>
-4.631961

> <Mpro-x1382_dock>
-4.605546

> <Mpro-x1334_dock>
-4.574831

> <Mpro-x0820_dock>
-4.535684

> <Mpro-x1386_dock>
-4.4777

> <Mpro-x1375_dock>
-4.405904

> <Mpro-x0759_dock>
-4.26299

> <Mpro-x0305_dock>
-4.258104

> <Mpro-x1385_dock>
-4.189914

> <Mpro-x0426_dock>
-4.153523

> <Mpro-x0387_dock>
-4.01734

> <Mpro-x1187_dock>
-3.898714

> <Mpro-x0736_dock>
-3.890858

> <Mpro-x0734_dock>
-3.864572

> <Mpro-x0770_dock>
-3.795891

> <Mpro-x1384_dock>
-3.787644

> <Mpro-x0774_dock>
-3.625231

> <Mpro-x1458_dock>
-3.603403

> <Mpro-x1402_dock>
-3.504175

> <Mpro-x0769_dock>
-3.456958

> <Mpro-x1380_dock>
-3.445209

> <Mpro-x1308_dock>
-3.385406

> <Mpro-x0755_dock>
-3.361594

> <Mpro-x0981_dock>
-3.324443

> <Mpro-x0771_dock>
-3.318491

> <Mpro-x0689_dock>
-3.228598

> <Mpro-x1348_dock>
-3.226897

> <Mpro-x1412_dock>
-3.137711

> <Mpro-x0354_dock>
-3.085809

> <Mpro-x1493_dock>
-3.008682

> <Mpro-x0691_dock>
-2.915306

> <Mpro-x0752_dock>
-2.838814

> <Mpro-x0887_dock>
-2.680165

> <Mpro-x1358_dock>
-2.328511

> <Mpro-x0731_dock>
-2.326505

> <Mpro-x0978_dock>
-1.304989

> <Mpro-x0786_dock>
-1.046047

> <Mpro-x0540_dock>
-1.02078

> <Mpro-x1351_dock>
-0.957599

> <Mpro-x1425_dock>
-0.911101

> <Mpro-x0705_dock>
0.122811

> <site>
active-covalent

$$$$
BAR-COM-4e0-8
  -OEChem-04022003013D

 49 52  0     1  0  0  0  0  0999 V2000
   14.8519   -1.6373   24.8068 C   0  0  0  0  0  0  0  0  0  0  0  0
    5.8068   -0.1193   18.7911 C   0  0  0  0  0  0  0  0  0  0  0  0
   13.8031   -0.7421   25.0172 C   0  0  0  0  0  0  0  0  0  0  0  0
   14.8220   -2.5019   23.7127 C   0  0  0  0  0  0  0  0  0  0  0  0
    6.6172   -0.2563   19.9126 C   0  0  0  0  0  0  0  0  0  0  0  0
    6.4165    0.1759   17.5824 C   0  0  0  0  0  0  0  0  0  0  0  0
    8.5051    0.1979   18.5393 C   0  0  0  0  0  0  0  0  0  0  0  0
   12.7243   -0.7117   24.1335 C   0  0  0  0  0  0  0  0  0  0  0  0
    7.9932   -0.0960   19.7928 C   0  0  0  0  0  0  0  0  0  0  0  0
   13.7433   -2.4715   22.8289 C   0  0  0  0  0  0  0  0  0  0  0  0
   12.6944   -1.5763   23.0393 C   0  0  0  0  0  0  0  0  0  0  0  0
   11.6540    0.2290   24.3811 C   0  0  0  0  0  0  0  0  0  0  0  0
   10.2780   -1.7751   22.4431 C   0  0  0  0  0  0  0  0  0  0  0  0
   12.5960    1.9411   21.5556 C   0  0  0  0  0  0  0  0  0  0  0  0
   12.2221    3.2744   22.1315 C   0  0  1  0  0  0  0  0  0  0  0  0
   12.6016    2.1366   23.0563 C   0  0  1  0  0  0  0  0  0  0  0  0
   13.7406   -3.4121   21.6673 C   0  0  0  0  0  0  0  0  0  0  0  0
   13.1326    4.4422   21.9703 C   0  0  0  0  0  0  0  0  0  0  0  0
    8.8996   -0.2389   20.9906 C   0  0  0  0  0  0  0  0  0  0  0  0
    9.3998   -1.6684   21.2060 C   0  0  0  0  0  0  0  0  0  0  0  0
    7.7495    0.3387   17.4271 N   0  0  0  0  0  0  0  0  0  0  0  0
   10.5747    0.0193   25.0989 N   0  0  0  0  0  0  0  0  0  0  0  0
    9.8587    1.1938   25.0447 N   0  0  0  0  0  0  0  0  0  0  0  0
   10.4880    2.1026   24.3097 N   0  0  0  0  0  0  0  0  0  0  0  0
   11.6098    1.4971   23.8959 N   0  0  0  0  0  0  0  0  0  0  0  0
   11.6158   -1.5550   22.1457 N   0  0  0  0  0  0  0  0  0  0  0  0
    9.7768   -2.0019   23.5407 O   0  0  0  0  0  0  0  0  0  0  0  0
   15.6916   -1.6605   25.4952 H   0  0  0  0  0  0  0  0  0  0  0  0
    4.7318   -0.2401   18.8608 H   0  0  0  0  0  0  0  0  0  0  0  0
   13.8431   -0.0751   25.8755 H   0  0  0  0  0  0  0  0  0  0  0  0
   15.6437   -3.1963   23.5582 H   0  0  0  0  0  0  0  0  0  0  0  0
    6.1685   -0.4878   20.8747 H   0  0  0  0  0  0  0  0  0  0  0  0
    5.8281    0.2931   16.6784 H   0  0  0  0  0  0  0  0  0  0  0  0
    9.5710    0.3340   18.3845 H   0  0  0  0  0  0  0  0  0  0  0  0
   11.8052    1.3443   21.1165 H   0  0  0  0  0  0  0  0  0  0  0  0
   13.5543    1.8393   21.0604 H   0  0  0  0  0  0  0  0  0  0  0  0
   11.1797    3.5668   22.0803 H   0  0  0  0  0  0  0  0  0  0  0  0
   13.5730    2.1826   23.5363 H   0  0  0  0  0  0  0  0  0  0  0  0
   13.2527   -4.3535   21.9436 H   0  0  0  0  0  0  0  0  0  0  0  0
   13.2098   -2.9804   20.8105 H   0  0  0  0  0  0  0  0  0  0  0  0
   14.7621   -3.6311   21.3340 H   0  0  0  0  0  0  0  0  0  0  0  0
   14.1919    4.1424   22.0227 H   0  0  0  0  0  0  0  0  0  0  0  0
   12.9685    5.1974   22.7561 H   0  0  0  0  0  0  0  0  0  0  0  0
   12.9834    4.9435   21.0002 H   0  0  0  0  0  0  0  0  0  0  0  0
    9.7519    0.4457   20.8932 H   0  0  0  0  0  0  0  0  0  0  0  0
    8.3500    0.0902   21.8817 H   0  0  0  0  0  0  0  0  0  0  0  0
    8.5429   -2.3356   21.3591 H   0  0  0  0  0  0  0  0  0  0  0  0
    9.9336   -2.0433   20.3250 H   0  0  0  0  0  0  0  0  0  0  0  0
   11.8610   -1.3373   21.1831 H   0  0  0  0  0  0  0  0  0  0  0  0
  1  3  1  0  0  0  0
  1  4  2  0  0  0  0
  2  5  2  0  0  0  0
  2  6  1  0  0  0  0
  3  8  2  0  0  0  0
  4 10  1  0  0  0  0
  5  9  1  0  0  0  0
  6 21  2  0  0  0  0
  7  9  2  0  0  0  0
  7 21  1  0  0  0  0
  8 11  1  0  0  0  0
  8 12  1  0  0  0  0
  9 19  1  0  0  0  0
 10 11  2  0  0  0  0
 10 17  1  0  0  0  0
 11 26  1  0  0  0  0
 12 22  2  0  0  0  0
 12 25  1  0  0  0  0
 13 20  1  0  0  0  0
 13 26  1  0  0  0  0
 13 27  2  0  0  0  0
 14 15  1  0  0  0  0
 14 16  1  0  0  0  0
 15 16  1  0  0  0  0
 15 18  1  0  0  0  0
 16 25  1  0  0  0  0
 19 20  1  0  0  0  0
 22 23  1  0  0  0  0
 23 24  2  0  0  0  0
 24 25  1  0  0  0  0
  1 28  1  0  0  0  0
  2 29  1  0  0  0  0
  3 30  1  0  0  0  0
  4 31  1  0  0  0  0
  5 32  1  0  0  0  0
  6 33  1  0  0  0  0
  7 34  1  0  0  0  0
 14 35  1  0  0  0  0
 14 36  1  0  0  0  0
 15 37  1  0  0  0  0
 16 38  1  0  0  0  0
 17 39  1  0  0  0  0
 17 40  1  0  0  0  0
 17 41  1  0  0  0  0
 18 42  1  0  0  0  0
 18 43  1  0  0  0  0
 18 44  1  0  0  0  0
 19 45  1  0  0  0  0
 19 46  1  0  0  0  0
 20 47  1  0  0  0  0
 20 48  1  0  0  0  0
 26 49  1  0  0  0  0
M  END
> <Hybrid2>
-7.611402

> <fragments>
x0678

> <Mpro-x0678_dock>
-7.611402

> <Mpro-x0967_dock>
-7.198254

> <Mpro-x1077_dock>
-7.022833

> <Mpro-x0107_dock>
-6.951828

> <Mpro-x0072_dock>
-6.810885

> <Mpro-x0434_dock>
-6.505136

> <Mpro-x0874_dock>
-5.646908

> <Mpro-x1392_dock>
-4.953225

> <Mpro-x0749_dock>
-4.902159

> <Mpro-x1093_dock>
-4.899155

> <Mpro-x0397_dock>
-4.749474

> <Mpro-x0830_dock>
-4.644256

> <Mpro-x0104_dock>
-4.62978

> <Mpro-x0161_dock>
-4.609776

> <Mpro-x0195_dock>
-4.392558

> <Mpro-x0946_dock>
-4.343547

> <Mpro-x1311_dock>
-4.326729

> <Mpro-x1249_dock>
-4.254215

> <Mpro-x0708_dock>
-4.209243

> <Mpro-x0395_dock>
-3.919243

> <Mpro-x0692_dock>
-3.793889

> <Mpro-x1380_dock>
-3.764056

> <Mpro-x0831_dock>
-3.760107

> <Mpro-x0354_dock>
-3.709735

> <Mpro-x1478_dock>
-3.442599

> <Mpro-x0759_dock>
-3.151071

> <Mpro-x0305_dock>
-3.018109

> <Mpro-x0774_dock>
-2.928426

> <Mpro-x1358_dock>
-2.896461

> <Mpro-x1385_dock>
-2.869961

> <Mpro-x1418_dock>
-2.785579

> <Mpro-x1334_dock>
-2.750616

> <Mpro-x0387_dock>
-2.742345

> <Mpro-x0820_dock>
-2.607306

> <Mpro-x1351_dock>
-2.340959

> <Mpro-x0705_dock>
-2.198888

> <Mpro-x1375_dock>
-2.026646

> <Mpro-x0755_dock>
-2.013571

> <Mpro-x0771_dock>
-1.973078

> <Mpro-x0736_dock>
-1.849016

> <Mpro-x1386_dock>
-1.673603

> <Mpro-x0689_dock>
-1.506407

> <Mpro-x1412_dock>
-1.286271

> <Mpro-x0770_dock>
-1.203892

> <Mpro-x1308_dock>
-1.106741

> <Mpro-x0540_dock>
-1.086846

> <Mpro-x0731_dock>
-0.864438

> <Mpro-x1425_dock>
-0.830322

> <Mpro-x1402_dock>
-0.727049

> <Mpro-x0769_dock>
-0.635067

> <Mpro-x0426_dock>
-0.487951

> <Mpro-x1348_dock>
-0.388366

> <Mpro-x1384_dock>
-0.336051

> <Mpro-x1458_dock>
-0.31911

> <Mpro-x1187_dock>
-0.252659

> <Mpro-x0691_dock>
-0.225394

> <Mpro-x0734_dock>
0.073362

> <Mpro-x0887_dock>
0.089432

> <Mpro-x1374_dock>
0.147385

> <Mpro-x0786_dock>
0.22806

> <Mpro-x0978_dock>
0.533759

> <Mpro-x0752_dock>
0.617232

> <Mpro-x1493_dock>
0.729236

> <Mpro-x1382_dock>
0.988981

> <Mpro-x0981_dock>
3.450513

> <site>
active-noncovalent

$$$$
NIM-UNI-022-3
  -OEChem-04022003013D

 46 48  0     0  0  0  0  0  0999 V2000
   12.9682   -1.8458   22.2673 C   0  0  0  0  0  0  0  0  0  0  0  0
   12.9987   -0.4554   22.3742 C   0  0  0  0  0  0  0  0  0  0  0  0
   11.8749   -2.5593   22.7587 C   0  0  0  0  0  0  0  0  0  0  0  0
   10.8427   -0.4919   23.4640 C   0  0  0  0  0  0  0  0  0  0  0  0
   11.0144    2.4052   23.6326 C   0  0  0  0  0  0  0  0  0  0  0  0
   11.9360    0.2216   22.9726 C   0  0  0  0  0  0  0  0  0  0  0  0
   10.8122   -1.8823   23.3570 C   0  0  0  0  0  0  0  0  0  0  0  0
   11.5281    3.6692   23.4860 C   0  0  0  0  0  0  0  0  0  0  0  0
    6.0973    7.2552   22.4484 C   0  0  0  0  0  0  0  0  0  0  0  0
    8.5411    7.3326   22.0699 C   0  0  0  0  0  0  0  0  0  0  0  0
    7.4730    5.1223   22.2865 C   0  0  0  0  0  0  0  0  0  0  0  0
    9.6167    6.9337   23.0696 C   0  0  0  0  0  0  0  0  0  0  0  0
    8.5344    4.6891   23.2888 C   0  0  0  0  0  0  0  0  0  0  0  0
    6.1659    8.6367   23.0488 C   0  0  0  0  0  0  0  0  0  0  0  0
   10.9371    4.9843   23.9012 C   0  0  0  0  0  0  0  0  0  0  0  0
   12.7448    3.6017   22.8659 N   0  0  0  0  0  0  0  0  0  0  0  0
   13.0065    2.3228   22.6186 N   0  0  0  0  0  0  0  0  0  0  0  0
   11.9677    1.6071   23.0790 N   0  0  0  0  0  0  0  0  0  0  0  0
    7.3074    6.5797   22.2966 N   0  0  0  0  0  0  0  0  0  0  0  0
    8.4324   -2.8100   22.5950 N   0  0  0  0  0  0  0  0  0  0  0  0
    9.8184    5.4362   23.0052 N   0  3  0  0  0  0  0  0  0  0  0  0
    5.0008    6.7932   22.1224 O   0  0  0  0  0  0  0  0  0  0  0  0
    9.8774   -4.1328   24.2707 O   0  0  0  0  0  0  0  0  0  0  0  0
    8.7979   -1.9782   25.0056 O   0  0  0  0  0  0  0  0  0  0  0  0
    9.4437   -2.7751   23.9718 S   0  0  0  0  0  0  0  0  0  0  0  0
   13.7957   -2.3726   21.8010 H   0  0  0  0  0  0  0  0  0  0  0  0
   13.8573    0.0880   21.9868 H   0  0  0  0  0  0  0  0  0  0  0  0
   11.8621   -3.6423   22.6700 H   0  0  0  0  0  0  0  0  0  0  0  0
   10.0120    0.0336   23.9301 H   0  0  0  0  0  0  0  0  0  0  0  0
   10.0963    2.0273   24.0619 H   0  0  0  0  0  0  0  0  0  0  0  0
    8.3575    8.4093   22.1408 H   0  0  0  0  0  0  0  0  0  0  0  0
    8.8690    7.1261   21.0438 H   0  0  0  0  0  0  0  0  0  0  0  0
    7.7638    4.8351   21.2687 H   0  0  0  0  0  0  0  0  0  0  0  0
    6.5385    4.6047   22.5096 H   0  0  0  0  0  0  0  0  0  0  0  0
   10.5729    7.4030   22.8165 H   0  0  0  0  0  0  0  0  0  0  0  0
    9.3387    7.1923   24.0976 H   0  0  0  0  0  0  0  0  0  0  0  0
    8.2381    4.9084   24.3207 H   0  0  0  0  0  0  0  0  0  0  0  0
    8.7493    3.6206   23.1857 H   0  0  0  0  0  0  0  0  0  0  0  0
    6.2889    9.3639   22.2530 H   0  0  0  0  0  0  0  0  0  0  0  0
    7.0091    8.6866   23.7304 H   0  0  0  0  0  0  0  0  0  0  0  0
    5.2475    8.8335   23.5926 H   0  0  0  0  0  0  0  0  0  0  0  0
   10.5262    4.9313   24.9151 H   0  0  0  0  0  0  0  0  0  0  0  0
   11.6913    5.7786   23.8878 H   0  0  0  0  0  0  0  0  0  0  0  0
    8.3190   -3.7047   22.1029 H   0  0  0  0  0  0  0  0  0  0  0  0
    7.5836   -2.2315   22.6055 H   0  0  0  0  0  0  0  0  0  0  0  0
   10.1021    5.2047   22.0432 H   0  0  0  0  0  0  0  0  0  0  0  0
  1  2  2  0  0  0  0
  1  3  1  0  0  0  0
  2  6  1  0  0  0  0
  3  7  2  0  0  0  0
  4  6  2  0  0  0  0
  4  7  1  0  0  0  0
  5  8  2  0  0  0  0
  5 18  1  0  0  0  0
  6 18  1  0  0  0  0
  7 25  1  0  0  0  0
  8 15  1  0  0  0  0
  8 16  1  0  0  0  0
  9 14  1  0  0  0  0
  9 19  1  0  0  0  0
  9 22  2  0  0  0  0
 10 12  1  0  0  0  0
 10 19  1  0  0  0  0
 11 13  1  0  0  0  0
 11 19  1  0  0  0  0
 12 21  1  0  0  0  0
 13 21  1  0  0  0  0
 15 21  1  0  0  0  0
 16 17  2  0  0  0  0
 17 18  1  0  0  0  0
 20 25  1  0  0  0  0
 23 25  2  0  0  0  0
 24 25  2  0  0  0  0
  1 26  1  0  0  0  0
  2 27  1  0  0  0  0
  3 28  1  0  0  0  0
  4 29  1  0  0  0  0
  5 30  1  0  0  0  0
 10 31  1  0  0  0  0
 10 32  1  0  0  0  0
 11 33  1  0  0  0  0
 11 34  1  0  0  0  0
 12 35  1  0  0  0  0
 12 36  1  0  0  0  0
 13 37  1  0  0  0  0
 13 38  1  0  0  0  0
 14 39  1  0  0  0  0
 14 40  1  0  0  0  0
 14 41  1  0  0  0  0
 15 42  1  0  0  0  0
 15 43  1  0  0  0  0
 20 44  1  0  0  0  0
 20 45  1  0  0  0  0
 21 46  1  0  0  0  0
M  CHG  1  21   1
M  END
> <Hybrid2>
-7.492530

> <fragments>
x0104

> <Mpro-x0104_dock>
-7.49253

> <Mpro-x0195_dock>
-7.234452

> <Mpro-x0161_dock>
-6.974623

> <Mpro-x0946_dock>
-5.184037

> <Mpro-x0397_dock>
-5.111913

> <Mpro-x0072_dock>
-5.000471

> <Mpro-x1077_dock>
-4.920581

> <Mpro-x1311_dock>
-4.754788

> <Mpro-x0107_dock>
-4.688578

> <Mpro-x0874_dock>
-4.631328

> <Mpro-x0678_dock>
-4.390442

> <Mpro-x1187_dock>
-4.34402

> <Mpro-x0395_dock>
-3.763045

> <Mpro-x0434_dock>
-3.741584

> <Mpro-x1093_dock>
-3.562761

> <Mpro-x1334_dock>
-3.359658

> <Mpro-x0387_dock>
-3.162438

> <Mpro-x0749_dock>
-3.068132

> <Mpro-x1493_dock>
-2.963083

> <Mpro-x0967_dock>
-2.821304

> <Mpro-x1392_dock>
-2.772482

> <Mpro-x0830_dock>
-2.607771

> <Mpro-x1249_dock>
-2.505966

> <Mpro-x1385_dock>
-2.294824

> <Mpro-x1374_dock>
-2.285354

> <Mpro-x0305_dock>
-1.955442

> <Mpro-x0752_dock>
-1.805414

> <Mpro-x0692_dock>
-1.78086

> <Mpro-x0354_dock>
-1.559296

> <Mpro-x1348_dock>
-1.46059

> <Mpro-x1412_dock>
-1.323726

> <Mpro-x0831_dock>
-1.281291

> <Mpro-x1380_dock>
-0.969339

> <Mpro-x0734_dock>
-0.76464

> <Mpro-x1375_dock>
-0.679971

> <Mpro-x1384_dock>
-0.438591

> <Mpro-x0736_dock>
-0.226219

> <Mpro-x0887_dock>
-0.155091

> <Mpro-x0820_dock>
-0.109966

> <Mpro-x0540_dock>
0.003141

> <Mpro-x0771_dock>
0.238169

> <Mpro-x1458_dock>
0.238275

> <Mpro-x1418_dock>
0.262893

> <Mpro-x1308_dock>
0.288106

> <Mpro-x1358_dock>
0.405148

> <Mpro-x1386_dock>
0.754375

> <Mpro-x0708_dock>
0.784037

> <Mpro-x0774_dock>
0.787115

> <Mpro-x1425_dock>
0.835867

> <Mpro-x1351_dock>
1.028009

> <Mpro-x0770_dock>
1.070152

> <Mpro-x1382_dock>
1.387098

> <Mpro-x0731_dock>
1.468975

> <Mpro-x0705_dock>
1.502269

> <Mpro-x0755_dock>
1.573576

> <Mpro-x1478_dock>
1.762697

> <Mpro-x0691_dock>
1.965611

> <Mpro-x0426_dock>
1.984218

> <Mpro-x0978_dock>
1.990366

> <Mpro-x0786_dock>
2.199937

> <Mpro-x0769_dock>
2.338301

> <Mpro-x0759_dock>
2.347768

> <Mpro-x0981_dock>
2.779203

> <Mpro-x1402_dock>
2.983892

> <Mpro-x0689_dock>
3.13829

> <site>
active-noncovalent

$$$$
BAR-COM-4e0-44
  -OEChem-04022003013D

 51 53  0     1  0  0  0  0  0999 V2000
   12.2593    1.3543   24.2735 C   0  0  0  0  0  0  0  0  0  0  0  0
   11.8409    1.9847   23.1017 C   0  0  0  0  0  0  0  0  0  0  0  0
   11.6307    0.1839   24.6985 C   0  0  0  0  0  0  0  0  0  0  0  0
   10.7938    1.4447   22.3549 C   0  0  0  0  0  0  0  0  0  0  0  0
    4.9893    1.5038   18.5371 C   0  0  0  0  0  0  0  0  0  0  0  0
    3.9233    2.0504   19.2130 C   0  0  0  0  0  0  0  0  0  0  0  0
    4.8366    0.6192   20.5794 C   0  0  0  0  0  0  0  0  0  0  0  0
   10.5835   -0.3560   23.9518 C   0  0  0  0  0  0  0  0  0  0  0  0
    5.5823    0.5741   19.4244 C   0  0  0  0  0  0  0  0  0  0  0  0
   10.1651    0.2744   22.7800 C   0  0  0  0  0  0  0  0  0  0  0  0
    9.9478   -1.5806   24.4241 C   0  0  0  0  0  0  0  0  0  0  0  0
    8.5714    0.2558   20.8203 C   0  0  0  0  0  0  0  0  0  0  0  0
    6.0551   -1.3241   26.0209 C   0  0  0  0  0  0  0  0  0  0  0  0
    8.2825   -0.1736   25.7647 C   0  0  0  0  0  0  0  0  0  0  0  0
    8.2082   -2.6376   25.8506 C   0  0  0  0  0  0  0  0  0  0  0  0
    6.7853   -0.1003   25.4424 C   0  0  2  0  0  0  0  0  0  0  0  0
    6.7040   -2.6354   25.5463 C   0  0  1  0  0  0  0  0  0  0  0  0
    6.1789    1.1950   25.9755 C   0  0  0  0  0  0  0  0  0  0  0  0
    6.0206   -3.8407   26.1870 C   0  0  0  0  0  0  0  0  0  0  0  0
    6.7829   -0.2879   19.1606 C   0  0  0  0  0  0  0  0  0  0  0  0
    8.8476   -1.4449   25.2906 N   0  0  0  0  0  0  0  0  0  0  0  0
    9.1169   -0.2474   22.0168 N   0  0  0  0  0  0  0  0  0  0  0  0
    7.5292   -0.5596   20.3675 N   0  0  0  0  0  0  0  0  0  0  0  0
   10.3748   -2.6786   24.0627 O   0  0  0  0  0  0  0  0  0  0  0  0
    8.9370    1.2687   20.2286 O   0  0  0  0  0  0  0  0  0  0  0  0
    3.8234    1.5167   20.4586 O   0  0  0  0  0  0  0  0  0  0  0  0
   13.0745    1.7752   24.8549 H   0  0  0  0  0  0  0  0  0  0  0  0
   12.3309    2.8958   22.7710 H   0  0  0  0  0  0  0  0  0  0  0  0
   11.9661   -0.2979   25.6134 H   0  0  0  0  0  0  0  0  0  0  0  0
   10.4771    1.9455   21.4435 H   0  0  0  0  0  0  0  0  0  0  0  0
    5.2973    1.7475   17.5303 H   0  0  0  0  0  0  0  0  0  0  0  0
    3.1785    2.7910   18.9607 H   0  0  0  0  0  0  0  0  0  0  0  0
    4.8920    0.1042   21.5277 H   0  0  0  0  0  0  0  0  0  0  0  0
    6.0703   -1.2801   27.1180 H   0  0  0  0  0  0  0  0  0  0  0  0
    5.0012   -1.3026   25.7170 H   0  0  0  0  0  0  0  0  0  0  0  0
    8.8009    0.6807   25.3210 H   0  0  0  0  0  0  0  0  0  0  0  0
    8.4528   -0.1274   26.8476 H   0  0  0  0  0  0  0  0  0  0  0  0
    8.3908   -2.6289   26.9322 H   0  0  0  0  0  0  0  0  0  0  0  0
    8.6736   -3.5435   25.4475 H   0  0  0  0  0  0  0  0  0  0  0  0
    6.6632   -0.1056   24.3488 H   0  0  0  0  0  0  0  0  0  0  0  0
    6.5719   -2.7126   24.4567 H   0  0  0  0  0  0  0  0  0  0  0  0
    6.2829    1.2329   27.0587 H   0  0  0  0  0  0  0  0  0  0  0  0
    5.1223    1.2416   25.7170 H   0  0  0  0  0  0  0  0  0  0  0  0
    6.6914    2.0501   25.5378 H   0  0  0  0  0  0  0  0  0  0  0  0
    6.1321   -3.7963   27.2691 H   0  0  0  0  0  0  0  0  0  0  0  0
    6.4731   -4.7602   25.8193 H   0  0  0  0  0  0  0  0  0  0  0  0
    4.9607   -3.8399   25.9373 H   0  0  0  0  0  0  0  0  0  0  0  0
    6.4813   -1.2478   18.7273 H   0  0  0  0  0  0  0  0  0  0  0  0
    7.4620    0.1916   18.4478 H   0  0  0  0  0  0  0  0  0  0  0  0
    8.6820   -1.1078   22.3631 H   0  0  0  0  0  0  0  0  0  0  0  0
    7.2857   -1.3808   20.9124 H   0  0  0  0  0  0  0  0  0  0  0  0
  1  2  1  0  0  0  0
  1  3  2  0  0  0  0
  2  4  2  0  0  0  0
  3  8  1  0  0  0  0
  4 10  1  0  0  0  0
  5  6  2  0  0  0  0
  5  9  1  0  0  0  0
  6 26  1  0  0  0  0
  7  9  2  0  0  0  0
  7 26  1  0  0  0  0
  8 10  2  0  0  0  0
  8 11  1  0  0  0  0
  9 20  1  0  0  0  0
 10 22  1  0  0  0  0
 11 21  1  0  0  0  0
 11 24  2  0  0  0  0
 12 22  1  0  0  0  0
 12 23  1  0  0  0  0
 12 25  2  0  0  0  0
 13 16  1  0  0  0  0
 13 17  1  0  0  0  0
 14 16  1  0  0  0  0
 14 21  1  0  0  0  0
 15 17  1  0  0  0  0
 15 21  1  0  0  0  0
 16 18  1  0  0  0  0
 17 19  1  0  0  0  0
 20 23  1  0  0  0  0
  1 27  1  0  0  0  0
  2 28  1  0  0  0  0
  3 29  1  0  0  0  0
  4 30  1  0  0  0  0
  5 31  1  0  0  0  0
  6 32  1  0  0  0  0
  7 33  1  0  0  0  0
 13 34  1  0  0  0  0
 13 35  1  0  0  0  0
 14 36  1  0  0  0  0
 14 37  1  0  0  0  0
 15 38  1  0  0  0  0
 15 39  1  0  0  0  0
 16 40  1  0  0  0  0
 17 41  1  0  0  0  0
 18 42  1  0  0  0  0
 18 43  1  0  0  0  0
 18 44  1  0  0  0  0
 19 45  1  0  0  0  0
 19 46  1  0  0  0  0
 19 47  1  0  0  0  0
 20 48  1  0  0  0  0
 20 49  1  0  0  0  0
 22 50  1  0  0  0  0
 23 51  1  0  0  0  0
M  END
> <Hybrid2>
-7.434844

> <fragments>
x0434

> <Mpro-x0434_dock>
-7.434844

> <Mpro-x0678_dock>
-7.22489

> <Mpro-x0104_dock>
-7.04926

> <Mpro-x0831_dock>
-6.780213

> <Mpro-x0195_dock>
-6.737456

> <Mpro-x1418_dock>
-6.386805

> <Mpro-x0107_dock>
-6.249405

> <Mpro-x0946_dock>
-6.155536

> <Mpro-x0759_dock>
-5.748617

> <Mpro-x0874_dock>
-5.715267

> <Mpro-x1093_dock>
-5.618845

> <Mpro-x1385_dock>
-5.465459

> <Mpro-x1392_dock>
-5.342817

> <Mpro-x1077_dock>
-5.295104

> <Mpro-x0692_dock>
-5.206504

> <Mpro-x0967_dock>
-5.032282

> <Mpro-x1493_dock>
-4.991601

> <Mpro-x0072_dock>
-4.829428

> <Mpro-x0387_dock>
-4.82581

> <Mpro-x0830_dock>
-4.734561

> <Mpro-x0161_dock>
-4.669344

> <Mpro-x0749_dock>
-4.64495

> <Mpro-x1334_dock>
-4.53473

> <Mpro-x0770_dock>
-4.504915

> <Mpro-x0395_dock>
-3.693971

> <Mpro-x1311_dock>
-3.66955

> <Mpro-x1358_dock>
-3.430999

> <Mpro-x0305_dock>
-3.422559

> <Mpro-x1375_dock>
-3.135683

> <Mpro-x1386_dock>
-3.117571

> <Mpro-x0397_dock>
-3.056207

> <Mpro-x1412_dock>
-2.845366

> <Mpro-x1249_dock>
-2.680645

> <Mpro-x0354_dock>
-2.612677

> <Mpro-x1380_dock>
-2.579109

> <Mpro-x0731_dock>
-2.568749

> <Mpro-x1478_dock>
-2.456209

> <Mpro-x1351_dock>
-2.356467

> <Mpro-x0705_dock>
-2.15701

> <Mpro-x1187_dock>
-2.102932

> <Mpro-x0736_dock>
-2.040808

> <Mpro-x1425_dock>
-2.026426

> <Mpro-x0774_dock>
-1.487616

> <Mpro-x1384_dock>
-1.331151

> <Mpro-x0771_dock>
-1.284348

> <Mpro-x0734_dock>
-1.224557

> <Mpro-x1458_dock>
-1.115273

> <Mpro-x1348_dock>
-0.972923

> <Mpro-x1308_dock>
-0.700289

> <Mpro-x0691_dock>
-0.581807

> <Mpro-x0689_dock>
-0.379836

> <Mpro-x0708_dock>
-0.328291

> <Mpro-x0820_dock>
-0.249118

> <Mpro-x0755_dock>
-0.061669

> <Mpro-x0769_dock>
-0.019087

> <Mpro-x1382_dock>
0.109523

> <Mpro-x0752_dock>
0.232144

> <Mpro-x1402_dock>
0.59367

> <Mpro-x0540_dock>
0.900745

> <Mpro-x0978_dock>
0.917283

> <Mpro-x0887_dock>
0.928775

> <Mpro-x1374_dock>
1.109291

> <Mpro-x0786_dock>
1.221822

> <Mpro-x0981_dock>
1.307218

> <Mpro-x0426_dock>
1.961923

> <site>
active-noncovalent

$$$$
CHR-SOS-709-3
  -OEChem-04022003013D

 29 30  0     0  0  0  0  0  0999 V2000
   12.1249   -0.2253   21.7882 C   0  0  0  0  0  0  0  0  0  0  0  0
   11.0238   -2.0145   22.9812 C   0  0  0  0  0  0  0  0  0  0  0  0
   13.3349   -0.5675   22.3918 C   0  0  0  0  0  0  0  0  0  0  0  0
   12.2338   -2.3568   23.5848 C   0  0  0  0  0  0  0  0  0  0  0  0
    6.3955    0.5358   18.4179 C   0  0  0  0  0  0  0  0  0  0  0  0
    5.4201    0.7947   19.3808 C   0  0  0  0  0  0  0  0  0  0  0  0
    7.1196    0.8114   21.0979 C   0  0  0  0  0  0  0  0  0  0  0  0
    8.0950    0.5525   20.1350 C   0  0  0  0  0  0  0  0  0  0  0  0
   10.9692   -0.9488   22.0830 C   0  0  0  0  0  0  0  0  0  0  0  0
   13.3894   -1.6333   23.2900 C   0  0  0  0  0  0  0  0  0  0  0  0
    7.7330    0.4146   18.7950 C   0  0  0  0  0  0  0  0  0  0  0  0
    5.7821    0.9325   20.7208 C   0  0  0  0  0  0  0  0  0  0  0  0
    9.4854    0.4272   20.5498 C   0  0  0  0  0  0  0  0  0  0  0  0
    9.7393   -0.6009   21.4696 N   0  0  0  0  0  0  0  0  0  0  0  0
   14.6213   -1.9817   23.9043 N   0  0  0  0  0  0  0  0  0  0  0  0
   10.3582    1.2021   20.1377 O   0  0  0  0  0  0  0  0  0  0  0  0
   15.6490   -1.3181   23.6253 O   0  0  0  0  0  0  0  0  0  0  0  0
   14.6485   -2.9436   24.7097 O   0  0  0  0  0  0  0  0  0  0  0  0
    8.6710    0.1593   17.8397 O   0  0  0  0  0  0  0  0  0  0  0  0
    4.5789    1.2541   21.9085 Cl  0  0  0  0  0  0  0  0  0  0  0  0
   12.0940    0.6071   21.0897 H   0  0  0  0  0  0  0  0  0  0  0  0
   10.1294   -2.5853   23.2183 H   0  0  0  0  0  0  0  0  0  0  0  0
   14.2281    0.0047   22.1532 H   0  0  0  0  0  0  0  0  0  0  0  0
   12.2624   -3.1897   24.2830 H   0  0  0  0  0  0  0  0  0  0  0  0
    6.1073    0.4287   17.3756 H   0  0  0  0  0  0  0  0  0  0  0  0
    4.3821    0.8878   19.0721 H   0  0  0  0  0  0  0  0  0  0  0  0
    7.4042    0.9177   22.1426 H   0  0  0  0  0  0  0  0  0  0  0  0
    8.9379   -1.1702   21.7301 H   0  0  0  0  0  0  0  0  0  0  0  0
    9.5513    0.1012   18.2425 H   0  0  0  0  0  0  0  0  0  0  0  0
  1  3  2  0  0  0  0
  1  9  1  0  0  0  0
  2  4  1  0  0  0  0
  2  9  2  0  0  0  0
  3 10  1  0  0  0  0
  4 10  2  0  0  0  0
  5  6  2  0  0  0  0
  5 11  1  0  0  0  0
  6 12  1  0  0  0  0
  7  8  1  0  0  0  0
  7 12  2  0  0  0  0
  8 11  2  0  0  0  0
  8 13  1  0  0  0  0
  9 14  1  0  0  0  0
 10 15  1  0  0  0  0
 11 19  1  0  0  0  0
 12 20  1  0  0  0  0
 13 14  1  0  0  0  0
 13 16  2  0  0  0  0
 15 17  2  0  0  0  0
 15 18  2  0  0  0  0
  1 21  1  0  0  0  0
  2 22  1  0  0  0  0
  3 23  1  0  0  0  0
  4 24  1  0  0  0  0
  5 25  1  0  0  0  0
  6 26  1  0  0  0  0
  7 27  1  0  0  0  0
 14 28  1  0  0  0  0
 19 29  1  0  0  0  0
M  END
> <Hybrid2>
-7.398833

> <fragments>
x0678

> <Mpro-x0678_dock>
-7.398833

> <Mpro-x0195_dock>
-7.24472

> <Mpro-x0749_dock>
-7.047534

> <Mpro-x0104_dock>
-7.044674

> <Mpro-x0072_dock>
-6.886709

> <Mpro-x0107_dock>
-6.776828

> <Mpro-x1093_dock>
-6.660686

> <Mpro-x0161_dock>
-6.556115

> <Mpro-x1077_dock>
-6.014494

> <Mpro-x0946_dock>
-5.91282

> <Mpro-x0395_dock>
-5.82884

> <Mpro-x0397_dock>
-5.822978

> <Mpro-x1311_dock>
-5.63988

> <Mpro-x0874_dock>
-5.335233

> <Mpro-x1334_dock>
-5.293045

> <Mpro-x0967_dock>
-5.203431

> <Mpro-x0830_dock>
-5.065837

> <Mpro-x1385_dock>
-4.972729

> <Mpro-x1375_dock>
-4.829365

> <Mpro-x1374_dock>
-4.74521

> <Mpro-x0387_dock>
-4.70797

> <Mpro-x0434_dock>
-4.64337

> <Mpro-x0770_dock>
-4.63249

> <Mpro-x0305_dock>
-4.507537

> <Mpro-x1412_dock>
-4.458962

> <Mpro-x1187_dock>
-4.455326

> <Mpro-x1392_dock>
-4.2607

> <Mpro-x0692_dock>
-4.038871

> <Mpro-x1418_dock>
-3.988734

> <Mpro-x0759_dock>
-3.880867

> <Mpro-x0354_dock>
-3.81828

> <Mpro-x1348_dock>
-3.689739

> <Mpro-x0708_dock>
-3.358063

> <Mpro-x0831_dock>
-3.240849

> <Mpro-x0774_dock>
-2.967861

> <Mpro-x1386_dock>
-2.948165

> <Mpro-x1249_dock>
-2.94528

> <Mpro-x0981_dock>
-2.557657

> <Mpro-x0786_dock>
-2.553119

> <Mpro-x0734_dock>
-2.372403

> <Mpro-x0978_dock>
-2.217631

> <Mpro-x1478_dock>
-2.125961

> <Mpro-x1380_dock>
-2.027833

> <Mpro-x0771_dock>
-1.765965

> <Mpro-x0540_dock>
-1.669368

> <Mpro-x0426_dock>
-1.550073

> <Mpro-x0731_dock>
-1.287174

> <Mpro-x0755_dock>
-1.167632

> <Mpro-x1425_dock>
-1.102019

> <Mpro-x0752_dock>
-1.078765

> <Mpro-x0689_dock>
-1.074305

> <Mpro-x1308_dock>
-1.049503

> <Mpro-x1384_dock>
-1.045938

> <Mpro-x0691_dock>
-0.958408

> <Mpro-x0769_dock>
-0.956447

> <Mpro-x1358_dock>
-0.891273

> <Mpro-x1493_dock>
-0.807876

> <Mpro-x0705_dock>
-0.72024

> <Mpro-x1351_dock>
-0.690686

> <Mpro-x1402_dock>
-0.54311

> <Mpro-x0736_dock>
-0.448863

> <Mpro-x1458_dock>
-0.437218

> <Mpro-x0887_dock>
-0.393448

> <Mpro-x1382_dock>
-0.273861

> <Mpro-x0820_dock>
0.053986

> <site>
active-noncovalent

$$$$
VIJ-CYC-1a3-11
  -OEChem-04022003013D

 44 44  0     1  0  0  0  0  0999 V2000
   13.8531    1.7800   22.3283 C   0  0  0  0  0  0  0  0  0  0  0  0
   12.1653    1.2867   23.9852 C   0  0  0  0  0  0  0  0  0  0  0  0
   13.4546    3.1167   22.3204 C   0  0  0  0  0  0  0  0  0  0  0  0
   11.7669    2.6234   23.9773 C   0  0  0  0  0  0  0  0  0  0  0  0
   13.2084    0.8650   23.1607 C   0  0  0  0  0  0  0  0  0  0  0  0
   12.4115    3.5384   23.1450 C   0  0  0  0  0  0  0  0  0  0  0  0
   11.3648   -1.5657   22.8688 C   0  0  0  0  0  0  0  0  0  0  0  0
   14.2097   -1.0334   21.8244 C   0  0  0  0  0  0  0  0  0  0  0  0
    8.5347   -3.8545   23.8259 C   0  0  0  0  0  0  0  0  0  0  0  0
    8.3321   -1.5052   22.9726 C   0  0  0  0  0  0  0  0  0  0  0  0
    9.3278   -3.2889   21.5181 C   0  0  0  0  0  0  0  0  0  0  0  0
   12.5087    5.7922   25.7626 C   0  0  0  0  0  0  0  0  0  0  0  0
   13.6400   -0.5857   23.1689 C   0  0  2  0  0  0  0  0  0  0  0  0
    9.1892   -2.7752   22.9559 C   0  0  0  0  0  0  0  0  0  0  0  0
   12.5583   -1.4522   23.5767 N   0  0  0  0  0  0  0  0  0  0  0  0
   10.5055   -2.4662   23.4841 N   0  0  0  0  0  0  0  0  0  0  0  0
   12.9038    5.8964   24.3506 N   0  0  0  0  0  0  0  0  0  0  0  0
   11.1072   -0.9500   21.8352 O   0  0  0  0  0  0  0  0  0  0  0  0
   12.2747    5.8023   21.8542 O   0  0  0  0  0  0  0  0  0  0  0  0
   10.5280    5.2659   23.5821 O   0  0  0  0  0  0  0  0  0  0  0  0
   11.9141    5.2119   23.1369 S   0  0  0  0  0  0  0  0  0  0  0  0
   14.6664    1.4606   21.6823 H   0  0  0  0  0  0  0  0  0  0  0  0
   11.6570    0.5807   24.6367 H   0  0  0  0  0  0  0  0  0  0  0  0
   13.9632    3.8213   21.6677 H   0  0  0  0  0  0  0  0  0  0  0  0
   10.9528    2.9411   24.6234 H   0  0  0  0  0  0  0  0  0  0  0  0
   13.4700   -0.9188   21.0245 H   0  0  0  0  0  0  0  0  0  0  0  0
   15.0892   -0.4349   21.5616 H   0  0  0  0  0  0  0  0  0  0  0  0
   14.5279   -2.0819   21.8426 H   0  0  0  0  0  0  0  0  0  0  0  0
    9.1302   -4.7749   23.8302 H   0  0  0  0  0  0  0  0  0  0  0  0
    8.4264   -3.5191   24.8633 H   0  0  0  0  0  0  0  0  0  0  0  0
    7.5386   -4.1150   23.4494 H   0  0  0  0  0  0  0  0  0  0  0  0
    8.7806   -0.7174   22.3562 H   0  0  0  0  0  0  0  0  0  0  0  0
    8.2367   -1.1059   23.9890 H   0  0  0  0  0  0  0  0  0  0  0  0
    7.3237   -1.6993   22.5905 H   0  0  0  0  0  0  0  0  0  0  0  0
    9.7940   -2.5354   20.8727 H   0  0  0  0  0  0  0  0  0  0  0  0
    9.9412   -4.1957   21.4759 H   0  0  0  0  0  0  0  0  0  0  0  0
    8.3485   -3.5246   21.0857 H   0  0  0  0  0  0  0  0  0  0  0  0
   11.8735    4.9049   25.9016 H   0  0  0  0  0  0  0  0  0  0  0  0
   13.4081    5.7008   26.3892 H   0  0  0  0  0  0  0  0  0  0  0  0
   11.9487    6.6930   26.0539 H   0  0  0  0  0  0  0  0  0  0  0  0
   14.4227   -0.7236   23.9249 H   0  0  0  0  0  0  0  0  0  0  0  0
   12.6741   -2.0052   24.4202 H   0  0  0  0  0  0  0  0  0  0  0  0
   10.8150   -2.9652   24.3078 H   0  0  0  0  0  0  0  0  0  0  0  0
   13.5026    6.6951   24.1081 H   0  0  0  0  0  0  0  0  0  0  0  0
  1  3  2  0  0  0  0
  1  5  1  0  0  0  0
  2  4  1  0  0  0  0
  2  5  2  0  0  0  0
  3  6  1  0  0  0  0
  4  6  2  0  0  0  0
  5 13  1  0  0  0  0
  6 21  1  0  0  0  0
  7 15  1  0  0  0  0
  7 16  1  0  0  0  0
  7 18  2  0  0  0  0
  8 13  1  0  0  0  0
  9 14  1  0  0  0  0
 10 14  1  0  0  0  0
 11 14  1  0  0  0  0
 12 17  1  0  0  0  0
 13 15  1  0  0  0  0
 14 16  1  0  0  0  0
 17 21  1  0  0  0  0
 19 21  2  0  0  0  0
 20 21  2  0  0  0  0
  1 22  1  0  0  0  0
  2 23  1  0  0  0  0
  3 24  1  0  0  0  0
  4 25  1  0  0  0  0
  8 26  1  0  0  0  0
  8 27  1  0  0  0  0
  8 28  1  0  0  0  0
  9 29  1  0  0  0  0
  9 30  1  0  0  0  0
  9 31  1  0  0  0  0
 10 32  1  0  0  0  0
 10 33  1  0  0  0  0
 10 34  1  0  0  0  0
 11 35  1  0  0  0  0
 11 36  1  0  0  0  0
 11 37  1  0  0  0  0
 12 38  1  0  0  0  0
 12 39  1  0  0  0  0
 12 40  1  0  0  0  0
 13 41  1  0  0  0  0
 15 42  1  0  0  0  0
 16 43  1  0  0  0  0
 17 44  1  0  0  0  0
M  END
> <Hybrid2>
-7.291488

> <fragments>
x0195

> <Mpro-x0195_dock>
-7.291488

> <Mpro-x0874_dock>
-7.170397

> <Mpro-x0946_dock>
-6.90228

> <Mpro-x0161_dock>
-6.78439

> <Mpro-x1077_dock>
-6.35742

> <Mpro-x0104_dock>
-6.252801

> <Mpro-x1348_dock>
-5.831594

> <Mpro-x0678_dock>
-5.587012

> <Mpro-x0072_dock>
-5.105615

> <Mpro-x1093_dock>
-5.019423

> <Mpro-x1392_dock>
-4.99258

> <Mpro-x0387_dock>
-4.96052

> <Mpro-x0749_dock>
-4.726272

> <Mpro-x0434_dock>
-4.646273

> <Mpro-x1311_dock>
-4.350639

> <Mpro-x0830_dock>
-4.14497

> <Mpro-x0692_dock>
-3.767506

> <Mpro-x0831_dock>
-3.72841

> <Mpro-x0107_dock>
-3.712628

> <Mpro-x0734_dock>
-3.642375

> <Mpro-x0397_dock>
-3.594666

> <Mpro-x1493_dock>
-3.19485

> <Mpro-x1187_dock>
-3.140593

> <Mpro-x1458_dock>
-3.129478

> <Mpro-x0395_dock>
-2.993018

> <Mpro-x0708_dock>
-2.924464

> <Mpro-x1386_dock>
-2.810378

> <Mpro-x0305_dock>
-2.673176

> <Mpro-x0978_dock>
-2.527907

> <Mpro-x1418_dock>
-2.466782

> <Mpro-x1375_dock>
-2.455933

> <Mpro-x1478_dock>
-2.262647

> <Mpro-x0354_dock>
-2.255995

> <Mpro-x1380_dock>
-2.18084

> <Mpro-x1334_dock>
-2.092009

> <Mpro-x0967_dock>
-1.971932

> <Mpro-x0736_dock>
-1.798979

> <Mpro-x0820_dock>
-1.734308

> <Mpro-x0981_dock>
-1.650067

> <Mpro-x1249_dock>
-1.624602

> <Mpro-x1382_dock>
-1.602418

> <Mpro-x1384_dock>
-1.519049

> <Mpro-x1374_dock>
-1.51092

> <Mpro-x0770_dock>
-1.417922

> <Mpro-x1385_dock>
-1.310757

> <Mpro-x0759_dock>
-1.293468

> <Mpro-x0774_dock>
-1.250254

> <Mpro-x0887_dock>
-0.759609

> <Mpro-x0540_dock>
-0.474199

> <Mpro-x1425_dock>
-0.414612

> <Mpro-x0705_dock>
-0.285468

> <Mpro-x1351_dock>
-0.255209

> <Mpro-x1358_dock>
-0.109139

> <Mpro-x0771_dock>
0.057023

> <Mpro-x0752_dock>
0.079301

> <Mpro-x0691_dock>
0.113268

> <Mpro-x0689_dock>
0.127039

> <Mpro-x0769_dock>
0.252193

> <Mpro-x0755_dock>
0.386184

> <Mpro-x1308_dock>
0.414397

> <Mpro-x0426_dock>
0.569911

> <Mpro-x0731_dock>
0.604294

> <Mpro-x1412_dock>
0.613137

> <Mpro-x1402_dock>
0.737162

> <Mpro-x0786_dock>
2.079654

> <site>
active-noncovalent

$$$$
GIA-UNK-d2d-3
  -OEChem-04022003013D

 61 63  0     1  0  0  0  0  0999 V2000
    7.6679    3.7295   23.5198 C   0  0  0  0  0  0  0  0  0  0  0  0
    8.9109    0.0737   21.9284 C   0  0  0  0  0  0  0  0  0  0  0  0
    8.1663    7.1525   25.0212 C   0  0  0  0  0  0  0  0  0  0  0  0
    7.9958    6.8999   23.5278 C   0  0  0  0  0  0  0  0  0  0  0  0
    8.0108    5.8671   25.8255 C   0  0  0  0  0  0  0  0  0  0  0  0
    4.5302    2.6754   20.0058 C   0  0  0  0  0  0  0  0  0  0  0  0
    5.0333    1.3840   19.3713 C   0  0  0  0  0  0  0  0  0  0  0  0
    8.9478    5.8171   23.0207 C   0  0  0  0  0  0  0  0  0  0  0  0
    8.9776    4.7838   25.3499 C   0  0  0  0  0  0  0  0  0  0  0  0
    5.6695    3.4633   20.6435 C   0  0  0  0  0  0  0  0  0  0  0  0
    5.7952    0.5295   20.3783 C   0  0  0  0  0  0  0  0  0  0  0  0
   10.4296   -1.7919   22.5970 C   0  0  0  0  0  0  0  0  0  0  0  0
    9.8857    0.0660   24.2267 C   0  0  0  0  0  0  0  0  0  0  0  0
   11.7819   -1.1428   22.3289 C   0  0  0  0  0  0  0  0  0  0  0  0
   11.2439    0.6955   23.9415 C   0  0  0  0  0  0  0  0  0  0  0  0
    8.8972    4.5281   23.8435 C   0  0  0  0  0  0  0  0  0  0  0  0
    9.3738   -0.7904   23.0676 C   0  0  0  0  0  0  0  0  0  0  0  0
    6.4511    2.6223   21.6590 C   0  0  1  0  0  0  0  0  0  0  0  0
    6.9421    1.3036   21.0352 C   0  0  1  0  0  0  0  0  0  0  0  0
   13.6166    0.1691   23.3894 C   0  0  0  0  0  0  0  0  0  0  0  0
    7.5572    3.3914   22.1872 N   0  0  0  0  0  0  0  0  0  0  0  0
    7.5899    0.4682   22.0222 N   0  0  0  0  0  0  0  0  0  0  0  0
   12.2265   -0.3814   23.5531 N   0  3  0  0  0  0  0  0  0  0  0  0
    6.8814    3.4419   24.4143 O   0  0  0  0  0  0  0  0  0  0  0  0
    9.6947    0.3622   21.0316 O   0  0  0  0  0  0  0  0  0  0  0  0
    9.1569    7.5849   25.2088 H   0  0  0  0  0  0  0  0  0  0  0  0
    7.4276    7.8890   25.3570 H   0  0  0  0  0  0  0  0  0  0  0  0
    6.9598    6.6025   23.3246 H   0  0  0  0  0  0  0  0  0  0  0  0
    8.1708    7.8297   22.9746 H   0  0  0  0  0  0  0  0  0  0  0  0
    8.1919    6.0756   26.8862 H   0  0  0  0  0  0  0  0  0  0  0  0
    6.9780    5.5076   25.7485 H   0  0  0  0  0  0  0  0  0  0  0  0
    4.0344    3.2886   19.2447 H   0  0  0  0  0  0  0  0  0  0  0  0
    3.7762    2.4409   20.7648 H   0  0  0  0  0  0  0  0  0  0  0  0
    4.1848    0.8183   18.9697 H   0  0  0  0  0  0  0  0  0  0  0  0
    5.6852    1.6223   18.5242 H   0  0  0  0  0  0  0  0  0  0  0  0
    8.7220    5.6062   21.9676 H   0  0  0  0  0  0  0  0  0  0  0  0
    9.9708    6.2159   23.0476 H   0  0  0  0  0  0  0  0  0  0  0  0
   10.0001    5.0910   25.6070 H   0  0  0  0  0  0  0  0  0  0  0  0
    8.7788    3.8573   25.9034 H   0  0  0  0  0  0  0  0  0  0  0  0
    6.3388    3.8449   19.8658 H   0  0  0  0  0  0  0  0  0  0  0  0
    5.2545    4.3412   21.1507 H   0  0  0  0  0  0  0  0  0  0  0  0
    5.1065    0.1468   21.1376 H   0  0  0  0  0  0  0  0  0  0  0  0
    6.2046   -0.3461   19.8634 H   0  0  0  0  0  0  0  0  0  0  0  0
   10.0911   -2.2988   21.6853 H   0  0  0  0  0  0  0  0  0  0  0  0
   10.5525   -2.5697   23.3618 H   0  0  0  0  0  0  0  0  0  0  0  0
    9.9629   -0.5573   25.1269 H   0  0  0  0  0  0  0  0  0  0  0  0
    9.1656    0.8608   24.4556 H   0  0  0  0  0  0  0  0  0  0  0  0
   12.5389   -1.9073   22.1243 H   0  0  0  0  0  0  0  0  0  0  0  0
   11.7441   -0.4373   21.4916 H   0  0  0  0  0  0  0  0  0  0  0  0
   11.2052    1.4240   23.1249 H   0  0  0  0  0  0  0  0  0  0  0  0
   11.6326    1.1842   24.8411 H   0  0  0  0  0  0  0  0  0  0  0  0
    9.7474    3.8952   23.5567 H   0  0  0  0  0  0  0  0  0  0  0  0
    8.4895   -1.3393   23.4002 H   0  0  0  0  0  0  0  0  0  0  0  0
    5.8072    2.4134   22.5213 H   0  0  0  0  0  0  0  0  0  0  0  0
    7.7136    1.5069   20.2824 H   0  0  0  0  0  0  0  0  0  0  0  0
   13.5972    0.8856   22.5662 H   0  0  0  0  0  0  0  0  0  0  0  0
   13.8962    0.6548   24.3262 H   0  0  0  0  0  0  0  0  0  0  0  0
   14.2828   -0.6666   23.1665 H   0  0  0  0  0  0  0  0  0  0  0  0
    8.2834    3.6953   21.5491 H   0  0  0  0  0  0  0  0  0  0  0  0
    7.0480    0.1567   22.8226 H   0  0  0  0  0  0  0  0  0  0  0  0
   12.2702   -1.0523   24.3324 H   0  0  0  0  0  0  0  0  0  0  0  0
  1 16  1  0  0  0  0
  1 21  1  0  0  0  0
  1 24  2  0  0  0  0
  2 17  1  0  0  0  0
  2 22  1  0  0  0  0
  2 25  2  0  0  0  0
  3  4  1  0  0  0  0
  3  5  1  0  0  0  0
  4  8  1  0  0  0  0
  5  9  1  0  0  0  0
  6  7  1  0  0  0  0
  6 10  1  0  0  0  0
  7 11  1  0  0  0  0
  8 16  1  0  0  0  0
  9 16  1  0  0  0  0
 10 18  1  0  0  0  0
 11 19  1  0  0  0  0
 12 14  1  0  0  0  0
 12 17  1  0  0  0  0
 13 15  1  0  0  0  0
 13 17  1  0  0  0  0
 14 23  1  0  0  0  0
 15 23  1  0  0  0  0
 18 19  1  0  0  0  0
 18 21  1  0  0  0  0
 19 22  1  0  0  0  0
 20 23  1  0  0  0  0
  3 26  1  0  0  0  0
  3 27  1  0  0  0  0
  4 28  1  0  0  0  0
  4 29  1  0  0  0  0
  5 30  1  0  0  0  0
  5 31  1  0  0  0  0
  6 32  1  0  0  0  0
  6 33  1  0  0  0  0
  7 34  1  0  0  0  0
  7 35  1  0  0  0  0
  8 36  1  0  0  0  0
  8 37  1  0  0  0  0
  9 38  1  0  0  0  0
  9 39  1  0  0  0  0
 10 40  1  0  0  0  0
 10 41  1  0  0  0  0
 11 42  1  0  0  0  0
 11 43  1  0  0  0  0
 12 44  1  0  0  0  0
 12 45  1  0  0  0  0
 13 46  1  0  0  0  0
 13 47  1  0  0  0  0
 14 48  1  0  0  0  0
 14 49  1  0  0  0  0
 15 50  1  0  0  0  0
 15 51  1  0  0  0  0
 16 52  1  0  0  0  0
 17 53  1  0  0  0  0
 18 54  1  0  0  0  0
 19 55  1  0  0  0  0
 20 56  1  0  0  0  0
 20 57  1  0  0  0  0
 20 58  1  0  0  0  0
 21 59  1  0  0  0  0
 22 60  1  0  0  0  0
 23 61  1  0  0  0  0
M  CHG  1  23   1
M  END
> <Hybrid2>
-7.241215

> <fragments>
x0967

> <Mpro-x0967_dock>
-7.241215

> <Mpro-x1392_dock>
-6.550743

> <Mpro-x0434_dock>
-6.501509

> <Mpro-x0759_dock>
-6.221786

> <Mpro-x0678_dock>
-5.532091

> <Mpro-x0874_dock>
-5.450855

> <Mpro-x0831_dock>
-5.368584

> <Mpro-x0195_dock>
-5.358499

> <Mpro-x0387_dock>
-5.205772

> <Mpro-x0946_dock>
-4.616973

> <Mpro-x1418_dock>
-4.441544

> <Mpro-x0305_dock>
-4.409159

> <Mpro-x0072_dock>
-4.386865

> <Mpro-x0161_dock>
-4.349464

> <Mpro-x1077_dock>
-3.881108

> <Mpro-x0830_dock>
-3.861613

> <Mpro-x1093_dock>
-3.838583

> <Mpro-x0692_dock>
-3.733956

> <Mpro-x0107_dock>
-3.62566

> <Mpro-x0104_dock>
-3.355724

> <Mpro-x0395_dock>
-3.323527

> <Mpro-x0736_dock>
-2.940907

> <Mpro-x0749_dock>
-2.842781

> <Mpro-x0397_dock>
-2.702084

> <Mpro-x1386_dock>
-2.633137

> <Mpro-x1334_dock>
-2.519534

> <Mpro-x1458_dock>
-2.118834

> <Mpro-x1382_dock>
-2.118098

> <Mpro-x0770_dock>
-1.81035

> <Mpro-x1187_dock>
-1.725777

> <Mpro-x1380_dock>
-1.281098

> <Mpro-x1311_dock>
-1.273344

> <Mpro-x0978_dock>
-1.093609

> <Mpro-x0354_dock>
-1.021147

> <Mpro-x1385_dock>
-0.955521

> <Mpro-x0708_dock>
-0.894893

> <Mpro-x1478_dock>
-0.821353

> <Mpro-x1348_dock>
-0.762137

> <Mpro-x1425_dock>
-0.600699

> <Mpro-x1375_dock>
-0.588332

> <Mpro-x1374_dock>
-0.400815

> <Mpro-x1358_dock>
-0.112046

> <Mpro-x0887_dock>
-0.01832

> <Mpro-x1412_dock>
0.083889

> <Mpro-x1384_dock>
0.114849

> <Mpro-x1249_dock>
0.139362

> <Mpro-x0820_dock>
0.148477

> <Mpro-x0705_dock>
0.247931

> <Mpro-x0786_dock>
0.357901

> <Mpro-x0774_dock>
0.551445

> <Mpro-x0771_dock>
0.562721

> <Mpro-x0691_dock>
0.623462

> <Mpro-x1308_dock>
0.724151

> <Mpro-x0734_dock>
0.724761

> <Mpro-x1351_dock>
0.765714

> <Mpro-x0981_dock>
0.841758

> <Mpro-x1402_dock>
1.250157

> <Mpro-x0769_dock>
1.469111

> <Mpro-x1493_dock>
1.636496

> <Mpro-x0689_dock>
1.67923

> <Mpro-x0755_dock>
1.690605

> <Mpro-x0540_dock>
1.860806

> <Mpro-x0731_dock>
2.057782

> <Mpro-x0752_dock>
2.212361

> <Mpro-x0426_dock>
2.316572

> <site>
active-noncovalent

$$$$
ALE-UNK-fca-9
  -OEChem-04022003013D

 42 42  0     1  0  0  0  0  0999 V2000
   10.2812   -1.7525   24.2274 C   0  0  0  0  0  0  0  0  0  0  0  0
   10.5561   -0.6813   23.4033 C   0  0  0  0  0  0  0  0  0  0  0  0
    9.2385    0.3327   24.8337 C   0  0  0  0  0  0  0  0  0  0  0  0
   12.4524    3.8535   23.3078 C   0  0  0  0  0  0  0  0  0  0  0  0
   13.6018    0.4180   22.7482 C   0  0  0  0  0  0  0  0  0  0  0  0
    8.4509    1.3907   25.5030 C   0  0  0  0  0  0  0  0  0  0  0  0
   11.2520    7.4153   26.0741 C   0  0  0  0  0  0  0  0  0  0  0  0
   14.0754    3.4196   21.4463 C   0  0  0  0  0  0  0  0  0  0  0  0
   13.4422   -2.0808   22.6514 C   0  0  0  0  0  0  0  0  0  0  0  0
   11.4344   -0.7142   22.1861 C   0  0  0  0  0  0  0  0  0  0  0  0
   12.1224    6.2796   25.5551 C   0  0  0  0  0  0  0  0  0  0  0  0
   12.1565    6.2121   24.0330 C   0  0  0  0  0  0  0  0  0  0  0  0
   13.5063    2.9015   22.7579 C   0  0  2  0  0  0  0  0  0  0  0  0
    9.9587    0.5151   23.7491 N   0  0  0  0  0  0  0  0  0  0  0  0
   12.9676    5.1195   23.5489 N   0  0  0  0  0  0  0  0  0  0  0  0
   12.8912    1.6044   22.5884 N   0  0  0  0  0  0  0  0  0  0  0  0
   12.8521   -0.7537   22.5359 N   0  0  0  0  0  0  0  0  0  0  0  0
   11.2784    3.5301   23.4754 O   0  0  0  0  0  0  0  0  0  0  0  0
   14.8004    0.4068   23.0444 O   0  0  0  0  0  0  0  0  0  0  0  0
    9.2349   -1.2525   25.4910 S   0  0  0  0  0  0  0  0  0  0  0  0
   10.6322   -2.7721   24.1536 H   0  0  0  0  0  0  0  0  0  0  0  0
    7.4268    1.4341   25.1006 H   0  0  0  0  0  0  0  0  0  0  0  0
    8.3798    1.2241   26.5903 H   0  0  0  0  0  0  0  0  0  0  0  0
    8.9070    2.3860   25.3740 H   0  0  0  0  0  0  0  0  0  0  0  0
   11.6108    8.3829   25.7089 H   0  0  0  0  0  0  0  0  0  0  0  0
   10.2203    7.2859   25.7316 H   0  0  0  0  0  0  0  0  0  0  0  0
   11.2413    7.4420   27.1681 H   0  0  0  0  0  0  0  0  0  0  0  0
   13.2873    3.5500   20.6957 H   0  0  0  0  0  0  0  0  0  0  0  0
   14.5660    4.3891   21.5821 H   0  0  0  0  0  0  0  0  0  0  0  0
   14.8115    2.7193   21.0371 H   0  0  0  0  0  0  0  0  0  0  0  0
   13.3420   -2.4383   23.6868 H   0  0  0  0  0  0  0  0  0  0  0  0
   12.9228   -2.7732   21.9726 H   0  0  0  0  0  0  0  0  0  0  0  0
   14.5075   -2.0330   22.3816 H   0  0  0  0  0  0  0  0  0  0  0  0
   11.2133   -1.5956   21.5742 H   0  0  0  0  0  0  0  0  0  0  0  0
   11.2689    0.1675   21.5581 H   0  0  0  0  0  0  0  0  0  0  0  0
   11.7301    5.3323   25.9428 H   0  0  0  0  0  0  0  0  0  0  0  0
   13.1388    6.3956   25.9496 H   0  0  0  0  0  0  0  0  0  0  0  0
   11.1458    6.0577   23.6423 H   0  0  0  0  0  0  0  0  0  0  0  0
   12.5504    7.1382   23.6028 H   0  0  0  0  0  0  0  0  0  0  0  0
   14.3075    2.7777   23.4946 H   0  0  0  0  0  0  0  0  0  0  0  0
   13.9610    5.2875   23.4199 H   0  0  0  0  0  0  0  0  0  0  0  0
   11.9090    1.5571   22.3449 H   0  0  0  0  0  0  0  0  0  0  0  0
  1  2  2  0  0  0  0
  1 20  1  0  0  0  0
  2 10  1  0  0  0  0
  2 14  1  0  0  0  0
  3  6  1  0  0  0  0
  3 14  2  0  0  0  0
  3 20  1  0  0  0  0
  4 13  1  0  0  0  0
  4 15  1  0  0  0  0
  4 18  2  0  0  0  0
  5 16  1  0  0  0  0
  5 17  1  0  0  0  0
  5 19  2  0  0  0  0
  7 11  1  0  0  0  0
  8 13  1  0  0  0  0
  9 17  1  0  0  0  0
 10 17  1  0  0  0  0
 11 12  1  0  0  0  0
 12 15  1  0  0  0  0
 13 16  1  0  0  0  0
  1 21  1  0  0  0  0
  6 22  1  0  0  0  0
  6 23  1  0  0  0  0
  6 24  1  0  0  0  0
  7 25  1  0  0  0  0
  7 26  1  0  0  0  0
  7 27  1  0  0  0  0
  8 28  1  0  0  0  0
  8 29  1  0  0  0  0
  8 30  1  0  0  0  0
  9 31  1  0  0  0  0
  9 32  1  0  0  0  0
  9 33  1  0  0  0  0
 10 34  1  0  0  0  0
 10 35  1  0  0  0  0
 11 36  1  0  0  0  0
 11 37  1  0  0  0  0
 12 38  1  0  0  0  0
 12 39  1  0  0  0  0
 13 40  1  0  0  0  0
 15 41  1  0  0  0  0
 16 42  1  0  0  0  0
M  END
> <Hybrid2>
-7.045680

> <fragments>
x0195

> <Mpro-x0195_dock>
-7.04568

> <Mpro-x0830_dock>
-6.371674

> <Mpro-x0072_dock>
-5.910894

> <Mpro-x0678_dock>
-5.531355

> <Mpro-x0161_dock>
-5.491012

> <Mpro-x0397_dock>
-5.455004

> <Mpro-x1392_dock>
-5.4366

> <Mpro-x0831_dock>
-5.41201

> <Mpro-x0434_dock>
-5.008022

> <Mpro-x0104_dock>
-5.007396

> <Mpro-x0749_dock>
-5.003094

> <Mpro-x1077_dock>
-4.993901

> <Mpro-x1374_dock>
-4.955049

> <Mpro-x1375_dock>
-4.627604

> <Mpro-x0874_dock>
-4.5072

> <Mpro-x0967_dock>
-4.502921

> <Mpro-x1093_dock>
-4.426957

> <Mpro-x0759_dock>
-4.385515

> <Mpro-x1418_dock>
-4.365893

> <Mpro-x0946_dock>
-4.287972

> <Mpro-x1386_dock>
-4.065252

> <Mpro-x1311_dock>
-3.786871

> <Mpro-x0692_dock>
-3.564394

> <Mpro-x1478_dock>
-3.464641

> <Mpro-x1249_dock>
-3.379752

> <Mpro-x0708_dock>
-3.36947

> <Mpro-x1385_dock>
-3.13808

> <Mpro-x0107_dock>
-3.057531

> <Mpro-x0305_dock>
-2.745316

> <Mpro-x1358_dock>
-2.580158

> <Mpro-x1351_dock>
-2.568502

> <Mpro-x0770_dock>
-2.544908

> <Mpro-x1348_dock>
-2.502528

> <Mpro-x0387_dock>
-2.499228

> <Mpro-x1334_dock>
-2.454901

> <Mpro-x0395_dock>
-2.408239

> <Mpro-x1458_dock>
-2.070916

> <Mpro-x0978_dock>
-2.003026

> <Mpro-x0731_dock>
-1.899081

> <Mpro-x1187_dock>
-1.770764

> <Mpro-x1402_dock>
-1.668446

> <Mpro-x1412_dock>
-1.640044

> <Mpro-x1308_dock>
-1.600309

> <Mpro-x0736_dock>
-1.539696

> <Mpro-x1493_dock>
-1.47032

> <Mpro-x1384_dock>
-1.440315

> <Mpro-x0755_dock>
-1.348819

> <Mpro-x0769_dock>
-1.340543

> <Mpro-x0820_dock>
-1.276351

> <Mpro-x0771_dock>
-1.230027

> <Mpro-x0354_dock>
-1.189392

> <Mpro-x0774_dock>
-1.034102

> <Mpro-x0752_dock>
-0.98655

> <Mpro-x0734_dock>
-0.894072

> <Mpro-x1425_dock>
-0.75623

> <Mpro-x0691_dock>
-0.631122

> <Mpro-x1380_dock>
-0.532954

> <Mpro-x1382_dock>
-0.310613

> <Mpro-x0689_dock>
-0.196397

> <Mpro-x0786_dock>
0.042131

> <Mpro-x0981_dock>
0.37559

> <Mpro-x0887_dock>
0.386673

> <Mpro-x0705_dock>
0.668011

> <Mpro-x0426_dock>
0.709113

> <Mpro-x0540_dock>
0.801408

> <site>
active-noncovalent

$$$$
GIA-UNK-d2d-4
  -OEChem-04022003013D

 55 57  0     1  0  0  0  0  0999 V2000
    8.4858    7.0277   23.8238 C   0  0  0  0  0  0  0  0  0  0  0  0
    7.2811    7.2797   23.1675 C   0  0  0  0  0  0  0  0  0  0  0  0
    8.9948    5.7300   23.8736 C   0  0  0  0  0  0  0  0  0  0  0  0
    6.5852    6.2339   22.5611 C   0  0  0  0  0  0  0  0  0  0  0  0
    8.2989    4.6841   23.2672 C   0  0  0  0  0  0  0  0  0  0  0  0
    7.0942    4.9361   22.6109 C   0  0  0  0  0  0  0  0  0  0  0  0
    6.3530    3.8222   21.9650 C   0  0  0  0  0  0  0  0  0  0  0  0
    9.3756    0.6578   22.3224 C   0  0  0  0  0  0  0  0  0  0  0  0
    5.2387    0.8693   18.8388 C   0  0  0  0  0  0  0  0  0  0  0  0
    6.3244   -0.1448   18.4981 C   0  0  0  0  0  0  0  0  0  0  0  0
    5.8055    2.0515   19.6177 C   0  0  0  0  0  0  0  0  0  0  0  0
    7.0601   -0.6135   19.7487 C   0  0  0  0  0  0  0  0  0  0  0  0
   10.2001   -1.4902   23.2919 C   0  0  0  0  0  0  0  0  0  0  0  0
   11.0519    0.7243   24.1713 C   0  0  0  0  0  0  0  0  0  0  0  0
   11.4928   -1.6591   22.5029 C   0  0  0  0  0  0  0  0  0  0  0  0
   12.3358    0.5322   23.3731 C   0  0  0  0  0  0  0  0  0  0  0  0
    9.8619   -0.0249   23.5699 C   0  0  0  0  0  0  0  0  0  0  0  0
    6.5516    1.6032   20.8793 C   0  0  1  0  0  0  0  0  0  0  0  0
    7.6338    0.5595   20.5495 C   0  0  1  0  0  0  0  0  0  0  0  0
   13.9397   -1.1876   22.5476 C   0  0  0  0  0  0  0  0  0  0  0  0
    7.1237    2.7524   21.5471 N   0  0  0  0  0  0  0  0  0  0  0  0
    8.2655    0.0641   21.7525 N   0  0  0  0  0  0  0  0  0  0  0  0
   12.6138   -0.9421   23.2138 N   0  3  0  0  0  0  0  0  0  0  0  0
    5.1367    3.9146   21.8214 O   0  0  0  0  0  0  0  0  0  0  0  0
    9.9631    1.6504   21.9087 O   0  0  0  0  0  0  0  0  0  0  0  0
    9.0275    7.8420   24.2960 H   0  0  0  0  0  0  0  0  0  0  0  0
    6.8848    8.2902   23.1290 H   0  0  0  0  0  0  0  0  0  0  0  0
    9.9329    5.5338   24.3844 H   0  0  0  0  0  0  0  0  0  0  0  0
    5.6474    6.4414   22.0523 H   0  0  0  0  0  0  0  0  0  0  0  0
    8.7050    3.6768   23.3124 H   0  0  0  0  0  0  0  0  0  0  0  0
    4.7663    1.2242   17.9159 H   0  0  0  0  0  0  0  0  0  0  0  0
    4.4552    0.3824   19.4293 H   0  0  0  0  0  0  0  0  0  0  0  0
    5.8758   -1.0039   17.9864 H   0  0  0  0  0  0  0  0  0  0  0  0
    7.0379    0.3039   17.7989 H   0  0  0  0  0  0  0  0  0  0  0  0
    6.4642    2.6410   18.9718 H   0  0  0  0  0  0  0  0  0  0  0  0
    4.9826    2.7148   19.9059 H   0  0  0  0  0  0  0  0  0  0  0  0
    6.3892   -1.2119   20.3725 H   0  0  0  0  0  0  0  0  0  0  0  0
    7.8791   -1.2770   19.4515 H   0  0  0  0  0  0  0  0  0  0  0  0
    9.3818   -1.9700   22.7413 H   0  0  0  0  0  0  0  0  0  0  0  0
   10.2923   -2.0246   24.2463 H   0  0  0  0  0  0  0  0  0  0  0  0
   11.2144    0.3744   25.1988 H   0  0  0  0  0  0  0  0  0  0  0  0
   10.8295    1.7963   24.2358 H   0  0  0  0  0  0  0  0  0  0  0  0
   11.7669   -2.7175   22.4405 H   0  0  0  0  0  0  0  0  0  0  0  0
   11.4182   -1.2439   21.4918 H   0  0  0  0  0  0  0  0  0  0  0  0
   12.2769    0.9721   22.3720 H   0  0  0  0  0  0  0  0  0  0  0  0
   13.1851    0.9694   23.9085 H   0  0  0  0  0  0  0  0  0  0  0  0
    9.0277    0.0178   24.2743 H   0  0  0  0  0  0  0  0  0  0  0  0
    5.8307    1.1850   21.5915 H   0  0  0  0  0  0  0  0  0  0  0  0
    8.4427    1.0245   19.9728 H   0  0  0  0  0  0  0  0  0  0  0  0
   13.8902   -0.7686   21.5408 H   0  0  0  0  0  0  0  0  0  0  0  0
   14.7093   -0.6914   23.1419 H   0  0  0  0  0  0  0  0  0  0  0  0
   14.1030   -2.2665   22.5159 H   0  0  0  0  0  0  0  0  0  0  0  0
    8.1317    2.7708   21.6414 H   0  0  0  0  0  0  0  0  0  0  0  0
    7.8746   -0.7596   22.1999 H   0  0  0  0  0  0  0  0  0  0  0  0
   12.6850   -1.3446   24.1584 H   0  0  0  0  0  0  0  0  0  0  0  0
  1  2  1  0  0  0  0
  1  3  2  0  0  0  0
  2  4  2  0  0  0  0
  3  5  1  0  0  0  0
  4  6  1  0  0  0  0
  5  6  2  0  0  0  0
  6  7  1  0  0  0  0
  7 21  1  0  0  0  0
  7 24  2  0  0  0  0
  8 17  1  0  0  0  0
  8 22  1  0  0  0  0
  8 25  2  0  0  0  0
  9 10  1  0  0  0  0
  9 11  1  0  0  0  0
 10 12  1  0  0  0  0
 11 18  1  0  0  0  0
 12 19  1  0  0  0  0
 13 15  1  0  0  0  0
 13 17  1  0  0  0  0
 14 16  1  0  0  0  0
 14 17  1  0  0  0  0
 15 23  1  0  0  0  0
 16 23  1  0  0  0  0
 18 19  1  0  0  0  0
 18 21  1  0  0  0  0
 19 22  1  0  0  0  0
 20 23  1  0  0  0  0
  1 26  1  0  0  0  0
  2 27  1  0  0  0  0
  3 28  1  0  0  0  0
  4 29  1  0  0  0  0
  5 30  1  0  0  0  0
  9 31  1  0  0  0  0
  9 32  1  0  0  0  0
 10 33  1  0  0  0  0
 10 34  1  0  0  0  0
 11 35  1  0  0  0  0
 11 36  1  0  0  0  0
 12 37  1  0  0  0  0
 12 38  1  0  0  0  0
 13 39  1  0  0  0  0
 13 40  1  0  0  0  0
 14 41  1  0  0  0  0
 14 42  1  0  0  0  0
 15 43  1  0  0  0  0
 15 44  1  0  0  0  0
 16 45  1  0  0  0  0
 16 46  1  0  0  0  0
 17 47  1  0  0  0  0
 18 48  1  0  0  0  0
 19 49  1  0  0  0  0
 20 50  1  0  0  0  0
 20 51  1  0  0  0  0
 20 52  1  0  0  0  0
 21 53  1  0  0  0  0
 22 54  1  0  0  0  0
 23 55  1  0  0  0  0
M  CHG  1  23   1
M  END
> <Hybrid2>
-6.880795

> <fragments>
x0967

> <Mpro-x0967_dock>
-6.880795

> <Mpro-x0946_dock>
-6.470418

> <Mpro-x0195_dock>
-6.205394

> <Mpro-x0874_dock>
-5.977001

> <Mpro-x0831_dock>
-5.974057

> <Mpro-x1093_dock>
-5.958524

> <Mpro-x0434_dock>
-5.611615

> <Mpro-x1418_dock>
-5.52078

> <Mpro-x0678_dock>
-5.397162

> <Mpro-x1386_dock>
-5.240296

> <Mpro-x1077_dock>
-5.144155

> <Mpro-x0759_dock>
-4.784945

> <Mpro-x0692_dock>
-4.605272

> <Mpro-x0161_dock>
-4.417894

> <Mpro-x1392_dock>
-4.356248

> <Mpro-x0072_dock>
-4.336916

> <Mpro-x1385_dock>
-4.326258

> <Mpro-x0736_dock>
-4.261312

> <Mpro-x0107_dock>
-4.032421

> <Mpro-x0305_dock>
-3.978293

> <Mpro-x0395_dock>
-3.799699

> <Mpro-x0749_dock>
-3.734606

> <Mpro-x0387_dock>
-3.680805

> <Mpro-x0770_dock>
-3.479984

> <Mpro-x0830_dock>
-3.177326

> <Mpro-x1334_dock>
-3.157752

> <Mpro-x0104_dock>
-3.08749

> <Mpro-x0708_dock>
-2.938936

> <Mpro-x1375_dock>
-2.860935

> <Mpro-x0397_dock>
-2.436036

> <Mpro-x1187_dock>
-2.329103

> <Mpro-x1493_dock>
-2.207623

> <Mpro-x1311_dock>
-2.154162

> <Mpro-x1458_dock>
-2.09516

> <Mpro-x1358_dock>
-1.961202

> <Mpro-x1249_dock>
-1.946101

> <Mpro-x1412_dock>
-1.703349

> <Mpro-x1384_dock>
-1.675346

> <Mpro-x1374_dock>
-1.652376

> <Mpro-x0734_dock>
-1.561386

> <Mpro-x1425_dock>
-1.509871

> <Mpro-x1478_dock>
-1.500461

> <Mpro-x1382_dock>
-1.453062

> <Mpro-x1380_dock>
-1.302306

> <Mpro-x0705_dock>
-1.257079

> <Mpro-x0354_dock>
-1.182771

> <Mpro-x0820_dock>
-0.782597

> <Mpro-x1348_dock>
-0.367284

> <Mpro-x0981_dock>
-0.33161

> <Mpro-x0769_dock>
-0.2713

> <Mpro-x0540_dock>
-0.117092

> <Mpro-x1351_dock>
0.025824

> <Mpro-x0774_dock>
0.228007

> <Mpro-x0689_dock>
0.241324

> <Mpro-x0691_dock>
0.523667

> <Mpro-x0887_dock>
0.582255

> <Mpro-x1308_dock>
0.665097

> <Mpro-x0786_dock>
0.713684

> <Mpro-x1402_dock>
0.786877

> <Mpro-x0426_dock>
1.022485

> <Mpro-x0771_dock>
1.07242

> <Mpro-x0731_dock>
1.09812

> <Mpro-x0752_dock>
1.114611

> <Mpro-x0755_dock>
1.447793

> <Mpro-x0978_dock>
2.981867

> <site>
active-noncovalent

$$$$
BAR-COM-4e0-7
  -OEChem-04022003013D

 45 47  0     1  0  0  0  0  0999 V2000
   14.8670   -2.0027   21.7420 C   0  0  0  0  0  0  0  0  0  0  0  0
   14.2913   -2.1634   23.0023 C   0  0  0  0  0  0  0  0  0  0  0  0
   14.8355   -0.7573   21.1145 C   0  0  0  0  0  0  0  0  0  0  0  0
    8.5785   -3.7559   23.8164 C   0  0  0  0  0  0  0  0  0  0  0  0
   13.6840   -1.0787   23.6350 C   0  0  0  0  0  0  0  0  0  0  0  0
   14.2282    0.3274   21.7472 C   0  0  0  0  0  0  0  0  0  0  0  0
    9.3271   -3.0774   22.8252 C   0  0  0  0  0  0  0  0  0  0  0  0
    8.6408    6.6574   22.2711 C   0  0  0  0  0  0  0  0  0  0  0  0
    8.5799   -2.9383   24.9225 C   0  0  0  0  0  0  0  0  0  0  0  0
    7.9746    6.4915   23.4599 C   0  0  0  0  0  0  0  0  0  0  0  0
   13.6525    0.1667   23.0075 C   0  0  0  0  0  0  0  0  0  0  0  0
    9.7324   -1.8935   23.3962 C   0  0  0  0  0  0  0  0  0  0  0  0
    9.9758    5.7531   23.6212 C   0  0  0  0  0  0  0  0  0  0  0  0
   10.5408   -0.7674   22.8619 C   0  0  0  0  0  0  0  0  0  0  0  0
   10.8908    2.6466   24.0963 C   0  0  0  0  0  0  0  0  0  0  0  0
   12.3558    6.0353   24.4262 C   0  0  0  0  0  0  0  0  0  0  0  0
   12.9954    1.3406   23.6915 C   0  0  0  0  0  0  0  0  0  0  0  0
   11.1394    5.1149   24.3489 C   0  0  2  0  0  0  0  0  0  0  0  0
   11.5051    1.4650   23.3543 C   0  0  1  0  0  0  0  0  0  0  0  0
    9.9227    6.1826   22.3807 N   0  0  0  0  0  0  0  0  0  0  0  0
   10.7611    0.2902   23.7333 N   0  0  0  0  0  0  0  0  0  0  0  0
   11.4979    3.8471   23.7548 N   0  0  0  0  0  0  0  0  0  0  0  0
   10.9454   -0.8161   21.7032 O   0  0  0  0  0  0  0  0  0  0  0  0
    9.9942    2.5217   24.9278 O   0  0  0  0  0  0  0  0  0  0  0  0
    9.2810   -1.8010   24.6746 O   0  0  0  0  0  0  0  0  0  0  0  0
    8.8314    5.9059   24.3422 O   0  0  0  0  0  0  0  0  0  0  0  0
   15.3410   -2.8470   21.2500 H   0  0  0  0  0  0  0  0  0  0  0  0
   14.3167   -3.1327   23.4915 H   0  0  0  0  0  0  0  0  0  0  0  0
   15.2846   -0.6316   20.1337 H   0  0  0  0  0  0  0  0  0  0  0  0
    8.0987   -4.7204   23.7350 H   0  0  0  0  0  0  0  0  0  0  0  0
   13.2378   -1.2133   24.6169 H   0  0  0  0  0  0  0  0  0  0  0  0
   14.2084    1.2939   21.2507 H   0  0  0  0  0  0  0  0  0  0  0  0
    9.5422   -3.4133   21.8208 H   0  0  0  0  0  0  0  0  0  0  0  0
    8.2708    7.0884   21.3528 H   0  0  0  0  0  0  0  0  0  0  0  0
    8.1520   -3.0174   25.9112 H   0  0  0  0  0  0  0  0  0  0  0  0
    6.9823    6.7119   23.8229 H   0  0  0  0  0  0  0  0  0  0  0  0
   12.7083    6.3083   23.4256 H   0  0  0  0  0  0  0  0  0  0  0  0
   12.1055    6.9583   24.9613 H   0  0  0  0  0  0  0  0  0  0  0  0
   13.1897    5.5686   24.9626 H   0  0  0  0  0  0  0  0  0  0  0  0
   13.1341    1.2601   24.7782 H   0  0  0  0  0  0  0  0  0  0  0  0
   13.5321    2.2530   23.3997 H   0  0  0  0  0  0  0  0  0  0  0  0
   10.8350    4.8782   25.3758 H   0  0  0  0  0  0  0  0  0  0  0  0
   11.3510    1.5984   22.2771 H   0  0  0  0  0  0  0  0  0  0  0  0
   10.3393    0.2846   24.6582 H   0  0  0  0  0  0  0  0  0  0  0  0
   12.2311    3.8340   23.0519 H   0  0  0  0  0  0  0  0  0  0  0  0
  1  2  1  0  0  0  0
  1  3  2  0  0  0  0
  2  5  2  0  0  0  0
  3  6  1  0  0  0  0
  4  7  1  0  0  0  0
  4  9  2  0  0  0  0
  5 11  1  0  0  0  0
  6 11  2  0  0  0  0
  7 12  2  0  0  0  0
  8 10  2  0  0  0  0
  8 20  1  0  0  0  0
  9 25  1  0  0  0  0
 10 26  1  0  0  0  0
 11 17  1  0  0  0  0
 12 14  1  0  0  0  0
 12 25  1  0  0  0  0
 13 18  1  0  0  0  0
 13 20  2  0  0  0  0
 13 26  1  0  0  0  0
 14 21  1  0  0  0  0
 14 23  2  0  0  0  0
 15 19  1  0  0  0  0
 15 22  1  0  0  0  0
 15 24  2  0  0  0  0
 16 18  1  0  0  0  0
 17 19  1  0  0  0  0
 18 22  1  0  0  0  0
 19 21  1  0  0  0  0
  1 27  1  0  0  0  0
  2 28  1  0  0  0  0
  3 29  1  0  0  0  0
  4 30  1  0  0  0  0
  5 31  1  0  0  0  0
  6 32  1  0  0  0  0
  7 33  1  0  0  0  0
  8 34  1  0  0  0  0
  9 35  1  0  0  0  0
 10 36  1  0  0  0  0
 16 37  1  0  0  0  0
 16 38  1  0  0  0  0
 16 39  1  0  0  0  0
 17 40  1  0  0  0  0
 17 41  1  0  0  0  0
 18 42  1  0  0  0  0
 19 43  1  0  0  0  0
 21 44  1  0  0  0  0
 22 45  1  0  0  0  0
M  END
> <Hybrid2>
-6.777131

> <fragments>
x0195

> <Mpro-x0195_dock>
-6.777131

> <Mpro-x0678_dock>
-6.621742

> <Mpro-x0874_dock>
-6.069962

> <Mpro-x0434_dock>
-6.029613

> <Mpro-x0107_dock>
-5.464025

> <Mpro-x1077_dock>
-5.374341

> <Mpro-x1392_dock>
-4.262508

> <Mpro-x0397_dock>
-4.113984

> <Mpro-x0946_dock>
-4.100214

> <Mpro-x0749_dock>
-4.043799

> <Mpro-x0104_dock>
-3.790545

> <Mpro-x1093_dock>
-3.729367

> <Mpro-x0395_dock>
-3.635737

> <Mpro-x1375_dock>
-3.628199

> <Mpro-x0161_dock>
-3.467081

> <Mpro-x0072_dock>
-3.436246

> <Mpro-x0387_dock>
-3.186435

> <Mpro-x1249_dock>
-3.110851

> <Mpro-x1385_dock>
-3.105693

> <Mpro-x0967_dock>
-3.097371

> <Mpro-x1348_dock>
-2.924906

> <Mpro-x1358_dock>
-2.629397

> <Mpro-x1311_dock>
-2.396044

> <Mpro-x1382_dock>
-2.390683

> <Mpro-x0354_dock>
-2.237478

> <Mpro-x1374_dock>
-2.073632

> <Mpro-x1412_dock>
-1.97511

> <Mpro-x0774_dock>
-1.850308

> <Mpro-x0831_dock>
-1.800989

> <Mpro-x0830_dock>
-1.797201

> <Mpro-x1187_dock>
-1.675687

> <Mpro-x1380_dock>
-1.639284

> <Mpro-x0540_dock>
-1.597069

> <Mpro-x0692_dock>
-1.518987

> <Mpro-x0734_dock>
-1.404214

> <Mpro-x1418_dock>
-1.402241

> <Mpro-x0770_dock>
-1.350387

> <Mpro-x1458_dock>
-1.346006

> <Mpro-x1351_dock>
-1.311908

> <Mpro-x1386_dock>
-1.308639

> <Mpro-x0820_dock>
-1.164839

> <Mpro-x1425_dock>
-1.097015

> <Mpro-x1384_dock>
-1.085322

> <Mpro-x1493_dock>
-1.01454

> <Mpro-x0708_dock>
-0.998344

> <Mpro-x0759_dock>
-0.91997

> <Mpro-x1478_dock>
-0.846806

> <Mpro-x1334_dock>
-0.798191

> <Mpro-x0305_dock>
-0.584746

> <Mpro-x0978_dock>
-0.242616

> <Mpro-x0731_dock>
0.041077

> <Mpro-x0736_dock>
0.310449

> <Mpro-x0786_dock>
0.623969

> <Mpro-x0771_dock>
0.715885

> <Mpro-x0705_dock>
0.889321

> <Mpro-x0769_dock>
1.020611

> <Mpro-x0981_dock>
1.11129

> <Mpro-x0691_dock>
1.472061

> <Mpro-x0887_dock>
1.722487

> <Mpro-x1402_dock>
1.975626

> <Mpro-x0689_dock>
2.315608

> <Mpro-x0755_dock>
2.459963

> <Mpro-x0426_dock>
2.508293

> <Mpro-x1308_dock>
3.429101

> <Mpro-x0752_dock>
3.837421

> <site>
active-noncovalent

$$$$
VIJ-CYC-1a3-13
  -OEChem-04022003013D

 44 45  0     0  0  0  0  0  0999 V2000
    8.6701    4.3427   24.9095 C   0  0  0  0  0  0  0  0  0  0  0  0
    8.4297    6.0468   23.2138 C   0  0  0  0  0  0  0  0  0  0  0  0
   10.0373    4.2703   24.6429 C   0  0  0  0  0  0  0  0  0  0  0  0
    9.7969    5.9744   22.9472 C   0  0  0  0  0  0  0  0  0  0  0  0
    7.8662    5.2309   24.1949 C   0  0  0  0  0  0  0  0  0  0  0  0
   10.6007    5.0862   23.6618 C   0  0  0  0  0  0  0  0  0  0  0  0
   12.8856    0.1335   23.1742 C   0  0  0  0  0  0  0  0  0  0  0  0
   11.5491    0.4732   23.1557 C   0  0  0  0  0  0  0  0  0  0  0  0
   12.3878    2.4000   22.5282 C   0  0  0  0  0  0  0  0  0  0  0  0
   13.5220   -1.0985   23.5039 C   0  0  0  0  0  0  0  0  0  0  0  0
   10.5186   -0.9484   24.9621 C   0  0  0  0  0  0  0  0  0  0  0  0
   10.3700   -1.6706   22.5553 C   0  0  0  0  0  0  0  0  0  0  0  0
    8.9883    0.2206   23.3894 C   0  0  0  0  0  0  0  0  0  0  0  0
   14.4822   -2.3871   25.2991 C   0  0  0  0  0  0  0  0  0  0  0  0
    6.4043    5.3081   24.4792 C   0  0  0  0  0  0  0  0  0  0  0  0
   10.3738   -0.4543   23.5064 C   0  0  0  0  0  0  0  0  0  0  0  0
   11.2617    1.7726   22.7859 N   0  0  0  0  0  0  0  0  0  0  0  0
   12.4105    3.7966   22.1106 N   0  0  0  0  0  0  0  0  0  0  0  0
   13.7867   -2.0216   22.6962 O   0  0  0  0  0  0  0  0  0  0  0  0
   12.9692    4.4692   24.5194 O   0  0  0  0  0  0  0  0  0  0  0  0
   12.7516    6.2810   22.7962 O   0  0  0  0  0  0  0  0  0  0  0  0
   13.8366   -1.1933   24.8433 O   0  0  0  0  0  0  0  0  0  0  0  0
    5.7182    5.6671   23.3575 F   0  0  0  0  0  0  0  0  0  0  0  0
   13.8299    1.4877   22.7097 S   0  0  0  0  0  0  0  0  0  0  0  0
   12.3359    4.9961   23.3249 S   0  0  0  0  0  0  0  0  0  0  0  0
    8.2399    3.7030   25.6754 H   0  0  0  0  0  0  0  0  0  0  0  0
    7.8110    6.7415   22.6517 H   0  0  0  0  0  0  0  0  0  0  0  0
   10.6545    3.5745   25.2051 H   0  0  0  0  0  0  0  0  0  0  0  0
   10.2254    6.6143   22.1804 H   0  0  0  0  0  0  0  0  0  0  0  0
    9.6915   -1.6130   25.2380 H   0  0  0  0  0  0  0  0  0  0  0  0
   11.4461   -1.5100   25.1191 H   0  0  0  0  0  0  0  0  0  0  0  0
   10.5200   -0.1076   25.6658 H   0  0  0  0  0  0  0  0  0  0  0  0
    9.5468   -2.3612   22.7687 H   0  0  0  0  0  0  0  0  0  0  0  0
   10.2608   -1.3555   21.5109 H   0  0  0  0  0  0  0  0  0  0  0  0
   11.3048   -2.2378   22.6366 H   0  0  0  0  0  0  0  0  0  0  0  0
    8.1848   -0.4792   23.6488 H   0  0  0  0  0  0  0  0  0  0  0  0
    8.8986    1.0784   24.0661 H   0  0  0  0  0  0  0  0  0  0  0  0
    8.7942    0.5692   22.3683 H   0  0  0  0  0  0  0  0  0  0  0  0
   14.6661   -2.3152   26.3738 H   0  0  0  0  0  0  0  0  0  0  0  0
   15.4267   -2.5182   24.7650 H   0  0  0  0  0  0  0  0  0  0  0  0
   13.8313   -3.2416   25.0994 H   0  0  0  0  0  0  0  0  0  0  0  0
    6.1788    6.0486   25.2555 H   0  0  0  0  0  0  0  0  0  0  0  0
    6.0031    4.3455   24.8176 H   0  0  0  0  0  0  0  0  0  0  0  0
   11.9022    3.9746   21.2438 H   0  0  0  0  0  0  0  0  0  0  0  0
  1  3  2  0  0  0  0
  1  5  1  0  0  0  0
  2  4  1  0  0  0  0
  2  5  2  0  0  0  0
  3  6  1  0  0  0  0
  4  6  2  0  0  0  0
  5 15  1  0  0  0  0
  6 25  1  0  0  0  0
  7  8  2  0  0  0  0
  7 10  1  0  0  0  0
  7 24  1  0  0  0  0
  8 16  1  0  0  0  0
  8 17  1  0  0  0  0
  9 17  2  0  0  0  0
  9 18  1  0  0  0  0
  9 24  1  0  0  0  0
 10 19  2  0  0  0  0
 10 22  1  0  0  0  0
 11 16  1  0  0  0  0
 12 16  1  0  0  0  0
 13 16  1  0  0  0  0
 14 22  1  0  0  0  0
 15 23  1  0  0  0  0
 18 25  1  0  0  0  0
 20 25  2  0  0  0  0
 21 25  2  0  0  0  0
  1 26  1  0  0  0  0
  2 27  1  0  0  0  0
  3 28  1  0  0  0  0
  4 29  1  0  0  0  0
 11 30  1  0  0  0  0
 11 31  1  0  0  0  0
 11 32  1  0  0  0  0
 12 33  1  0  0  0  0
 12 34  1  0  0  0  0
 12 35  1  0  0  0  0
 13 36  1  0  0  0  0
 13 37  1  0  0  0  0
 13 38  1  0  0  0  0
 14 39  1  0  0  0  0
 14 40  1  0  0  0  0
 14 41  1  0  0  0  0
 15 42  1  0  0  0  0
 15 43  1  0  0  0  0
 18 44  1  0  0  0  0
M  END
> <Hybrid2>
-6.340725

> <fragments>
x0161

> <Mpro-x0161_dock>
-6.340725

> <Mpro-x1392_dock>
-6.175076

> <Mpro-x0195_dock>
-5.929872

> <Mpro-x0874_dock>
-5.91126

> <Mpro-x1077_dock>
-5.904389

> <Mpro-x0946_dock>
-5.822111

> <Mpro-x0072_dock>
-5.523393

> <Mpro-x0831_dock>
-5.45746

> <Mpro-x0830_dock>
-5.084291

> <Mpro-x1493_dock>
-5.051267

> <Mpro-x0749_dock>
-4.832008

> <Mpro-x0387_dock>
-4.793922

> <Mpro-x0434_dock>
-4.700798

> <Mpro-x0397_dock>
-4.606161

> <Mpro-x1385_dock>
-4.520902

> <Mpro-x0967_dock>
-4.228723

> <Mpro-x0104_dock>
-4.219713

> <Mpro-x0759_dock>
-3.962024

> <Mpro-x1093_dock>
-3.960073

> <Mpro-x1458_dock>
-3.850258

> <Mpro-x1249_dock>
-3.79926

> <Mpro-x1386_dock>
-3.790224

> <Mpro-x0107_dock>
-3.787908

> <Mpro-x0678_dock>
-3.780138

> <Mpro-x0395_dock>
-3.461416

> <Mpro-x0692_dock>
-3.436582

> <Mpro-x0774_dock>
-3.014102

> <Mpro-x1348_dock>
-2.839122

> <Mpro-x1418_dock>
-2.724425

> <Mpro-x1187_dock>
-2.717218

> <Mpro-x0305_dock>
-2.619594

> <Mpro-x0771_dock>
-2.542067

> <Mpro-x0770_dock>
-2.536845

> <Mpro-x1311_dock>
-2.369539

> <Mpro-x1334_dock>
-2.269418

> <Mpro-x1412_dock>
-1.983872

> <Mpro-x1374_dock>
-1.951941

> <Mpro-x0354_dock>
-1.879744

> <Mpro-x1375_dock>
-1.859544

> <Mpro-x0708_dock>
-1.801688

> <Mpro-x0736_dock>
-1.592322

> <Mpro-x0820_dock>
-1.45807

> <Mpro-x1478_dock>
-1.398546

> <Mpro-x1380_dock>
-1.376359

> <Mpro-x1308_dock>
-1.373349

> <Mpro-x0734_dock>
-1.151361

> <Mpro-x0755_dock>
-1.011596

> <Mpro-x0769_dock>
-0.757119

> <Mpro-x1358_dock>
-0.743781

> <Mpro-x1382_dock>
-0.742486

> <Mpro-x0731_dock>
-0.736565

> <Mpro-x1402_dock>
-0.718023

> <Mpro-x0752_dock>
-0.694173

> <Mpro-x0981_dock>
-0.60831

> <Mpro-x0691_dock>
-0.607677

> <Mpro-x0689_dock>
-0.551946

> <Mpro-x1384_dock>
-0.438084

> <Mpro-x1425_dock>
-0.408349

> <Mpro-x1351_dock>
-0.014834

> <Mpro-x0786_dock>
0.008825

> <Mpro-x0978_dock>
0.834167

> <Mpro-x0705_dock>
0.951408

> <Mpro-x0426_dock>
0.967411

> <Mpro-x0540_dock>
1.228584

> <Mpro-x0887_dock>
2.031266

> <site>
active-noncovalent

$$$$
DAV-UNI-bdc-2
  -OEChem-04022003013D

 84 86  0     1  0  0  0  0  0999 V2000
   13.0061    0.0922   23.7983 C   0  0  0  0  0  0  0  0  0  0  0  0
   13.1719   -0.7260   22.6809 C   0  0  0  0  0  0  0  0  0  0  0  0
   11.8611   -0.0265   24.5860 C   0  0  0  0  0  0  0  0  0  0  0  0
   12.1926   -1.6630   22.3512 C   0  0  0  0  0  0  0  0  0  0  0  0
   10.8817   -0.9634   24.2562 C   0  0  0  0  0  0  0  0  0  0  0  0
   11.0475   -1.7816   23.1388 C   0  0  0  0  0  0  0  0  0  0  0  0
    6.1214    6.6293   22.8491 C   0  0  0  0  0  0  0  0  0  0  0  0
    6.3249    3.4432   22.6170 C   0  0  0  0  0  0  0  0  0  0  0  0
    5.9206   -0.0492   17.8891 C   0  0  0  0  0  0  0  0  0  0  0  0
   13.0546    6.6429   25.1442 C   0  0  0  0  0  0  0  0  0  0  0  0
   12.7784    5.2573   24.5687 C   0  0  0  0  0  0  0  0  0  0  0  0
   11.8868    7.1425   25.9890 C   0  0  0  0  0  0  0  0  0  0  0  0
   11.4670    5.2231   23.7872 C   0  0  0  0  0  0  0  0  0  0  0  0
   10.5739    7.1113   25.2100 C   0  0  0  0  0  0  0  0  0  0  0  0
    7.7740    6.1738   24.6243 C   0  0  0  0  0  0  0  0  0  0  0  0
    8.5931    4.3400   23.3186 C   0  0  0  0  0  0  0  0  0  0  0  0
    6.6000    5.5899   23.8454 C   0  0  2  0  0  0  0  0  0  0  0  0
   10.2881    5.7168   24.6368 C   0  0  0  0  0  0  0  0  0  0  0  0
    8.9987    5.7239   23.8179 C   0  0  2  0  0  0  0  0  0  0  0  0
    6.7446   -1.4451   15.9984 C   0  0  0  0  0  0  0  0  0  0  0  0
    3.4844    3.1763   19.8301 C   0  0  0  0  0  0  0  0  0  0  0  0
    2.5549    0.9253   19.2416 C   0  0  0  0  0  0  0  0  0  0  0  0
    9.9882   -2.7942   22.7827 C   0  0  0  0  0  0  0  0  0  0  0  0
    7.0345    2.2304   22.0701 C   0  0  0  0  0  0  0  0  0  0  0  0
    6.0856   -1.4509   17.3632 C   0  0  0  0  0  0  0  0  0  0  0  0
    8.9071   -2.2525   21.8401 C   0  0  0  0  0  0  0  0  0  0  0  0
    8.0918   -1.1127   22.4591 C   0  0  0  0  0  0  0  0  0  0  0  0
    7.0383   -0.5758   21.4983 C   0  0  0  0  0  0  0  0  0  0  0  0
    3.7824    1.8381   19.1509 C   0  0  0  0  0  0  0  0  0  0  0  0
    5.0419    1.1811   19.7537 C   0  0  2  0  0  0  0  0  0  0  0  0
    7.1400    4.4039   23.1921 N   0  0  0  0  0  0  0  0  0  0  0  0
    6.9929    7.0318   22.0295 O   0  5  0  0  0  0  0  0  0  0  0  0
    4.9081    6.9589   22.9691 O   0  0  0  0  0  0  0  0  0  0  0  0
    5.0994    3.5390   22.5315 O   0  0  0  0  0  0  0  0  0  0  0  0
    6.2950    0.9501   17.2900 O   0  0  0  0  0  0  0  0  0  0  0  0
    5.5951    0.4632   23.5826 O   0  0  0  0  0  0  0  0  0  0  0  0
    5.2951   -0.0806   19.1000 O   0  0  0  0  0  0  0  0  0  0  0  0
    4.8355    0.9642   21.1481 O   0  0  0  0  0  0  0  0  0  0  0  0
    6.0585    0.7444   22.1814 P   0  0  1  0  0  0  0  0  0  0  0  0
   13.7694    0.8208   24.0557 H   0  0  0  0  0  0  0  0  0  0  0  0
   14.0640   -0.6345   22.0681 H   0  0  0  0  0  0  0  0  0  0  0  0
   11.7322    0.6097   25.4567 H   0  0  0  0  0  0  0  0  0  0  0  0
   12.3302   -2.2962   21.4786 H   0  0  0  0  0  0  0  0  0  0  0  0
    9.9928   -1.0487   24.8756 H   0  0  0  0  0  0  0  0  0  0  0  0
   13.9649    6.6141   25.7537 H   0  0  0  0  0  0  0  0  0  0  0  0
   13.2393    7.3479   24.3244 H   0  0  0  0  0  0  0  0  0  0  0  0
   13.6055    4.9591   23.9146 H   0  0  0  0  0  0  0  0  0  0  0  0
   12.7361    4.5247   25.3842 H   0  0  0  0  0  0  0  0  0  0  0  0
   11.7928    6.5197   26.8872 H   0  0  0  0  0  0  0  0  0  0  0  0
   12.0897    8.1644   26.3293 H   0  0  0  0  0  0  0  0  0  0  0  0
   11.5668    5.8463   22.8891 H   0  0  0  0  0  0  0  0  0  0  0  0
   11.2775    4.1993   23.4430 H   0  0  0  0  0  0  0  0  0  0  0  0
    9.7543    7.4201   25.8699 H   0  0  0  0  0  0  0  0  0  0  0  0
   10.6204    7.8470   24.3967 H   0  0  0  0  0  0  0  0  0  0  0  0
    7.7401    7.2641   24.7214 H   0  0  0  0  0  0  0  0  0  0  0  0
    7.7992    5.7416   25.6324 H   0  0  0  0  0  0  0  0  0  0  0  0
    9.0549    4.0908   22.3590 H   0  0  0  0  0  0  0  0  0  0  0  0
    8.8298    3.5512   24.0415 H   0  0  0  0  0  0  0  0  0  0  0  0
    5.7628    5.3211   24.4976 H   0  0  0  0  0  0  0  0  0  0  0  0
   10.1482    5.0204   25.4735 H   0  0  0  0  0  0  0  0  0  0  0  0
    9.1259    6.3929   22.9566 H   0  0  0  0  0  0  0  0  0  0  0  0
    6.1436   -0.8841   15.2750 H   0  0  0  0  0  0  0  0  0  0  0  0
    7.7352   -0.9837   16.0544 H   0  0  0  0  0  0  0  0  0  0  0  0
    6.8634   -2.4629   15.6124 H   0  0  0  0  0  0  0  0  0  0  0  0
    3.2924    3.0528   20.9011 H   0  0  0  0  0  0  0  0  0  0  0  0
    4.3266    3.8663   19.7131 H   0  0  0  0  0  0  0  0  0  0  0  0
    2.6026    3.6484   19.3838 H   0  0  0  0  0  0  0  0  0  0  0  0
    2.3054    0.6865   20.2807 H   0  0  0  0  0  0  0  0  0  0  0  0
    2.7217   -0.0152   18.7069 H   0  0  0  0  0  0  0  0  0  0  0  0
    1.6816    1.4096   18.7912 H   0  0  0  0  0  0  0  0  0  0  0  0
    9.5209   -3.1898   23.6932 H   0  0  0  0  0  0  0  0  0  0  0  0
   10.4816   -3.6514   22.3066 H   0  0  0  0  0  0  0  0  0  0  0  0
    7.2929    2.4205   21.0248 H   0  0  0  0  0  0  0  0  0  0  0  0
    7.9613    2.0963   22.6347 H   0  0  0  0  0  0  0  0  0  0  0  0
    6.6965   -2.0149   18.0768 H   0  0  0  0  0  0  0  0  0  0  0  0
    5.1061   -1.9402   17.3297 H   0  0  0  0  0  0  0  0  0  0  0  0
    9.3613   -1.9205   20.8994 H   0  0  0  0  0  0  0  0  0  0  0  0
    8.2289   -3.0778   21.5890 H   0  0  0  0  0  0  0  0  0  0  0  0
    7.5936   -1.4718   23.3672 H   0  0  0  0  0  0  0  0  0  0  0  0
    8.7560   -0.2911   22.7497 H   0  0  0  0  0  0  0  0  0  0  0  0
    6.3506   -1.3847   21.2298 H   0  0  0  0  0  0  0  0  0  0  0  0
    7.5048   -0.2220   20.5729 H   0  0  0  0  0  0  0  0  0  0  0  0
    3.9648    2.0287   18.0858 H   0  0  0  0  0  0  0  0  0  0  0  0
    5.9038    1.8423   19.6166 H   0  0  0  0  0  0  0  0  0  0  0  0
  1  2  1  0  0  0  0
  1  3  2  0  0  0  0
  2  4  2  0  0  0  0
  3  5  1  0  0  0  0
  4  6  1  0  0  0  0
  5  6  2  0  0  0  0
  6 23  1  0  0  0  0
  7 17  1  0  0  0  0
  7 32  1  0  0  0  0
  7 33  2  0  0  0  0
  8 24  1  0  0  0  0
  8 31  1  0  0  0  0
  8 34  2  0  0  0  0
  9 25  1  0  0  0  0
  9 35  2  0  0  0  0
  9 37  1  0  0  0  0
 10 11  1  0  0  0  0
 10 12  1  0  0  0  0
 11 13  1  0  0  0  0
 12 14  1  0  0  0  0
 13 18  1  0  0  0  0
 14 18  1  0  0  0  0
 15 17  1  0  0  0  0
 15 19  1  0  0  0  0
 16 19  1  0  0  0  0
 16 31  1  0  0  0  0
 17 31  1  0  0  0  0
 18 19  1  0  0  0  0
 20 25  1  0  0  0  0
 21 29  1  0  0  0  0
 22 29  1  0  0  0  0
 23 26  1  0  0  0  0
 24 39  1  0  0  0  0
 26 27  1  0  0  0  0
 27 28  1  0  0  0  0
 28 39  1  0  0  0  0
 29 30  1  0  0  0  0
 30 37  1  0  0  0  0
 30 38  1  0  0  0  0
 36 39  2  0  0  0  0
 38 39  1  0  0  0  0
  1 40  1  0  0  0  0
  2 41  1  0  0  0  0
  3 42  1  0  0  0  0
  4 43  1  0  0  0  0
  5 44  1  0  0  0  0
 10 45  1  0  0  0  0
 10 46  1  0  0  0  0
 11 47  1  0  0  0  0
 11 48  1  0  0  0  0
 12 49  1  0  0  0  0
 12 50  1  0  0  0  0
 13 51  1  0  0  0  0
 13 52  1  0  0  0  0
 14 53  1  0  0  0  0
 14 54  1  0  0  0  0
 15 55  1  0  0  0  0
 15 56  1  0  0  0  0
 16 57  1  0  0  0  0
 16 58  1  0  0  0  0
 17 59  1  0  0  0  0
 18 60  1  0  0  0  0
 19 61  1  0  0  0  0
 20 62  1  0  0  0  0
 20 63  1  0  0  0  0
 20 64  1  0  0  0  0
 21 65  1  0  0  0  0
 21 66  1  0  0  0  0
 21 67  1  0  0  0  0
 22 68  1  0  0  0  0
 22 69  1  0  0  0  0
 22 70  1  0  0  0  0
 23 71  1  0  0  0  0
 23 72  1  0  0  0  0
 24 73  1  0  0  0  0
 24 74  1  0  0  0  0
 25 75  1  0  0  0  0
 25 76  1  0  0  0  0
 26 77  1  0  0  0  0
 26 78  1  0  0  0  0
 27 79  1  0  0  0  0
 27 80  1  0  0  0  0
 28 81  1  0  0  0  0
 28 82  1  0  0  0  0
 29 83  1  0  0  0  0
 30 84  1  0  0  0  0
M  CHG  1  32  -1
M  END
> <Hybrid2>
-5.121074

> <fragments>
x0967

> <Mpro-x0967_dock>
-5.121074

> <Mpro-x0678_dock>
-3.628268

> <Mpro-x0831_dock>
-3.429403

> <Mpro-x0434_dock>
-2.907298

> <Mpro-x0395_dock>
-2.833766

> <Mpro-x0072_dock>
-2.591792

> <Mpro-x0104_dock>
-2.549213

> <Mpro-x0107_dock>
-2.479492

> <Mpro-x1412_dock>
-1.151022

> <Mpro-x0705_dock>
-1.141223

> <Mpro-x1093_dock>
-0.190861

> <Mpro-x0692_dock>
-0.170298

> <Mpro-x1249_dock>
-0.126157

> <Mpro-x0774_dock>
-0.108228

> <Mpro-x0830_dock>
0.059716

> <Mpro-x1392_dock>
0.286197

> <Mpro-x0689_dock>
0.421178

> <Mpro-x0305_dock>
0.563638

> <Mpro-x0769_dock>
0.781834

> <Mpro-x0820_dock>
0.940165

> <Mpro-x1458_dock>
0.941128

> <Mpro-x1308_dock>
0.977158

> <Mpro-x0161_dock>
0.999065

> <Mpro-x0734_dock>
1.11792

> <Mpro-x0387_dock>
1.306556

> <Mpro-x0749_dock>
1.448207

> <Mpro-x1402_dock>
1.515617

> <Mpro-x1334_dock>
1.520569

> <Mpro-x1385_dock>
1.612872

> <Mpro-x1478_dock>
1.655385

> <Mpro-x0770_dock>
1.680933

> <Mpro-x1418_dock>
1.682137

> <Mpro-x1425_dock>
1.801165

> <Mpro-x0691_dock>
1.88052

> <Mpro-x0755_dock>
1.986911

> <Mpro-x0771_dock>
2.026251

> <Mpro-x0752_dock>
2.332248

> <Mpro-x0887_dock>
2.374234

> <Mpro-x1493_dock>
2.526958

> <Mpro-x1077_dock>
2.81058

> <Mpro-x0354_dock>
2.878024

> <Mpro-x1384_dock>
2.887783

> <Mpro-x0731_dock>
3.256709

> <Mpro-x1358_dock>
4.057158

> <Mpro-x1348_dock>
4.345816

> <Mpro-x0736_dock>
4.41875

> <Mpro-x0540_dock>
4.866922

> <Mpro-x0786_dock>
4.876451

> <Mpro-x0708_dock>
4.93617

> <Mpro-x0759_dock>
4.956623

> <Mpro-x1375_dock>
5.093151

> <Mpro-x1374_dock>
5.093862

> <Mpro-x1187_dock>
5.200131

> <Mpro-x1351_dock>
5.335159

> <Mpro-x1311_dock>
5.346908

> <Mpro-x1380_dock>
5.80959

> <Mpro-x0426_dock>
5.897246

> <Mpro-x0978_dock>
6.677208

> <Mpro-x1386_dock>
7.112862

> <Mpro-x1382_dock>
8.109279

> <Mpro-x0981_dock>
8.548631

> <site>
active-noncovalent

$$$$
ALE-UNK-fca-1
  -OEChem-04022003013D

 94 97  0     1  0  0  0  0  0999 V2000
   13.7108   -0.2498   21.7110 C   0  0  0  0  0  0  0  0  0  0  0  0
    4.3394    2.1015   19.1364 C   0  0  0  0  0  0  0  0  0  0  0  0
   12.6661   -1.1571   21.8867 C   0  0  0  0  0  0  0  0  0  0  0  0
   13.8293    0.8504   22.5604 C   0  0  0  0  0  0  0  0  0  0  0  0
    5.1179    3.1234   19.6797 C   0  0  0  0  0  0  0  0  0  0  0  0
    3.8695    1.0731   19.9534 C   0  0  0  0  0  0  0  0  0  0  0  0
    7.9323   -6.9051   24.3700 C   0  0  0  0  0  0  0  0  0  0  0  0
   11.7398   -0.9643   22.9116 C   0  0  0  0  0  0  0  0  0  0  0  0
   12.9031    1.0432   23.5853 C   0  0  0  0  0  0  0  0  0  0  0  0
    5.4266    3.1170   21.0400 C   0  0  0  0  0  0  0  0  0  0  0  0
    4.1782    1.0667   21.3136 C   0  0  0  0  0  0  0  0  0  0  0  0
    7.2308   -6.7764   23.1714 C   0  0  0  0  0  0  0  0  0  0  0  0
    8.5699   -5.7968   24.9275 C   0  0  0  0  0  0  0  0  0  0  0  0
   11.8583    0.1359   23.7610 C   0  0  0  0  0  0  0  0  0  0  0  0
    4.9567    2.0886   21.8570 C   0  0  0  0  0  0  0  0  0  0  0  0
    7.1668   -5.5393   22.5301 C   0  0  0  0  0  0  0  0  0  0  0  0
    8.5060   -4.5597   24.2862 C   0  0  0  0  0  0  0  0  0  0  0  0
    7.8045   -4.4310   23.0875 C   0  0  0  0  0  0  0  0  0  0  0  0
   12.8479    5.2126   23.3831 C   0  0  0  0  0  0  0  0  0  0  0  0
    7.0722   -0.9089   22.6581 C   0  0  0  0  0  0  0  0  0  0  0  0
    9.9331    3.3438   23.2210 C   0  0  0  0  0  0  0  0  0  0  0  0
   12.8546    4.6438   20.5674 C   0  0  0  0  0  0  0  0  0  0  0  0
   13.9483    5.5173   21.1421 C   0  0  0  0  0  0  0  0  0  0  0  0
   11.5455    5.0140   21.2404 C   0  0  0  0  0  0  0  0  0  0  0  0
    6.4106   -5.4218   21.2478 C   0  0  0  0  0  0  0  0  0  0  0  0
    9.1954   -3.3852   24.8989 C   0  0  0  0  0  0  0  0  0  0  0  0
    8.0268    5.6449   23.8490 C   0  0  0  0  0  0  0  0  0  0  0  0
    9.8518    7.2437   23.2164 C   0  0  0  0  0  0  0  0  0  0  0  0
   10.8555    0.3454   24.8709 C   0  0  0  0  0  0  0  0  0  0  0  0
    5.2909    2.0809   23.3307 C   0  0  0  0  0  0  0  0  0  0  0  0
    6.6692   -2.3614   22.7977 C   0  0  0  0  0  0  0  0  0  0  0  0
    8.4663    0.9692   25.4102 C   0  0  0  0  0  0  0  0  0  0  0  0
   10.4074    4.7798   23.4343 C   0  0  2  0  0  0  0  0  0  0  0  0
    9.3263    5.8140   23.0548 C   0  0  0  0  0  0  0  0  0  0  0  0
    9.6442    1.1922   24.4395 C   0  0  1  0  0  0  0  0  0  0  0  0
    6.5961    1.3275   23.6417 C   0  0  1  0  0  0  0  0  0  0  0  0
    7.1897    1.7318   25.0086 C   0  0  1  0  0  0  0  0  0  0  0  0
   13.9650    5.4320   22.5886 N   0  0  0  0  0  0  0  0  0  0  0  0
   11.6510    4.9577   22.6987 N   0  0  0  0  0  0  0  0  0  0  0  0
    6.3978   -0.1045   23.5608 N   0  0  0  0  0  0  0  0  0  0  0  0
   10.0005    2.5934   24.3849 N   0  0  0  0  0  0  0  0  0  0  0  0
   12.9429    5.2340   24.6136 O   0  0  0  0  0  0  0  0  0  0  0  0
    7.8993   -0.5255   21.8354 O   0  0  0  0  0  0  0  0  0  0  0  0
    9.5712    2.9151   22.1271 O   0  0  0  0  0  0  0  0  0  0  0  0
    6.1838    1.5420   26.0065 O   0  0  0  0  0  0  0  0  0  0  0  0
    7.7425   -3.2119   22.4546 O   0  0  0  0  0  0  0  0  0  0  0  0
   14.4327   -0.4008   20.9137 H   0  0  0  0  0  0  0  0  0  0  0  0
    4.0981    2.1073   18.0775 H   0  0  0  0  0  0  0  0  0  0  0  0
   12.5742   -2.0144   21.2261 H   0  0  0  0  0  0  0  0  0  0  0  0
   14.6432    1.5564   22.4246 H   0  0  0  0  0  0  0  0  0  0  0  0
    5.4830    3.9248   19.0440 H   0  0  0  0  0  0  0  0  0  0  0  0
    3.2625    0.2779   19.5309 H   0  0  0  0  0  0  0  0  0  0  0  0
    7.9819   -7.8683   24.8694 H   0  0  0  0  0  0  0  0  0  0  0  0
   10.9289   -1.6763   23.0409 H   0  0  0  0  0  0  0  0  0  0  0  0
   13.0032    1.9032   24.2421 H   0  0  0  0  0  0  0  0  0  0  0  0
    6.0339    3.9173   21.4546 H   0  0  0  0  0  0  0  0  0  0  0  0
    3.8078    0.2614   21.9424 H   0  0  0  0  0  0  0  0  0  0  0  0
    6.7374   -7.6456   22.7449 H   0  0  0  0  0  0  0  0  0  0  0  0
    9.1142   -5.9071   25.8615 H   0  0  0  0  0  0  0  0  0  0  0  0
   12.7790    4.7944   19.4852 H   0  0  0  0  0  0  0  0  0  0  0  0
   13.0826    3.5840   20.7344 H   0  0  0  0  0  0  0  0  0  0  0  0
   14.9319    5.2095   20.7747 H   0  0  0  0  0  0  0  0  0  0  0  0
   13.7961    6.5695   20.8787 H   0  0  0  0  0  0  0  0  0  0  0  0
   11.2410    6.0306   20.9714 H   0  0  0  0  0  0  0  0  0  0  0  0
   10.7617    4.3215   20.9187 H   0  0  0  0  0  0  0  0  0  0  0  0
    5.3638   -5.1641   21.4462 H   0  0  0  0  0  0  0  0  0  0  0  0
    6.8443   -4.6491   20.6010 H   0  0  0  0  0  0  0  0  0  0  0  0
    6.4381   -6.3625   20.6837 H   0  0  0  0  0  0  0  0  0  0  0  0
   10.2253   -3.3142   24.5302 H   0  0  0  0  0  0  0  0  0  0  0  0
    8.6734   -2.4503   24.6604 H   0  0  0  0  0  0  0  0  0  0  0  0
    9.2205   -3.4665   25.9928 H   0  0  0  0  0  0  0  0  0  0  0  0
    8.1992    5.7657   24.9229 H   0  0  0  0  0  0  0  0  0  0  0  0
    7.2656    6.3690   23.5409 H   0  0  0  0  0  0  0  0  0  0  0  0
    7.6118    4.6427   23.6953 H   0  0  0  0  0  0  0  0  0  0  0  0
   10.1210    7.4437   24.2588 H   0  0  0  0  0  0  0  0  0  0  0  0
   10.7488    7.3966   22.6066 H   0  0  0  0  0  0  0  0  0  0  0  0
    9.1075    7.9852   22.9078 H   0  0  0  0  0  0  0  0  0  0  0  0
   11.3532    0.8089   25.7332 H   0  0  0  0  0  0  0  0  0  0  0  0
   10.5206   -0.6425   25.2138 H   0  0  0  0  0  0  0  0  0  0  0  0
    5.3699    3.1233   23.6659 H   0  0  0  0  0  0  0  0  0  0  0  0
    4.4497    1.6478   23.8865 H   0  0  0  0  0  0  0  0  0  0  0  0
    6.3875   -2.5596   23.8363 H   0  0  0  0  0  0  0  0  0  0  0  0
    5.8156   -2.5785   22.1481 H   0  0  0  0  0  0  0  0  0  0  0  0
    8.7720    1.2636   26.4209 H   0  0  0  0  0  0  0  0  0  0  0  0
    8.2483   -0.1058   25.4323 H   0  0  0  0  0  0  0  0  0  0  0  0
   10.6671    4.8899   24.4948 H   0  0  0  0  0  0  0  0  0  0  0  0
    9.0765    5.6802   21.9940 H   0  0  0  0  0  0  0  0  0  0  0  0
    9.3391    0.9107   23.4250 H   0  0  0  0  0  0  0  0  0  0  0  0
    7.3451    1.5520   22.8713 H   0  0  0  0  0  0  0  0  0  0  0  0
    7.3996    2.8073   24.9866 H   0  0  0  0  0  0  0  0  0  0  0  0
   14.8600    5.5408   23.0557 H   0  0  0  0  0  0  0  0  0  0  0  0
    5.7346   -0.5381   24.1943 H   0  0  0  0  0  0  0  0  0  0  0  0
   10.3361    3.0250   25.2397 H   0  0  0  0  0  0  0  0  0  0  0  0
    6.5507    1.8908   26.8322 H   0  0  0  0  0  0  0  0  0  0  0  0
  1  3  1  0  0  0  0
  1  4  2  0  0  0  0
  2  5  1  0  0  0  0
  2  6  2  0  0  0  0
  3  8  2  0  0  0  0
  4  9  1  0  0  0  0
  5 10  2  0  0  0  0
  6 11  1  0  0  0  0
  7 12  2  0  0  0  0
  7 13  1  0  0  0  0
  8 14  1  0  0  0  0
  9 14  2  0  0  0  0
 10 15  1  0  0  0  0
 11 15  2  0  0  0  0
 12 16  1  0  0  0  0
 13 17  2  0  0  0  0
 14 29  1  0  0  0  0
 15 30  1  0  0  0  0
 16 18  2  0  0  0  0
 16 25  1  0  0  0  0
 17 18  1  0  0  0  0
 17 26  1  0  0  0  0
 18 46  1  0  0  0  0
 19 38  1  0  0  0  0
 19 39  1  0  0  0  0
 19 42  2  0  0  0  0
 20 31  1  0  0  0  0
 20 40  1  0  0  0  0
 20 43  2  0  0  0  0
 21 33  1  0  0  0  0
 21 41  1  0  0  0  0
 21 44  2  0  0  0  0
 22 23  1  0  0  0  0
 22 24  1  0  0  0  0
 23 38  1  0  0  0  0
 24 39  1  0  0  0  0
 27 34  1  0  0  0  0
 28 34  1  0  0  0  0
 29 35  1  0  0  0  0
 30 36  1  0  0  0  0
 31 46  1  0  0  0  0
 32 35  1  0  0  0  0
 32 37  1  0  0  0  0
 33 34  1  0  0  0  0
 33 39  1  0  0  0  0
 35 41  1  0  0  0  0
 36 37  1  0  0  0  0
 36 40  1  0  0  0  0
 37 45  1  0  0  0  0
  1 47  1  0  0  0  0
  2 48  1  0  0  0  0
  3 49  1  0  0  0  0
  4 50  1  0  0  0  0
  5 51  1  0  0  0  0
  6 52  1  0  0  0  0
  7 53  1  0  0  0  0
  8 54  1  0  0  0  0
  9 55  1  0  0  0  0
 10 56  1  0  0  0  0
 11 57  1  0  0  0  0
 12 58  1  0  0  0  0
 13 59  1  0  0  0  0
 22 60  1  0  0  0  0
 22 61  1  0  0  0  0
 23 62  1  0  0  0  0
 23 63  1  0  0  0  0
 24 64  1  0  0  0  0
 24 65  1  0  0  0  0
 25 66  1  0  0  0  0
 25 67  1  0  0  0  0
 25 68  1  0  0  0  0
 26 69  1  0  0  0  0
 26 70  1  0  0  0  0
 26 71  1  0  0  0  0
 27 72  1  0  0  0  0
 27 73  1  0  0  0  0
 27 74  1  0  0  0  0
 28 75  1  0  0  0  0
 28 76  1  0  0  0  0
 28 77  1  0  0  0  0
 29 78  1  0  0  0  0
 29 79  1  0  0  0  0
 30 80  1  0  0  0  0
 30 81  1  0  0  0  0
 31 82  1  0  0  0  0
 31 83  1  0  0  0  0
 32 84  1  0  0  0  0
 32 85  1  0  0  0  0
 33 86  1  0  0  0  0
 34 87  1  0  0  0  0
 35 88  1  0  0  0  0
 36 89  1  0  0  0  0
 37 90  1  0  0  0  0
 38 91  1  0  0  0  0
 40 92  1  0  0  0  0
 41 93  1  0  0  0  0
 45 94  1  0  0  0  0
M  END
> <Hybrid2>
-2.535317

> <fragments>
x0104

> <Mpro-x0104_dock>
-2.535317

> <Mpro-x0967_dock>
-1.731928

> <Mpro-x0072_dock>
-1.111553

> <Mpro-x0434_dock>
-1.035858

> <Mpro-x0678_dock>
-0.247481

> <Mpro-x0305_dock>
0.106075

> <Mpro-x1249_dock>
1.061005

> <Mpro-x1093_dock>
2.283835

> <Mpro-x0395_dock>
2.447219

> <Mpro-x0887_dock>
4.036044

> <Mpro-x0736_dock>
5.09594

> <Mpro-x0820_dock>
5.411501

> <Mpro-x0397_dock>
5.565242

> <Mpro-x0981_dock>
5.902156

> <Mpro-x1425_dock>
5.923374

> <Mpro-x0107_dock>
6.449938

> <Mpro-x0708_dock>
6.50862

> <Mpro-x1392_dock>
6.586721

> <Mpro-x0752_dock>
6.640673

> <Mpro-x1358_dock>
6.67701

> <Mpro-x0540_dock>
6.790349

> <Mpro-x1374_dock>
6.93121

> <Mpro-x0354_dock>
7.188758

> <Mpro-x1351_dock>
7.538982

> <Mpro-x1380_dock>
7.654371

> <Mpro-x1478_dock>
7.923129

> <Mpro-x1458_dock>
8.192112

> <Mpro-x0759_dock>
8.417016

> <Mpro-x1384_dock>
8.488568

> <Mpro-x1348_dock>
8.514227

> <Mpro-x0771_dock>
8.594466

> <Mpro-x1418_dock>
8.786587

> <Mpro-x0705_dock>
8.883733

> <Mpro-x1334_dock>
8.892294

> <Mpro-x0734_dock>
8.92952

> <Mpro-x0426_dock>
9.348229

> <Mpro-x0731_dock>
9.612573

> <Mpro-x1386_dock>
9.82762

> <Mpro-x0978_dock>
9.869902

> <Mpro-x0831_dock>
9.9259

> <Mpro-x0770_dock>
9.929303

> <Mpro-x1385_dock>
10.109603

> <Mpro-x0830_dock>
10.189134

> <Mpro-x0786_dock>
10.222978

> <Mpro-x0769_dock>
10.322503

> <Mpro-x1375_dock>
10.353142

> <Mpro-x1311_dock>
10.442409

> <Mpro-x1308_dock>
10.547485

> <Mpro-x1412_dock>
10.690042

> <Mpro-x0755_dock>
10.859583

> <Mpro-x0689_dock>
10.871211

> <Mpro-x0692_dock>
10.930485

> <Mpro-x0691_dock>
11.236529

> <Mpro-x0774_dock>
11.689659

> <Mpro-x0749_dock>
11.89844

> <Mpro-x1402_dock>
11.916492

> <Mpro-x1493_dock>
12.806977

> <Mpro-x1382_dock>
14.471954

> <site>
active-noncovalent

$$$$
ALE-UNK-fca-2
  -OEChem-04022003013D

 98101  0     1  0  0  0  0  0999 V2000
    7.1012   -2.9438   26.8820 C   0  0  0  0  0  0  0  0  0  0  0  0
    7.7348    0.4934   17.8716 C   0  0  0  0  0  0  0  0  0  0  0  0
    6.0467   -2.0700   27.1468 C   0  0  0  0  0  0  0  0  0  0  0  0
    8.3598   -2.4391   26.5552 C   0  0  0  0  0  0  0  0  0  0  0  0
    8.2116    1.6490   18.4903 C   0  0  0  0  0  0  0  0  0  0  0  0
    6.5512   -0.0972   18.3142 C   0  0  0  0  0  0  0  0  0  0  0  0
    6.2507   -0.6916   27.0846 C   0  0  0  0  0  0  0  0  0  0  0  0
    8.5639   -1.0607   26.4930 C   0  0  0  0  0  0  0  0  0  0  0  0
    7.5048    2.2140   19.5519 C   0  0  0  0  0  0  0  0  0  0  0  0
    5.8444    0.4678   19.3758 C   0  0  0  0  0  0  0  0  0  0  0  0
    4.9648   -5.0641   24.4965 C   0  0  0  0  0  0  0  0  0  0  0  0
   14.2645    2.6142   20.7685 C   0  0  0  0  0  0  0  0  0  0  0  0
    3.3796   -5.8065   23.1751 C   0  0  0  0  0  0  0  0  0  0  0  0
    7.5094   -0.1869   26.7578 C   0  0  0  0  0  0  0  0  0  0  0  0
    6.3212    1.6234   19.9946 C   0  0  0  0  0  0  0  0  0  0  0  0
   13.2845    3.2391   21.5109 C   0  0  0  0  0  0  0  0  0  0  0  0
    5.1615   -4.2065   23.4345 C   0  0  0  0  0  0  0  0  0  0  0  0
   13.2140    1.2661   22.4660 C   0  0  0  0  0  0  0  0  0  0  0  0
    9.1469    3.3350   24.1522 C   0  0  0  0  0  0  0  0  0  0  0  0
   12.0396    5.4987   23.5744 C   0  0  0  0  0  0  0  0  0  0  0  0
    6.2621   -0.7642   22.8958 C   0  0  0  0  0  0  0  0  0  0  0  0
   11.7200   -0.7413   22.7692 C   0  0  0  0  0  0  0  0  0  0  0  0
   12.3746    0.6555   24.7631 C   0  0  0  0  0  0  0  0  0  0  0  0
    9.1636    7.2028   24.5376 C   0  0  0  0  0  0  0  0  0  0  0  0
    8.4178    5.9753   22.4823 C   0  0  0  0  0  0  0  0  0  0  0  0
   14.2874    6.1514   22.6799 C   0  0  0  0  0  0  0  0  0  0  0  0
    7.7310    1.3057   26.6901 C   0  0  0  0  0  0  0  0  0  0  0  0
    5.5551    2.2348   21.1448 C   0  0  0  0  0  0  0  0  0  0  0  0
   12.8326    4.6614   21.3461 C   0  0  0  0  0  0  0  0  0  0  0  0
    6.1662   -3.1053   23.2624 C   0  0  0  0  0  0  0  0  0  0  0  0
    5.9536    2.0983   25.0775 C   0  0  0  0  0  0  0  0  0  0  0  0
   12.8210    0.1621   23.3685 C   0  0  0  0  0  0  0  0  0  0  0  0
    9.7688    4.7279   24.2274 C   0  0  2  0  0  0  0  0  0  0  0  0
    8.7328    5.8439   23.9756 C   0  0  0  0  0  0  0  0  0  0  0  0
    7.4674    1.8934   25.2917 C   0  0  1  0  0  0  0  0  0  0  0  0
    5.9918    1.6815   22.5127 C   0  0  1  0  0  0  0  0  0  0  0  0
    5.5998    2.6220   23.6728 C   0  0  1  0  0  0  0  0  0  0  0  0
    3.9432   -5.9820   24.3497 N   0  0  0  0  0  0  0  0  0  0  0  0
   12.6806    2.4675   22.4845 N   0  0  0  0  0  0  0  0  0  0  0  0
    8.1787    3.1423   25.1257 N   0  0  0  0  0  0  0  0  0  0  0  0
   10.8798    4.7707   23.3107 N   0  0  0  0  0  0  0  0  0  0  0  0
    5.4682    0.3477   22.7213 N   0  0  0  0  0  0  0  0  0  0  0  0
   13.0209    5.4398   22.5678 N   0  0  0  0  0  0  0  0  0  0  0  0
    9.5041    2.4868   23.3372 O   0  0  0  0  0  0  0  0  0  0  0  0
   12.1788    6.1503   24.6140 O   0  0  0  0  0  0  0  0  0  0  0  0
    7.4886   -0.7778   22.8985 O   0  0  0  0  0  0  0  0  0  0  0  0
    4.1940    2.8685   23.5929 O   0  0  0  0  0  0  0  0  0  0  0  0
    5.4737   -1.8670   23.0681 O   0  0  0  0  0  0  0  0  0  0  0  0
   14.4472    0.9951   21.3038 S   0  0  0  0  0  0  0  0  0  0  0  0
    4.0282   -4.5557   22.1955 S   0  0  0  0  0  0  0  0  0  0  0  0
    6.9424   -4.0171   26.9317 H   0  0  0  0  0  0  0  0  0  0  0  0
    8.2845    0.0543   17.0441 H   0  0  0  0  0  0  0  0  0  0  0  0
    5.0668   -2.4628   27.4023 H   0  0  0  0  0  0  0  0  0  0  0  0
    9.1813   -3.1191   26.3500 H   0  0  0  0  0  0  0  0  0  0  0  0
    9.1326    2.1095   18.1450 H   0  0  0  0  0  0  0  0  0  0  0  0
    6.1791   -0.9963   17.8320 H   0  0  0  0  0  0  0  0  0  0  0  0
    5.4232   -0.0183   27.2923 H   0  0  0  0  0  0  0  0  0  0  0  0
    9.5479   -0.6765   26.2375 H   0  0  0  0  0  0  0  0  0  0  0  0
    7.8840    3.1143   20.0281 H   0  0  0  0  0  0  0  0  0  0  0  0
    4.9232    0.0007   19.7141 H   0  0  0  0  0  0  0  0  0  0  0  0
    5.5424   -5.0639   25.4114 H   0  0  0  0  0  0  0  0  0  0  0  0
   14.8646    3.0152   19.9639 H   0  0  0  0  0  0  0  0  0  0  0  0
    2.5514   -6.4146   22.8380 H   0  0  0  0  0  0  0  0  0  0  0  0
   10.8127   -0.1702   22.5440 H   0  0  0  0  0  0  0  0  0  0  0  0
   11.4414   -1.5522   23.4510 H   0  0  0  0  0  0  0  0  0  0  0  0
   12.0697   -1.1943   21.8348 H   0  0  0  0  0  0  0  0  0  0  0  0
   11.5177    1.3319   24.6684 H   0  0  0  0  0  0  0  0  0  0  0  0
   13.1742    1.1978   25.2793 H   0  0  0  0  0  0  0  0  0  0  0  0
   12.0718   -0.1793   25.4046 H   0  0  0  0  0  0  0  0  0  0  0  0
   10.0962    7.5448   24.0784 H   0  0  0  0  0  0  0  0  0  0  0  0
    8.4000    7.9703   24.3741 H   0  0  0  0  0  0  0  0  0  0  0  0
    9.3371    7.1331   25.6171 H   0  0  0  0  0  0  0  0  0  0  0  0
    9.3150    6.2511   21.9183 H   0  0  0  0  0  0  0  0  0  0  0  0
    8.0516    5.0246   22.0798 H   0  0  0  0  0  0  0  0  0  0  0  0
    7.6509    6.7345   22.2963 H   0  0  0  0  0  0  0  0  0  0  0  0
   15.0301    5.5042   23.1695 H   0  0  0  0  0  0  0  0  0  0  0  0
   14.6443    6.4247   21.6760 H   0  0  0  0  0  0  0  0  0  0  0  0
   14.1439    7.0628   23.2788 H   0  0  0  0  0  0  0  0  0  0  0  0
    8.7545    1.5402   27.0121 H   0  0  0  0  0  0  0  0  0  0  0  0
    7.0693    1.7787   27.4277 H   0  0  0  0  0  0  0  0  0  0  0  0
    5.7067    3.3217   21.1135 H   0  0  0  0  0  0  0  0  0  0  0  0
    4.4813    2.0750   20.9851 H   0  0  0  0  0  0  0  0  0  0  0  0
   13.3919    5.1536   20.5431 H   0  0  0  0  0  0  0  0  0  0  0  0
   11.7716    4.7083   21.0795 H   0  0  0  0  0  0  0  0  0  0  0  0
    6.8092   -3.0202   24.1450 H   0  0  0  0  0  0  0  0  0  0  0  0
    6.8079   -3.2978   22.3959 H   0  0  0  0  0  0  0  0  0  0  0  0
    5.5727    2.7897   25.8381 H   0  0  0  0  0  0  0  0  0  0  0  0
    5.4585    1.1318   25.2336 H   0  0  0  0  0  0  0  0  0  0  0  0
   13.6848   -0.5108   23.5565 H   0  0  0  0  0  0  0  0  0  0  0  0
   10.2010    4.8451   25.2293 H   0  0  0  0  0  0  0  0  0  0  0  0
    7.7971    5.5677   24.4794 H   0  0  0  0  0  0  0  0  0  0  0  0
    7.8552    1.2121   24.5255 H   0  0  0  0  0  0  0  0  0  0  0  0
    7.0827    1.5618   22.5318 H   0  0  0  0  0  0  0  0  0  0  0  0
    6.0896    3.5890   23.5105 H   0  0  0  0  0  0  0  0  0  0  0  0
    7.9650    3.8927   25.7744 H   0  0  0  0  0  0  0  0  0  0  0  0
   10.8158    4.2517   22.4407 H   0  0  0  0  0  0  0  0  0  0  0  0
    4.4620    0.2255   22.7400 H   0  0  0  0  0  0  0  0  0  0  0  0
    3.9953    3.5316   24.2704 H   0  0  0  0  0  0  0  0  0  0  0  0
  1  3  1  0  0  0  0
  1  4  2  0  0  0  0
  2  5  1  0  0  0  0
  2  6  2  0  0  0  0
  3  7  2  0  0  0  0
  4  8  1  0  0  0  0
  5  9  2  0  0  0  0
  6 10  1  0  0  0  0
  7 14  1  0  0  0  0
  8 14  2  0  0  0  0
  9 15  1  0  0  0  0
 10 15  2  0  0  0  0
 11 17  2  0  0  0  0
 11 38  1  0  0  0  0
 12 16  2  0  0  0  0
 12 49  1  0  0  0  0
 13 38  2  0  0  0  0
 13 50  1  0  0  0  0
 14 27  1  0  0  0  0
 15 28  1  0  0  0  0
 16 29  1  0  0  0  0
 16 39  1  0  0  0  0
 17 30  1  0  0  0  0
 17 50  1  0  0  0  0
 18 32  1  0  0  0  0
 18 39  2  0  0  0  0
 18 49  1  0  0  0  0
 19 33  1  0  0  0  0
 19 40  1  0  0  0  0
 19 44  2  0  0  0  0
 20 41  1  0  0  0  0
 20 43  1  0  0  0  0
 20 45  2  0  0  0  0
 21 42  1  0  0  0  0
 21 46  2  0  0  0  0
 21 48  1  0  0  0  0
 22 32  1  0  0  0  0
 23 32  1  0  0  0  0
 24 34  1  0  0  0  0
 25 34  1  0  0  0  0
 26 43  1  0  0  0  0
 27 35  1  0  0  0  0
 28 36  1  0  0  0  0
 29 43  1  0  0  0  0
 30 48  1  0  0  0  0
 31 35  1  0  0  0  0
 31 37  1  0  0  0  0
 33 34  1  0  0  0  0
 33 41  1  0  0  0  0
 35 40  1  0  0  0  0
 36 37  1  0  0  0  0
 36 42  1  0  0  0  0
 37 47  1  0  0  0  0
  1 51  1  0  0  0  0
  2 52  1  0  0  0  0
  3 53  1  0  0  0  0
  4 54  1  0  0  0  0
  5 55  1  0  0  0  0
  6 56  1  0  0  0  0
  7 57  1  0  0  0  0
  8 58  1  0  0  0  0
  9 59  1  0  0  0  0
 10 60  1  0  0  0  0
 11 61  1  0  0  0  0
 12 62  1  0  0  0  0
 13 63  1  0  0  0  0
 22 64  1  0  0  0  0
 22 65  1  0  0  0  0
 22 66  1  0  0  0  0
 23 67  1  0  0  0  0
 23 68  1  0  0  0  0
 23 69  1  0  0  0  0
 24 70  1  0  0  0  0
 24 71  1  0  0  0  0
 24 72  1  0  0  0  0
 25 73  1  0  0  0  0
 25 74  1  0  0  0  0
 25 75  1  0  0  0  0
 26 76  1  0  0  0  0
 26 77  1  0  0  0  0
 26 78  1  0  0  0  0
 27 79  1  0  0  0  0
 27 80  1  0  0  0  0
 28 81  1  0  0  0  0
 28 82  1  0  0  0  0
 29 83  1  0  0  0  0
 29 84  1  0  0  0  0
 30 85  1  0  0  0  0
 30 86  1  0  0  0  0
 31 87  1  0  0  0  0
 31 88  1  0  0  0  0
 32 89  1  0  0  0  0
 33 90  1  0  0  0  0
 34 91  1  0  0  0  0
 35 92  1  0  0  0  0
 36 93  1  0  0  0  0
 37 94  1  0  0  0  0
 40 95  1  0  0  0  0
 41 96  1  0  0  0  0
 42 97  1  0  0  0  0
 47 98  1  0  0  0  0
M  END
> <Hybrid2>
0.619766

> <fragments>
x0104

> <Mpro-x0104_dock>
0.619766

> <Mpro-x0072_dock>
0.727682

> <Mpro-x0434_dock>
1.476881

> <Mpro-x0395_dock>
1.793843

> <Mpro-x1249_dock>
2.67463

> <Mpro-x0305_dock>
3.386697

> <Mpro-x0967_dock>
3.532627

> <Mpro-x0771_dock>
4.479494

> <Mpro-x0678_dock>
4.728552

> <Mpro-x1348_dock>
4.957566

> <Mpro-x0731_dock>
5.027779

> <Mpro-x0755_dock>
5.261302

> <Mpro-x0354_dock>
5.446303

> <Mpro-x0691_dock>
5.735413

> <Mpro-x0887_dock>
5.741451

> <Mpro-x0769_dock>
5.985866

> <Mpro-x1425_dock>
6.013762

> <Mpro-x0689_dock>
6.054924

> <Mpro-x1358_dock>
6.085437

> <Mpro-x1380_dock>
6.267212

> <Mpro-x1351_dock>
6.338985

> <Mpro-x0736_dock>
6.477428

> <Mpro-x1093_dock>
7.289562

> <Mpro-x1384_dock>
7.315769

> <Mpro-x0978_dock>
8.208673

> <Mpro-x0820_dock>
8.236757

> <Mpro-x1308_dock>
8.275985

> <Mpro-x1458_dock>
8.309724

> <Mpro-x1392_dock>
8.427714

> <Mpro-x0830_dock>
8.474123

> <Mpro-x0981_dock>
9.090242

> <Mpro-x0749_dock>
9.444139

> <Mpro-x0831_dock>
9.709358

> <Mpro-x0770_dock>
9.76615

> <Mpro-x0540_dock>
9.797468

> <Mpro-x0734_dock>
9.845055

> <Mpro-x0426_dock>
9.894014

> <Mpro-x0752_dock>
9.911172

> <Mpro-x1493_dock>
10.310462

> <Mpro-x1374_dock>
10.310965

> <Mpro-x1402_dock>
10.782441

> <Mpro-x1311_dock>
11.316414

> <Mpro-x0692_dock>
11.674235

> <Mpro-x0708_dock>
11.726467

> <Mpro-x0705_dock>
11.735304

> <Mpro-x0786_dock>
11.787876

> <Mpro-x0774_dock>
11.919573

> <Mpro-x1418_dock>
12.259591

> <Mpro-x1386_dock>
13.230227

> <Mpro-x1382_dock>
14.728212

> <Mpro-x0759_dock>
14.923101

> <Mpro-x1412_dock>
15.122881

> <Mpro-x1375_dock>
15.211955

> <Mpro-x1334_dock>
16.841063

> <Mpro-x1385_dock>
18.114712

> <Mpro-x1478_dock>
20.843678

> <site>
active-noncovalent

$$$$
