DAR-DIA-fc9-9
 OpenBabel03242009303D

 32 33  0  0  0  0  0  0  0  0999 V2000
   12.7842   -0.3923   22.6615 C   0  0  0  0  0  0  0  0  0  0  0  0
   12.1727    0.0525   23.8336 C   0  0  0  0  0  0  0  0  0  0  0  0
   12.1848   -1.3950   21.8993 C   0  0  0  0  0  0  0  0  0  0  0  0
   10.0045   -4.0545   27.1051 C   0  0  0  0  0  0  0  0  0  0  0  0
   10.9619   -0.5055   24.2436 C   0  0  0  0  0  0  0  0  0  0  0  0
   10.9739   -1.9530   22.3092 C   0  0  0  0  0  0  0  0  0  0  0  0
    9.5360   -3.9422   25.8008 C   0  0  0  0  0  0  0  0  0  0  0  0
    9.0714   -4.2000   28.1190 C   0  0  0  0  0  0  0  0  0  0  0  0
    7.3173   -4.1273   26.6371 C   0  0  0  0  0  0  0  0  0  0  0  0
   10.3624   -1.5082   23.4814 C   0  0  0  0  0  0  0  0  0  0  0  0
    8.1682   -3.9782   25.5537 C   0  0  0  0  0  0  0  0  0  0  0  0
    6.4326   -4.5100   23.8917 C   0  0  0  0  0  0  0  0  0  0  0  0
    8.3936   -3.0798   23.2651 C   0  0  0  0  0  0  0  0  0  0  0  0
    5.9820   -4.3767   22.4538 C   0  0  0  0  0  0  0  0  0  0  0  0
    7.7351   -4.2394   27.9179 N   0  0  0  0  0  0  0  0  0  0  0  0
    9.1346   -2.0737   23.8972 N   0  0  0  0  0  0  0  0  0  0  0  0
    7.6491   -3.8634   24.2054 N   0  0  0  0  0  0  0  0  0  0  0  0
    5.7711   -5.1898   24.6792 O   0  0  0  0  0  0  0  0  0  0  0  0
    8.3808   -3.3096   22.0554 O   0  0  0  0  0  0  0  0  0  0  0  0
   13.7267    0.0425   22.3415 H   0  0  0  0  0  0  0  0  0  0  0  0
   12.6387    0.8337   24.4268 H   0  0  0  0  0  0  0  0  0  0  0  0
   12.6607   -1.7404   20.9861 H   0  0  0  0  0  0  0  0  0  0  0  0
   11.0664   -4.0290   27.3210 H   0  0  0  0  0  0  0  0  0  0  0  0
   10.4945   -0.1508   25.1588 H   0  0  0  0  0  0  0  0  0  0  0  0
   10.5159   -2.7338   21.7071 H   0  0  0  0  0  0  0  0  0  0  0  0
   10.2449   -3.8270   24.9851 H   0  0  0  0  0  0  0  0  0  0  0  0
    9.3857   -4.2908   29.1535 H   0  0  0  0  0  0  0  0  0  0  0  0
    6.2397   -4.1627   26.5078 H   0  0  0  0  0  0  0  0  0  0  0  0
    6.3992   -5.2086   21.8780 H   0  0  0  0  0  0  0  0  0  0  0  0
    6.3513   -3.4371   22.0355 H   0  0  0  0  0  0  0  0  0  0  0  0
    4.8939   -4.4233   22.3617 H   0  0  0  0  0  0  0  0  0  0  0  0
    8.7423   -1.7051   24.7597 H   0  0  0  0  0  0  0  0  0  0  0  0
  1  2  1  0  0  0  0
  1  3  2  0  0  0  0
  1 20  1  0  0  0  0
  2  5  2  0  0  0  0
  2 21  1  0  0  0  0
  3  6  1  0  0  0  0
  3 22  1  0  0  0  0
  4  7  2  0  0  0  0
  4  8  1  0  0  0  0
  4 23  1  0  0  0  0
  5 10  1  0  0  0  0
  5 24  1  0  0  0  0
  6 10  2  0  0  0  0
  6 25  1  0  0  0  0
  7 11  1  0  0  0  0
  7 26  1  0  0  0  0
  8 15  2  0  0  0  0
  8 27  1  0  0  0  0
  9 11  2  0  0  0  0
  9 15  1  0  0  0  0
  9 28  1  0  0  0  0
 10 16  1  0  0  0  0
 11 17  1  0  0  0  0
 12 14  1  0  0  0  0
 12 17  1  0  0  0  0
 12 18  2  0  0  0  0
 13 16  1  0  0  0  0
 13 17  1  0  0  0  0
 13 19  2  0  0  0  0
 14 29  1  0  0  0  0
 14 30  1  0  0  0  0
 14 31  1  0  0  0  0
 16 32  1  0  0  0  0
M  END
>  <Chemgauss4 Score>
-4.58622646331787

>  <Number of Confs>
14

$$$$
