HAR-NEW-972-2
 OpenBabel03242009303D

 43 45  0  0  1  0  0  0  0  0999 V2000
   11.3882   -1.6294   23.2427 C   0  0  0  0  0  0  0  0  0  0  0  0
   10.7309   -0.9423   24.2438 C   0  0  0  0  0  0  0  0  0  0  0  0
   10.0842   -3.2331   23.9644 C   0  0  0  0  0  0  0  0  0  0  0  0
    9.0028   -4.6100   27.7438 C   0  0  0  0  0  0  0  0  0  0  0  0
   12.4114   -0.9996   22.3641 C   0  0  0  0  0  0  0  0  0  0  0  0
   10.9737    0.4802   24.6248 C   0  0  0  0  0  0  0  0  0  0  0  0
   12.9033    0.3363   22.9506 C   0  0  0  0  0  0  0  0  0  0  0  0
    7.1239   -5.5627   24.5499 C   0  0  0  0  0  0  0  0  0  0  0  0
    7.9137   -4.5139   23.7768 C   0  0  0  0  0  0  0  0  0  0  0  0
    7.2835   -5.3466   26.0526 C   0  0  0  0  0  0  0  0  0  0  0  0
    9.7082   -5.2598   25.4637 C   0  0  0  0  0  0  0  0  0  0  0  0
    9.4189   -4.5918   24.1031 C   0  0  2  0  0  0  0  0  0  0  0  0
   11.7643    1.2199   23.5168 C   0  0  1  0  0  0  0  0  0  0  0  0
    7.8667   -4.4988   28.7317 C   0  0  0  0  0  0  0  0  0  0  0  0
   10.8337    1.7180   22.4057 C   0  0  0  0  0  0  0  0  0  0  0  0
   11.0135   -2.9464   23.0775 N   0  0  0  0  0  0  0  0  0  0  0  0
    8.6574   -5.0209   26.4535 N   0  0  0  0  0  0  0  0  0  0  0  0
   10.1926    2.9213   22.8171 N   0  0  0  0  0  0  0  0  0  0  0  0
   10.1495   -4.3318   28.1019 O   0  0  0  0  0  0  0  0  0  0  0  0
    9.6135   -1.9624   25.0234 S   0  0  0  0  0  0  0  0  0  0  0  0
    7.2777   -2.8429   28.6375 Cl  0  0  0  0  0  0  0  0  0  0  0  0
   13.2589   -1.6879   22.2652 H   0  0  0  0  0  0  0  0  0  0  0  0
   12.0027   -0.8340   21.3615 H   0  0  0  0  0  0  0  0  0  0  0  0
   10.0025    0.9712   24.7848 H   0  0  0  0  0  0  0  0  0  0  0  0
   11.5274    0.5401   25.5723 H   0  0  0  0  0  0  0  0  0  0  0  0
   13.6497    0.1274   23.7358 H   0  0  0  0  0  0  0  0  0  0  0  0
   13.4393    0.9000   22.1657 H   0  0  0  0  0  0  0  0  0  0  0  0
    6.0682   -5.5051   24.2795 H   0  0  0  0  0  0  0  0  0  0  0  0
    7.4792   -6.5616   24.2857 H   0  0  0  0  0  0  0  0  0  0  0  0
    7.7541   -4.6509   22.6987 H   0  0  0  0  0  0  0  0  0  0  0  0
    7.5282   -3.5136   24.0223 H   0  0  0  0  0  0  0  0  0  0  0  0
    6.6438   -4.5095   26.3887 H   0  0  0  0  0  0  0  0  0  0  0  0
    6.9237   -6.2403   26.5927 H   0  0  0  0  0  0  0  0  0  0  0  0
    9.8877   -6.3379   25.3108 H   0  0  0  0  0  0  0  0  0  0  0  0
   10.6499   -4.8677   25.8956 H   0  0  0  0  0  0  0  0  0  0  0  0
    9.8982   -5.2361   23.3049 H   0  0  0  0  0  0  0  0  0  0  0  0
   12.2387    2.1116   23.9770 H   0  0  0  0  0  0  0  0  0  0  0  0
    8.2450   -4.7032   29.7268 H   0  0  0  0  0  0  0  0  0  0  0  0
    7.0826   -5.1899   28.4446 H   0  0  0  0  0  0  0  0  0  0  0  0
   11.4482    1.8927   21.5242 H   0  0  0  0  0  0  0  0  0  0  0  0
   10.0996    0.9348   22.2244 H   0  0  0  0  0  0  0  0  0  0  0  0
    9.1948    2.8078   22.7952 H   0  0  0  0  0  0  0  0  0  0  0  0
   10.4701    3.1591   23.7527 H   0  0  0  0  0  0  0  0  0  0  0  0
  1  2  2  0  0  0  0
  1  5  1  0  0  0  0
  1 16  1  0  0  0  0
  2  6  1  0  0  0  0
  2 20  1  0  0  0  0
  3 12  1  0  0  0  0
  3 16  2  0  0  0  0
  3 20  1  0  0  0  0
  4 14  1  0  0  0  0
  4 17  1  0  0  0  0
  4 19  2  0  0  0  0
  5  7  1  0  0  0  0
  5 22  1  0  0  0  0
  5 23  1  0  0  0  0
  6 13  1  0  0  0  0
  6 24  1  0  0  0  0
  6 25  1  0  0  0  0
  7 13  1  0  0  0  0
  7 26  1  0  0  0  0
  7 27  1  0  0  0  0
  8  9  1  0  0  0  0
  8 10  1  0  0  0  0
  8 28  1  0  0  0  0
  8 29  1  0  0  0  0
  9 12  1  0  0  0  0
  9 30  1  0  0  0  0
  9 31  1  0  0  0  0
 10 17  1  0  0  0  0
 10 32  1  0  0  0  0
 10 33  1  0  0  0  0
 11 12  1  0  0  0  0
 11 17  1  0  0  0  0
 11 34  1  0  0  0  0
 11 35  1  0  0  0  0
 12 36  1  6  0  0  0
 13 15  1  0  0  0  0
 13 37  1  1  0  0  0
 14 21  1  0  0  0  0
 14 38  1  0  0  0  0
 14 39  1  0  0  0  0
 15 18  1  0  0  0  0
 15 40  1  0  0  0  0
 15 41  1  0  0  0  0
 18 42  1  0  0  0  0
 18 43  1  0  0  0  0
M  END
>  <Chemgauss4 Score>
-4.59216117858887

>  <Number of Confs>
200

$$$$
