ANN-UNI-263-2
 OpenBabel03242009303D

 25 26  0  0  0  0  0  0  0  0999 V2000
   10.7336   -3.5223   24.7132 C   0  0  0  0  0  0  0  0  0  0  0  0
   11.2671   -2.4894   23.9505 C   0  0  0  0  0  0  0  0  0  0  0  0
    8.6184   -3.1000   23.7110 C   0  0  0  0  0  0  0  0  0  0  0  0
    9.2478   -6.0891   25.9041 C   0  0  0  0  0  0  0  0  0  0  0  0
    7.2171   -5.8921   26.4143 C   0  0  0  0  0  0  0  0  0  0  0  0
    9.3849   -3.8397   24.5971 C   0  0  0  0  0  0  0  0  0  0  0  0
    8.8032   -4.9036   25.3734 C   0  0  0  0  0  0  0  0  0  0  0  0
   10.4164   -1.8103   23.0931 C   0  0  0  0  0  0  0  0  0  0  0  0
   13.2014   -1.3149   21.5954 C   0  0  0  0  0  0  0  0  0  0  0  0
   12.3514   -0.3941   22.4031 C   0  0  0  0  0  0  0  0  0  0  0  0
    8.2270   -6.7178   26.5701 N   0  0  0  0  0  0  0  0  0  0  0  0
    9.1012   -2.0899   22.9533 N   0  0  0  0  0  0  0  0  0  0  0  0
   10.9750   -0.7605   22.3224 N   0  0  0  0  0  0  0  0  0  0  0  0
    7.4875   -4.7663   25.6985 O   0  0  0  0  0  0  0  0  0  0  0  0
   11.3806   -4.0705   25.3935 H   0  0  0  0  0  0  0  0  0  0  0  0
   12.3186   -2.2348   24.0347 H   0  0  0  0  0  0  0  0  0  0  0  0
    7.5591   -3.2978   23.5738 H   0  0  0  0  0  0  0  0  0  0  0  0
   10.2358   -6.5219   25.8453 H   0  0  0  0  0  0  0  0  0  0  0  0
    6.2076   -5.9978   26.7824 H   0  0  0  0  0  0  0  0  0  0  0  0
   12.8854   -1.2774   20.5424 H   0  0  0  0  0  0  0  0  0  0  0  0
   14.2540   -1.0051   21.6735 H   0  0  0  0  0  0  0  0  0  0  0  0
   13.0922   -2.3417   21.9745 H   0  0  0  0  0  0  0  0  0  0  0  0
   12.6734   -0.4373   23.4540 H   0  0  0  0  0  0  0  0  0  0  0  0
   12.4727    0.6315   22.0244 H   0  0  0  0  0  0  0  0  0  0  0  0
   10.3529   -0.2761   21.7081 H   0  0  0  0  0  0  0  0  0  0  0  0
  1  2  2  0  0  0  0
  1  6  1  0  0  0  0
  1 15  1  0  0  0  0
  2  8  1  0  0  0  0
  2 16  1  0  0  0  0
  3  6  2  0  0  0  0
  3 12  1  0  0  0  0
  3 17  1  0  0  0  0
  4  7  2  0  0  0  0
  4 11  1  0  0  0  0
  4 18  1  0  0  0  0
  5 11  2  0  0  0  0
  5 14  1  0  0  0  0
  5 19  1  0  0  0  0
  6  7  1  0  0  0  0
  7 14  1  0  0  0  0
  8 12  2  0  0  0  0
  8 13  1  0  0  0  0
  9 10  1  0  0  0  0
  9 20  1  0  0  0  0
  9 21  1  0  0  0  0
  9 22  1  0  0  0  0
 10 13  1  0  0  0  0
 10 23  1  0  0  0  0
 10 24  1  0  0  0  0
 13 25  1  0  0  0  0
M  END
>  <Chemgauss4 Score>
-5.16400814056396

>  <Number of Confs>
24

$$$$
