TRY-UNI-714-4
 OpenBabel03242009303D

 37 38  0  0  0  0  0  0  0  0999 V2000
    8.6008   -4.5495   28.4843 C   0  0  0  0  0  0  0  0  0  0  0  0
    8.2061   -5.8292   28.1288 C   0  0  0  0  0  0  0  0  0  0  0  0
    8.1712   -5.2944   25.8948 C   0  0  0  0  0  0  0  0  0  0  0  0
    8.7810   -3.6181   27.4678 C   0  0  0  0  0  0  0  0  0  0  0  0
    8.5641   -3.9895   26.1456 C   0  0  0  0  0  0  0  0  0  0  0  0
    8.5515   -3.3208   23.7177 C   0  0  0  0  0  0  0  0  0  0  0  0
   12.9543   -0.8456   22.1019 C   0  0  0  0  0  0  0  0  0  0  0  0
   12.7238   -2.1342   22.8852 C   0  0  0  0  0  0  0  0  0  0  0  0
   11.9428    0.2310   22.4827 C   0  0  0  0  0  0  0  0  0  0  0  0
   11.2893   -2.6356   22.7353 C   0  0  0  0  0  0  0  0  0  0  0  0
   10.5069   -0.2665   22.3324 C   0  0  0  0  0  0  0  0  0  0  0  0
   10.2687   -1.5581   23.1261 C   0  0  0  0  0  0  0  0  0  0  0  0
    9.2058   -2.2308   27.8226 C   0  0  0  0  0  0  0  0  0  0  0  0
    8.8428   -2.0646   22.9171 C   0  0  0  0  0  0  0  0  0  0  0  0
    7.9859   -6.2271   26.8557 N   0  0  0  0  0  0  0  0  0  0  0  0
    8.7344   -3.0785   25.0762 N   0  0  0  0  0  0  0  0  0  0  0  0
    8.2068   -4.3718   23.1876 O   0  0  0  0  0  0  0  0  0  0  0  0
    8.7616   -4.2917   29.5256 H   0  0  0  0  0  0  0  0  0  0  0  0
    8.0517   -6.5927   28.8842 H   0  0  0  0  0  0  0  0  0  0  0  0
    7.9869   -5.6445   24.8834 H   0  0  0  0  0  0  0  0  0  0  0  0
   13.9703   -0.4787   22.2865 H   0  0  0  0  0  0  0  0  0  0  0  0
   12.8782   -1.0535   21.0275 H   0  0  0  0  0  0  0  0  0  0  0  0
   13.4220   -2.9048   22.5391 H   0  0  0  0  0  0  0  0  0  0  0  0
   12.9403   -1.9605   23.9464 H   0  0  0  0  0  0  0  0  0  0  0  0
   12.1140    0.5425   23.5206 H   0  0  0  0  0  0  0  0  0  0  0  0
   12.0940    1.1165   21.8549 H   0  0  0  0  0  0  0  0  0  0  0  0
   11.1237   -2.9474   21.6959 H   0  0  0  0  0  0  0  0  0  0  0  0
   11.1504   -3.5267   23.3592 H   0  0  0  0  0  0  0  0  0  0  0  0
    9.8161    0.5145   22.6721 H   0  0  0  0  0  0  0  0  0  0  0  0
   10.2946   -0.4371   21.2691 H   0  0  0  0  0  0  0  0  0  0  0  0
   10.3942   -1.3349   24.1941 H   0  0  0  0  0  0  0  0  0  0  0  0
   10.2995   -2.1588   27.8304 H   0  0  0  0  0  0  0  0  0  0  0  0
    8.8123   -1.5002   27.1053 H   0  0  0  0  0  0  0  0  0  0  0  0
    8.8292   -1.9419   28.8117 H   0  0  0  0  0  0  0  0  0  0  0  0
    8.6929   -2.2784   21.8557 H   0  0  0  0  0  0  0  0  0  0  0  0
    8.1397   -1.2829   23.2160 H   0  0  0  0  0  0  0  0  0  0  0  0
    9.0243   -2.1407   25.3458 H   0  0  0  0  0  0  0  0  0  0  0  0
  1  2  2  0  0  0  0
  1  4  1  0  0  0  0
  1 18  1  0  0  0  0
  2 15  1  0  0  0  0
  2 19  1  0  0  0  0
  3  5  1  0  0  0  0
  3 15  2  0  0  0  0
  3 20  1  0  0  0  0
  4  5  2  0  0  0  0
  4 13  1  0  0  0  0
  5 16  1  0  0  0  0
  6 14  1  0  0  0  0
  6 16  1  0  0  0  0
  6 17  2  0  0  0  0
  7  8  1  0  0  0  0
  7  9  1  0  0  0  0
  7 21  1  0  0  0  0
  7 22  1  0  0  0  0
  8 10  1  0  0  0  0
  8 23  1  0  0  0  0
  8 24  1  0  0  0  0
  9 11  1  0  0  0  0
  9 25  1  0  0  0  0
  9 26  1  0  0  0  0
 10 12  1  0  0  0  0
 10 27  1  0  0  0  0
 10 28  1  0  0  0  0
 11 12  1  0  0  0  0
 11 29  1  0  0  0  0
 11 30  1  0  0  0  0
 12 14  1  0  0  0  0
 12 31  1  0  0  0  0
 13 32  1  0  0  0  0
 13 33  1  0  0  0  0
 13 34  1  0  0  0  0
 14 35  1  0  0  0  0
 14 36  1  0  0  0  0
 16 37  1  0  0  0  0
M  END
>  <Chemgauss4 Score>
-5.21119546890259

>  <Number of Confs>
36

$$$$
