@<TRIPOS>MOLECULE
*****
   42    44     0     0     0
SMALL
NO_CHARGES

@<TRIPOS>ATOM
      1 C1          5.6080    0.1180   19.6640 C.ar      1 <0>         0.0000
      2 C2         11.5660   -0.2420   23.6180 C.ar      1 <0>         0.0000
      3 C3         10.3990   -1.9080   24.8610 C.ar      1 <0>         0.0000
      4 C4         11.2860   -0.0070   25.9310 C.ar      1 <0>         0.0000
      5 C5          6.0500    0.3050   18.3370 C.ar      1 <0>         0.0000
      6 C6          8.1710   -0.4390   18.9210 C.ar      1 <0>         0.0000
      7 C7          6.4550   -0.3120   20.6780 C.ar      1 <0>         0.0000
      8 C8         10.8590   -1.4150   23.6550 C.ar      1 <0>         0.0000
      9 C9          7.7490   -0.6360   20.3020 C.ar      1 <0>         0.0000
     10 C10        11.8230    0.4740   24.7270 C.ar      1 <0>         0.0000
     11 C11        10.5270   -1.2020   26.0150 C.ar      1 <0>         0.0000
     12 C12        10.0060   -1.3080   21.3000 C.2       1 <0>         0.0000
     13 C13         5.9030   -0.4340   22.1230 C.3       1 <0>         0.0000
     14 C14        10.6500   -2.1780   22.3410 C.3       1 <0>         0.0000
     15 N1          7.3420    0.0820   17.9880 N.ar      1 <0>         0.0000
     16 N2          8.6170   -1.3230   21.1930 N.am      1 <0>         0.0000
     17 O1         10.7020   -0.6160   20.5470 O.2       1 <0>         0.0000
     18 O2         12.5720    1.6270   24.7360 O.3       1 <0>         0.0000
     19 Cl1         9.6440   -1.7480   27.4650 Cl        1 <0>         0.0000
     20 H1          4.5800    0.3670   19.9210 H         1 <0>         0.0000
     21 H2         11.9410    0.1380   22.6770 H         1 <0>         0.0000
     22 H3          9.9850   -2.9130   24.8850 H         1 <0>         0.0000
     23 H4         11.3320    0.6050   26.8310 H         1 <0>         0.0000
     24 H5          5.3840    0.7170   17.5940 H         1 <0>         0.0000
     25 H6          9.1350   -0.8070   18.5800 H         1 <0>         0.0000
     26 H7          6.6170   -0.1470   22.9010 H         1 <0>         0.0000
     27 H8          5.1030    0.2970   22.1990 H         1 <0>         0.0000
     28 H9          5.4680   -1.4220   22.2980 H         1 <0>         0.0000
     29 H10        11.6150   -2.4370   21.8800 H         1 <0>         0.0000
     30 H11        10.1260   -3.1150   22.5550 H         1 <0>         0.0000
     31 H12         8.1960   -1.9050   21.9270 H         1 <0>         0.0000
     32 H13        12.5050    4.2250   25.1090 H         1 <0>         0.0000
     33 H14        11.5310    2.4630   23.0990 H         1 <0>         0.0000
     34 H15        13.5360    2.7060   21.7340 H         1 <0>         0.0000
     35 H16        14.5510    1.9990   22.9680 H         1 <0>         0.0000
     36 N3         12.6410    3.9410   24.1370 N.3       1 <0>         0.0000
     37 O3         14.7990    4.5830   23.9280 O.3       1 <0>         0.0000
     38 C15        12.4620    2.5500   23.6560 C.3       1 <0>         0.0000
     39 C16        13.7360    2.7040   22.8130 C.3       1 <0>         0.0000
     40 C17        13.7600    4.1170   23.4650 C.3       1 <0>         0.0000
     41 H          14.7990    4.5830   23.9280 H         1 <0>         0.0000
     42 H          13.7600    4.1170   23.4650 H         1 <0>         0.0000
@<TRIPOS>BOND
     1    5   24 1
     2    5   15 ar
     3    6   15 ar
     4    1    5 ar
     5    6   25 1
     6    6    9 ar
     7    1   20 1
     8    1    7 ar
     9    7    9 ar
    10    9   16 1
    11   12   17 2
    12    7   13 1
    13   12   16 am
    14   16   31 1
    15   12   14 1
    16   34   39 1
    17   14   29 1
    18   13   27 1
    19   13   28 1
    20   13   26 1
    21   14   30 1
    22    8   14 1
    23    2   21 1
    24   35   39 1
    25   39   40 1
    26   38   39 1
    27   33   38 1
    28   37   40 1
    29   36   40 1
    30    2    8 ar
    31    2   10 ar
    32    3    8 ar
    33   36   38 1
    34   18   38 1
    35   32   36 1
    36   10   18 1
    37    4   10 ar
    38    3   22 1
    39    3   11 ar
    40    4   11 ar
    41    4   23 1
    42   11   19 1
    43   37   41 1
    44   40   42 1
@<TRIPOS>MOLECULE
*****
   40    42     0     0     0
SMALL
NO_CHARGES

@<TRIPOS>ATOM
      1 C1          4.6710    0.3170   19.9110 C.ar      1 <0>         0.0000
      2 C2         11.6760    1.8670   23.3140 C.ar      1 <0>         0.0000
      3 C3         12.1890   -0.2310   22.2230 C.ar      1 <0>         0.0000
      4 C4         13.8860    1.4350   22.3530 C.ar      1 <0>         0.0000
      5 C5          5.2290    0.2780   18.6680 C.ar      1 <0>         0.0000
      6 C6          7.3230   -0.1280   19.5740 C.ar      1 <0>         0.0000
      7 C7          5.4750    0.2050   21.0940 C.ar      1 <0>         0.0000
      8 C8         11.2490    0.5810   22.8940 C.ar      1 <0>         0.0000
      9 C9          6.8180   -0.0200   20.9070 C.ar      1 <0>         0.0000
     10 C10        13.0540    2.2990   23.0330 C.ar      1 <0>         0.0000
     11 C11        13.5010    0.1380   22.0060 C.ar      1 <0>         0.0000
     12 C12         8.8560    0.5470   22.1430 C.2       1 <0>         0.0000
     13 C13         4.8080    0.4280   22.4330 C.3       1 <0>         0.0000
     14 C14         9.8110    0.1380   23.2460 C.3       1 <0>         0.0000
     15 N1          6.5360   -0.0040   18.4790 N.ar      1 <0>         0.0000
     16 N2          7.6520   -0.1680   21.9950 N.am      1 <0>         0.0000
     17 O1          9.0510    1.4650   21.4150 O.2       1 <0>         0.0000
     18 O2         13.5550    3.5500   23.2490 O.3       1 <0>         0.0000
     19 Cl1        14.5350   -0.9900   21.1650 Cl        1 <0>         0.0000
     20 H1          3.6310    0.6090   19.9220 H         1 <0>         0.0000
     21 H2         11.0180    2.5300   23.8680 H         1 <0>         0.0000
     22 H3         11.8460   -1.1360   21.7280 H         1 <0>         0.0000
     23 H4         14.8600    1.8530   22.1010 H         1 <0>         0.0000
     24 H5          4.6070    0.5280   17.8150 H         1 <0>         0.0000
     25 H6          8.3140   -0.5230   19.3910 H         1 <0>         0.0000
     26 H7          4.7530   -0.5190   22.9850 H         1 <0>         0.0000
     27 H8          5.2150    1.2890   22.9700 H         1 <0>         0.0000
     28 H9          3.7630    0.7270   22.3530 H         1 <0>         0.0000
     29 H10         9.8420   -0.9430   23.4210 H         1 <0>         0.0000
     30 H11         9.4420    0.5700   24.1830 H         1 <0>         0.0000
     31 H12         7.4090   -0.7050   22.8330 H         1 <0>         0.0000
     32 C15        12.6810    4.6280   23.4440 C.3       1 <0>         0.0000
     33 C16        11.5430    4.8150   22.4080 C.3       1 <0>         0.0000
     34 C17        12.2190    6.1070   22.2580 C.2       1 <0>         0.0000
     35 H13        13.6810    6.6690   23.6440 H         1 <0>         0.0000
     36 H14        12.3230    4.6910   24.4690 H         1 <0>         0.0000
     37 H15        10.5840    4.8290   22.9300 H         1 <0>         0.0000
     38 H16        11.5250    4.1390   21.5460 H         1 <0>         0.0000
     39 N3         13.2790    5.9270   23.0730 N.am      1 <0>         0.0000
     40 O3         11.6830    7.1480   22.0090 O.2       1 <0>         0.0000
@<TRIPOS>BOND
     1    5   24 1
     2    5   15 ar
     3    6   15 ar
     4    1    5 ar
     5    6   25 1
     6    6    9 ar
     7    1   20 1
     8    1    7 ar
     9    7    9 ar
    10    9   16 1
    11    7   13 1
    12   11   19 1
    13   12   17 2
    14   33   38 1
    15    3   22 1
    16   12   16 am
    17   16   31 1
    18    3   11 ar
    19    4   11 ar
    20   34   40 2
    21    4   23 1
    22   12   14 1
    23    3    8 ar
    24   33   34 1
    25   34   39 am
    26    4   10 ar
    27   13   28 1
    28   33   37 1
    29   32   33 1
    30   13   27 1
    31   13   26 1
    32    8   14 1
    33    2    8 ar
    34   10   18 1
    35    2   10 ar
    36   32   39 1
    37   35   39 1
    38   14   29 1
    39   14   30 1
    40   18   32 1
    41    2   21 1
    42   32   36 1
@<TRIPOS>MOLECULE
*****
   40    42     0     0     0
SMALL
NO_CHARGES

@<TRIPOS>ATOM
      1 C1          5.4090    1.3240   19.4390 C.ar      1 <0>         0.0000
      2 C2         12.0460    1.1650   23.5830 C.ar      1 <0>         0.0000
      3 C3         12.6390   -0.8620   22.4240 C.ar      1 <0>         0.0000
      4 C4         14.3550    0.7340   22.9480 C.ar      1 <0>         0.0000
      5 C5          5.9830    1.1790   18.1650 C.ar      1 <0>         0.0000
      6 C6          7.9750    0.4790   19.0880 C.ar      1 <0>         0.0000
      7 C7          6.1520    1.1020   20.6190 C.ar      1 <0>         0.0000
      8 C8         11.6520   -0.0730   23.0470 C.ar      1 <0>         0.0000
      9 C9          7.4920    0.6370   20.4070 C.ar      1 <0>         0.0000
     10 C10        13.4180    1.5670   23.5330 C.ar      1 <0>         0.0000
     11 C11        13.9000   -0.4590   22.3570 C.ar      1 <0>         0.0000
     12 C12         9.6610    0.2080   21.5920 C.2       1 <0>         0.0000
     13 C13         5.5200    1.2480   21.9750 C.3       1 <0>         0.0000
     14 C14        10.1770   -0.3490   22.8730 C.3       1 <0>         0.0000
     15 N1          7.2470    0.7530   18.0010 N.ar      1 <0>         0.0000
     16 N2          8.2930    0.3610   21.5720 N.am      1 <0>         0.0000
     17 O1         10.4230    0.5790   20.6900 O.2       1 <0>         0.0000
     18 O2         13.7540    2.6920   24.2070 O.3       1 <0>         0.0000
     19 Cl1        15.0870   -1.4340   21.5790 Cl        1 <0>         0.0000
     20 H1          4.4110    1.7740   19.4490 H         1 <0>         0.0000
     21 H2         11.4030    1.8870   24.0610 H         1 <0>         0.0000
     22 H3         12.4960   -1.8760   22.0310 H         1 <0>         0.0000
     23 H4         15.3800    1.0560   23.0720 H         1 <0>         0.0000
     24 H5          5.3730    1.4690   17.3040 H         1 <0>         0.0000
     25 H6          8.9620    0.0380   19.0670 H         1 <0>         0.0000
     26 H7          5.0000    0.3140   22.2120 H         1 <0>         0.0000
     27 H8          6.2510    1.3720   22.7800 H         1 <0>         0.0000
     28 H9          4.7630    2.0380   22.0050 H         1 <0>         0.0000
     29 H10         9.9620   -1.4240   22.7830 H         1 <0>         0.0000
     30 H11         9.6860   -0.0000   23.7850 H         1 <0>         0.0000
     31 H12         7.8400    0.0150   22.4180 H         1 <0>         0.0000
     32 H13        14.9880    4.3110   21.6190 H         1 <0>         0.0000
     33 H14        15.9890    3.5520   22.9180 H         1 <0>         0.0000
     34 N3         13.9340    5.1580   24.1230 N.am      1 <0>         0.0000
     35 O3         16.0120    6.2000   23.6950 O.2       1 <0>         0.0000
     36 C15        13.8030    3.8810   23.4100 C.3       1 <0>         0.0000
     37 C16        15.1190    4.1600   22.6920 C.3       1 <0>         0.0000
     38 C17        15.0710    5.4180   23.4640 C.2       1 <0>         0.0000
     39 H15        13.8810    5.2960   25.1260 H         1 <0>         0.0000
     40 H16        12.9780    3.9010   22.6820 H         1 <0>         0.0000
@<TRIPOS>BOND
     1    5   24 1
     2    5   15 ar
     3    6   15 ar
     4    1    5 ar
     5    6   25 1
     6    6    9 ar
     7    1   20 1
     8    1    7 ar
     9    7    9 ar
    10    9   16 1
    11    7   13 1
    12   12   17 2
    13   12   16 am
    14   16   31 1
    15   11   19 1
    16   12   14 1
    17   32   37 1
    18   13   28 1
    19   13   26 1
    20   13   27 1
    21    3   22 1
    22    3   11 ar
    23    4   11 ar
    24    3    8 ar
    25   36   40 1
    26   33   37 1
    27   36   37 1
    28   37   38 1
    29   14   29 1
    30    8   14 1
    31   14   30 1
    32    4   23 1
    33    4   10 ar
    34    2    8 ar
    35   34   36 1
    36   18   36 1
    37   35   38 2
    38   34   38 am
    39    2   10 ar
    40   10   18 1
    41    2   21 1
    42   34   39 1
@<TRIPOS>MOLECULE
*****
   40    42     0     0     0
SMALL
NO_CHARGES

@<TRIPOS>ATOM
      1 C1          4.5870    1.5310   18.6010 C.ar      1 <0>         0.0000
      2 C2         11.3850    1.1200   23.2080 C.ar      1 <0>         0.0000
      3 C3         11.2360   -1.0860   22.0460 C.ar      1 <0>         0.0000
      4 C4         13.3170   -0.1610   22.6980 C.ar      1 <0>         0.0000
      5 C5          5.2760    1.1860   17.4160 C.ar      1 <0>         0.0000
      6 C6          6.9900    0.4140   18.7470 C.ar      1 <0>         0.0000
      7 C7          5.1050    1.2860   19.8770 C.ar      1 <0>         0.0000
      8 C8         10.5890    0.0830   22.6140 C.ar      1 <0>         0.0000
      9 C9          6.4000    0.7950   19.9340 C.ar      1 <0>         0.0000
     10 C10        12.7460    1.0070   23.1930 C.ar      1 <0>         0.0000
     11 C11        12.5900   -1.2370   22.1490 C.ar      1 <0>         0.0000
     12 C12         8.4590    0.7110   21.3900 C.2       1 <0>         0.0000
     13 C13         4.3000    1.8520   21.0440 C.3       1 <0>         0.0000
     14 C14         9.1000    0.2130   22.6500 C.3       1 <0>         0.0000
     15 N1          6.4750    0.6610   17.5250 N.ar      1 <0>         0.0000
     16 N2          7.0870    0.6870   21.1920 N.am      1 <0>         0.0000
     17 O1          9.2430    1.1400   20.5370 O.2       1 <0>         0.0000
     18 O2         13.6130    1.8880   23.7820 O.3       1 <0>         0.0000
     19 Cl1        13.4710   -2.5580   21.4950 Cl        1 <0>         0.0000
     20 H1          3.5540    1.8760   18.5730 H         1 <0>         0.0000
     21 H2         10.8970    1.9530   23.6950 H         1 <0>         0.0000
     22 H3         10.6930   -1.8290   21.4820 H         1 <0>         0.0000
     23 H4         14.3960   -0.2090   22.7430 H         1 <0>         0.0000
     24 H5          4.7560    1.2940   16.4750 H         1 <0>         0.0000
     25 H6          7.9680   -0.0370   18.6290 H         1 <0>         0.0000
     26 H7          4.6770    1.3420   21.9380 H         1 <0>         0.0000
     27 H8          4.3880    2.9350   21.1810 H         1 <0>         0.0000
     28 H9          3.2350    1.6050   20.9480 H         1 <0>         0.0000
     29 H10         8.6170   -0.7180   22.9740 H         1 <0>         0.0000
     30 H11         8.8520    0.9360   23.4360 H         1 <0>         0.0000
     31 H12         6.4820    0.4470   21.9760 H         1 <0>         0.0000
     32 H13        12.3830    3.1310   24.8530 H         1 <0>         0.0000
     33 H14        11.6630    4.2040   22.7800 H         1 <0>         0.0000
     34 H15        13.0370    3.4570   21.8340 H         1 <0>         0.0000
     35 N3         14.0990    4.1160   24.4520 N.am      1 <0>         0.0000
     36 O3         14.5920    5.5400   22.7710 O.2       1 <0>         0.0000
     37 C15        13.1250    3.1610   24.0430 C.3       1 <0>         0.0000
     38 C16        12.7300    3.9480   22.7680 C.3       1 <0>         0.0000
     39 C17        13.7880    4.8510   23.3700 C.2       1 <0>         0.0000
     40 H16        15.0810    3.8690   24.5240 H         1 <0>         0.0000
@<TRIPOS>BOND
     1    5   24 1
     2    5   15 ar
     3    1    5 ar
     4    6   15 ar
     5    1   20 1
     6    1    7 ar
     7    6   25 1
     8    6    9 ar
     9    7    9 ar
    10    7   13 1
    11    9   16 1
    12   12   17 2
    13   13   28 1
    14   13   27 1
    15   13   26 1
    16   12   16 am
    17   16   31 1
    18   12   14 1
    19    3   22 1
    20   11   19 1
    21   34   38 1
    22    3   11 ar
    23    3    8 ar
    24    4   11 ar
    25    8   14 1
    26    2    8 ar
    27   14   29 1
    28   14   30 1
    29    4   23 1
    30    4   10 ar
    31   33   38 1
    32   38   39 1
    33   37   38 1
    34   36   39 2
    35    2   10 ar
    36   10   18 1
    37    2   21 1
    38   35   39 am
    39   18   37 1
    40   35   37 1
    41   32   37 1
    42   35   40 1
@<TRIPOS>MOLECULE
*****
   40    42     0     0     0
SMALL
NO_CHARGES

@<TRIPOS>ATOM
      1 C1          5.0220    1.2070   19.5160 C.ar      1 <0>         0.0000
      2 C2         11.3160    1.0740   24.0280 C.ar      1 <0>         0.0000
      3 C3         11.7030   -1.1800   23.1490 C.ar      1 <0>         0.0000
      4 C4         13.5930    0.2830   23.4470 C.ar      1 <0>         0.0000
      5 C5          5.7230    0.9150   18.3280 C.ar      1 <0>         0.0000
      6 C6          7.3660    0.0320   19.5870 C.ar      1 <0>         0.0000
      7 C7          5.5520    1.0080   20.7870 C.ar      1 <0>         0.0000
      8 C8         10.8350   -0.1740   23.6230 C.ar      1 <0>         0.0000
      9 C9          6.7630    0.3680   20.8540 C.ar      1 <0>         0.0000
     10 C10        12.7330    1.3030   23.9440 C.ar      1 <0>         0.0000
     11 C11        13.0220   -0.9060   23.0100 C.ar      1 <0>         0.0000
     12 C12         8.7930    0.1850   22.3470 C.2       1 <0>         0.0000
     13 C13         4.8630    1.6170   22.0050 C.3       1 <0>         0.0000
     14 C14         9.3520   -0.4170   23.6520 C.3       1 <0>         0.0000
     15 N1          6.8830    0.3000   18.3790 N.ar      1 <0>         0.0000
     16 N2          7.4330    0.0870   22.0680 N.am      1 <0>         0.0000
     17 O1          9.5710    0.5580   21.4370 O.2       1 <0>         0.0000
     18 O2         13.3670    2.4850   24.2510 O.3       1 <0>         0.0000
     19 Cl1        13.9830   -2.1570   22.2660 Cl        1 <0>         0.0000
     20 H1          4.0810    1.7460   19.4370 H         1 <0>         0.0000
     21 H2         10.6580    1.8410   24.4220 H         1 <0>         0.0000
     22 H3         11.3120   -2.1530   22.8760 H         1 <0>         0.0000
     23 H4         14.6430    0.5270   23.2950 H         1 <0>         0.0000
     24 H5          5.2870    1.0990   17.3510 H         1 <0>         0.0000
     25 H6          8.3630   -0.4120   19.6080 H         1 <0>         0.0000
     26 H7          4.2750    0.7880   22.4130 H         1 <0>         0.0000
     27 H8          5.6520    2.1030   22.5830 H         1 <0>         0.0000
     28 H9          4.2680    2.4520   21.6080 H         1 <0>         0.0000
     29 H10         9.1000   -1.4600   23.8280 H         1 <0>         0.0000
     30 H11         8.9120    0.2120   24.4330 H         1 <0>         0.0000
     31 H12         6.9450   -0.0710   22.9410 H         1 <0>         0.0000
     32 H13        11.7840    3.6110   23.2980 H         1 <0>         0.0000
     33 H14        14.6780    4.2330   22.9940 H         1 <0>         0.0000
     34 H15        13.4170    5.1530   22.2020 H         1 <0>         0.0000
     35 N3         12.5950    4.7070   24.9690 N.am      1 <0>         0.0000
     36 O3         14.2890    6.2860   24.9530 O.2       1 <0>         0.0000
     37 C15        12.7300    3.6680   23.8490 C.3       1 <0>         0.0000
     38 C16        13.6940    4.6840   23.1620 C.3       1 <0>         0.0000
     39 C17        13.4290    5.5480   24.3520 C.2       1 <0>         0.0000
     40 H16        12.6890    4.4620   25.9580 H         1 <0>         0.0000
@<TRIPOS>BOND
     1    5   24 1
     2    5   15 ar
     3    1    5 ar
     4    6   15 ar
     5    1   20 1
     6    1    7 ar
     7    6   25 1
     8    6    9 ar
     9    7    9 ar
    10    7   13 1
    11    9   16 1
    12   12   17 2
    13   13   28 1
    14   13   26 1
    15   13   27 1
    16   12   16 am
    17   16   31 1
    18   34   38 1
    19   11   19 1
    20   12   14 1
    21    3   22 1
    22   33   38 1
    23    3   11 ar
    24    4   11 ar
    25    3    8 ar
    26   37   38 1
    27   38   39 1
    28    4   23 1
    29   32   37 1
    30    4   10 ar
    31    8   14 1
    32    2    8 ar
    33   14   29 1
    34   14   30 1
    35   18   37 1
    36   35   37 1
    37    2   10 ar
    38   10   18 1
    39    2   21 1
    40   36   39 2
    41   35   39 am
    42   35   40 1
@<TRIPOS>MOLECULE
*****
   40    42     0     0     0
SMALL
NO_CHARGES

@<TRIPOS>ATOM
      1 C1          4.9620    1.0240   19.4450 C.ar      1 <0>         0.0000
      2 C2         11.3980    1.8700   23.5940 C.ar      1 <0>         0.0000
      3 C3         11.7490   -0.5600   23.6410 C.ar      1 <0>         0.0000
      4 C4         13.6400    0.9260   23.4340 C.ar      1 <0>         0.0000
      5 C5          5.5970    0.4920   18.3470 C.ar      1 <0>         0.0000
      6 C6          7.3520   -0.2110   19.5500 C.ar      1 <0>         0.0000
      7 C7          5.6220    0.9700   20.6800 C.ar      1 <0>         0.0000
      8 C8         10.8380    0.5120   23.6170 C.ar      1 <0>         0.0000
      9 C9          6.8270    0.3290   20.7800 C.ar      1 <0>         0.0000
     10 C10        12.8010    2.0050   23.5320 C.ar      1 <0>         0.0000
     11 C11        13.1260   -0.3750   23.5470 C.ar      1 <0>         0.0000
     12 C12         8.8770    0.0510   22.1410 C.2       1 <0>         0.0000
     13 C13         4.9180    1.6270   21.8970 C.3       1 <0>         0.0000
     14 C14         9.3490    0.2000   23.5360 C.3       1 <0>         0.0000
     15 N1          6.7910   -0.0710   18.3480 N.ar      1 <0>         0.0000
     16 N2          7.5740    0.3560   21.9830 N.am      1 <0>         0.0000
     17 O1          9.6490   -0.1310   21.2270 O.2       1 <0>         0.0000
     18 O2         13.4120    3.2310   23.5810 O.3       1 <0>         0.0000
     19 Cl1        14.1470   -1.7650   23.6270 Cl        1 <0>         0.0000
     20 H1          3.9530    1.4170   19.3690 H         1 <0>         0.0000
     21 H2         10.7100    2.7170   23.6030 H         1 <0>         0.0000
     22 H3         11.3560   -1.5750   23.5750 H         1 <0>         0.0000
     23 H4         14.7130    1.0250   23.3380 H         1 <0>         0.0000
     24 H5          5.1480    0.6820   17.3850 H         1 <0>         0.0000
     25 H6          8.2710   -0.8070   19.5420 H         1 <0>         0.0000
     26 H7          4.1160    2.3160   21.6230 H         1 <0>         0.0000
     27 H8          4.6370    0.9350   22.6890 H         1 <0>         0.0000
     28 H9          5.6170    2.2770   22.4380 H         1 <0>         0.0000
     29 H10         9.2000   -0.7760   24.0000 H         1 <0>         0.0000
     30 H11         8.8420    0.9770   24.1110 H         1 <0>         0.0000
     31 H12         7.1280    0.7130   22.8300 H         1 <0>         0.0000
     32 H13        12.5880    5.4540   22.3610 H         1 <0>         0.0000
     33 H14        11.5450    6.0150   23.7950 H         1 <0>         0.0000
     34 N3         13.8590    5.1140   24.9200 N.am      1 <0>         0.0000
     35 O3         13.6500    7.3160   24.6160 O.2       1 <0>         0.0000
     36 C15        12.8510    4.3550   24.2810 C.3       1 <0>         0.0000
     37 C16        12.4890    5.5790   23.4460 C.3       1 <0>         0.0000
     38 C17        13.5830    6.1760   24.1930 C.2       1 <0>         0.0000
     39 H15        14.0060    5.1050   25.9290 H         1 <0>         0.0000
     40 H16        12.0310    4.0510   24.9370 H         1 <0>         0.0000
@<TRIPOS>BOND
     1    5   24 1
     2    5   15 ar
     3    1    5 ar
     4    6   15 ar
     5    1   20 1
     6    1    7 ar
     7    6   25 1
     8    6    9 ar
     9    7    9 ar
    10    7   13 1
    11    9   16 1
    12   12   17 2
    13   13   26 1
    14   13   28 1
    15   13   27 1
    16   12   16 am
    17   16   31 1
    18   12   14 1
    19   32   37 1
    20    4   23 1
    21    4   10 ar
    22    4   11 ar
    23   33   37 1
    24   37   38 1
    25   36   37 1
    26   10   18 1
    27    2   10 ar
    28    8   14 1
    29   14   29 1
    30   14   30 1
    31   11   19 1
    32    3   11 ar
    33    3   22 1
    34   18   36 1
    35    2   21 1
    36    2    8 ar
    37    3    8 ar
    38   35   38 2
    39   34   38 am
    40   34   36 1
    41   36   40 1
    42   34   39 1
@<TRIPOS>MOLECULE
*****
   40    42     0     0     0
SMALL
NO_CHARGES

@<TRIPOS>ATOM
      1 C1          4.7970    0.6790   18.8570 C.ar      1 <0>         0.0000
      2 C2         11.8630    1.1200   22.5710 C.ar      1 <0>         0.0000
      3 C3         12.1730   -1.0350   21.4750 C.ar      1 <0>         0.0000
      4 C4         14.0920    0.3150   21.9930 C.ar      1 <0>         0.0000
      5 C5          5.2420    0.7470   17.5460 C.ar      1 <0>         0.0000
      6 C6          7.3690    0.0750   18.0870 C.ar      1 <0>         0.0000
      7 C7          5.6900    0.1710   19.8340 C.ar      1 <0>         0.0000
      8 C8         11.3300   -0.1090   22.0620 C.ar      1 <0>         0.0000
      9 C9          6.9960   -0.1020   19.4730 C.ar      1 <0>         0.0000
     10 C10        13.3040    1.2990   22.6040 C.ar      1 <0>         0.0000
     11 C11        13.5320   -0.8120   21.4460 C.ar      1 <0>         0.0000
     12 C12         9.0070    0.0370   20.8310 C.2       1 <0>         0.0000
     13 C13         5.1970    0.1750   21.2380 C.3       1 <0>         0.0000
     14 C14         9.8620   -0.3590   22.1310 C.3       1 <0>         0.0000
     15 N1          6.5100    0.3740   17.1390 N.ar      1 <0>         0.0000
     16 N2          7.8780   -0.6590   20.4030 N.am      1 <0>         0.0000
     17 O1          9.4850    0.9290   20.1450 O.2       1 <0>         0.0000
     18 O2         13.9480    2.4370   23.0350 O.3       1 <0>         0.0000
     19 Cl1        14.6480   -1.8970   20.7200 Cl        1 <0>         0.0000
     20 H1          3.8370    1.1070   19.1460 H         1 <0>         0.0000
     21 H2         11.1370    1.8510   22.9210 H         1 <0>         0.0000
     22 H3         11.7180   -1.8920   20.9930 H         1 <0>         0.0000
     23 H4         15.1570    0.5430   21.9540 H         1 <0>         0.0000
     24 H5          4.6100    1.1210   16.7550 H         1 <0>         0.0000
     25 H6          8.4040   -0.0310   17.7660 H         1 <0>         0.0000
     26 H7          5.6850    0.9530   21.8350 H         1 <0>         0.0000
     27 H8          4.1220    0.3670   21.2290 H         1 <0>         0.0000
     28 H9          5.3260   -0.8340   21.6330 H         1 <0>         0.0000
     29 H10         9.5660   -1.4030   22.2760 H         1 <0>         0.0000
     30 H11         9.4660    0.2100   22.9730 H         1 <0>         0.0000
     31 H12         7.4090   -1.2050   21.1150 H         1 <0>         0.0000
     32 C15        12.4650    4.3260   22.3780 C.3       1 <0>         0.0000
     33 C16        13.3720    5.4130   22.9360 C.2       1 <0>         0.0000
     34 H13        13.8120    5.1530   24.7720 H         1 <0>         0.0000
     35 H14        12.3550    3.1950   24.2760 H         1 <0>         0.0000
     36 H15        11.3950    4.5370   22.5220 H         1 <0>         0.0000
     37 H16        12.7240    4.0340   21.3560 H         1 <0>         0.0000
     38 N3         13.9120    4.6940   23.8650 N.am      1 <0>         0.0000
     39 O3         13.2190    6.6490   22.9090 O.2       1 <0>         0.0000
     40 C17        13.1260    3.4940   23.5550 C.3       1 <0>         0.0000
@<TRIPOS>BOND
     1    5   24 1
     2    5   15 ar
     3    6   15 ar
     4    1    5 ar
     5    6   25 1
     6    6    9 ar
     7    1   20 1
     8    1    7 ar
     9    7    9 ar
    10    9   16 1
    11    7   13 1
    12   12   17 2
    13   12   16 am
    14   16   31 1
    15   11   19 1
    16   12   14 1
    17    3   22 1
    18   13   27 1
    19   13   28 1
    20   13   26 1
    21   32   37 1
    22    3   11 ar
    23    4   11 ar
    24    3    8 ar
    25    4   23 1
    26    4   10 ar
    27    8   14 1
    28    2    8 ar
    29   14   29 1
    30   14   30 1
    31   32   36 1
    32   32   33 1
    33   32   40 1
    34    2   10 ar
    35    2   21 1
    36   10   18 1
    37   33   39 2
    38   33   38 am
    39   18   40 1
    40   38   40 1
    41   35   40 1
    42   34   38 1
@<TRIPOS>MOLECULE
*****
   42    44     0     0     0
SMALL
NO_CHARGES

@<TRIPOS>ATOM
      1 C1          5.6870    1.5740   18.9900 C.ar      1 <0>         0.0000
      2 C2         12.2200    1.6980   23.2030 C.ar      1 <0>         0.0000
      3 C3         12.2690   -0.5900   22.4260 C.ar      1 <0>         0.0000
      4 C4         14.3290    0.6400   22.4150 C.ar      1 <0>         0.0000
      5 C5          6.0700    0.6350   18.0100 C.ar      1 <0>         0.0000
      6 C6          7.8670   -0.1230   19.2790 C.ar      1 <0>         0.0000
      7 C7          6.4740    1.6880   20.1570 C.ar      1 <0>         0.0000
      8 C8         11.5480    0.4930   22.9460 C.ar      1 <0>         0.0000
      9 C9          7.5610    0.8560   20.3210 C.ar      1 <0>         0.0000
     10 C10        13.6330    1.7290   22.9890 C.ar      1 <0>         0.0000
     11 C11        13.6190   -0.5300   22.0850 C.ar      1 <0>         0.0000
     12 C12         9.1530    0.0410   22.0690 C.2       1 <0>         0.0000
     13 C13         6.1240    2.7110   21.2610 C.3       1 <0>         0.0000
     14 C14        10.0180    0.4470   23.2690 C.3       1 <0>         0.0000
     15 N1          7.1210   -0.1800   18.1160 N.ar      1 <0>         0.0000
     16 N2          8.3360    0.9500   21.5030 N.am      1 <0>         0.0000
     17 O1          9.2310   -1.1220   21.6710 O.2       1 <0>         0.0000
     18 O2         14.4510    2.8280   23.2290 O.3       1 <0>         0.0000
     19 Cl1        14.4490   -1.7480   21.3140 Cl        1 <0>         0.0000
     20 H1          4.8190    2.2120   18.8800 H         1 <0>         0.0000
     21 H2         11.6270    2.5370   23.5480 H         1 <0>         0.0000
     22 H3         11.7480   -1.5380   22.2660 H         1 <0>         0.0000
     23 H4         15.3960    0.6740   22.2630 H         1 <0>         0.0000
     24 H5          5.5470    0.6120   17.0530 H         1 <0>         0.0000
     25 H6          8.7950   -0.6600   19.4650 H         1 <0>         0.0000
     26 H7          7.0250    3.2720   21.5510 H         1 <0>         0.0000
     27 H8          5.5000    3.4190   20.7060 H         1 <0>         0.0000
     28 H9          5.6240    2.2670   22.1270 H         1 <0>         0.0000
     29 H10         9.9320   -0.2750   24.0860 H         1 <0>         0.0000
     30 H11         9.6500    1.3960   23.6640 H         1 <0>         0.0000
     31 H12         8.2750    1.8010   22.0690 H         1 <0>         0.0000
     32 N3         14.5750    5.2830   23.1930 N.3       1 <0>         0.0000
     33 O3         13.7780    6.8160   21.8360 O.3       1 <0>         0.0000
     34 C15        13.7650    4.0710   23.1710 C.3       1 <0>         0.0000
     35 C16        13.2590    4.3610   21.7470 C.3       1 <0>         0.0000
     36 C17        14.1110    5.6080   22.0050 C.3       1 <0>         0.0000
     37 H13        14.4350    5.8720   24.0130 H         1 <0>         0.0000
     38 H14        12.9800    4.1920   23.9320 H         1 <0>         0.0000
     39 H15        13.7530    3.7290   20.9900 H         1 <0>         0.0000
     40 H16        12.2170    4.6620   21.6650 H         1 <0>         0.0000
     41 H          13.7780    6.8160   21.8360 H         1 <0>         0.0000
     42 H          14.1110    5.6080   22.0050 H         1 <0>         0.0000
@<TRIPOS>BOND
     1    5   24 1
     2    5   15 ar
     3    1    5 ar
     4    6   15 ar
     5    1   20 1
     6    1    7 ar
     7    6   25 1
     8    6    9 ar
     9    7    9 ar
    10    7   13 1
    11    9   16 1
    12   13   27 1
    13   35   39 1
    14   13   26 1
    15   13   28 1
    16   11   19 1
    17   12   16 am
    18   16   31 1
    19   35   40 1
    20   12   17 2
    21   35   36 1
    22   34   35 1
    23   33   36 1
    24   32   36 1
    25   12   14 1
    26    4   11 ar
    27    3   11 ar
    28    4   23 1
    29    3   22 1
    30    4   10 ar
    31    3    8 ar
    32    2    8 ar
    33    8   14 1
    34    2   10 ar
    35   10   18 1
    36   32   34 1
    37   18   34 1
    38   34   38 1
    39   32   37 1
    40    2   21 1
    41   14   30 1
    42   14   29 1
    43   33   41 1
    44   36   42 1
@<TRIPOS>MOLECULE
*****
   40    42     0     0     0
SMALL
NO_CHARGES

@<TRIPOS>ATOM
      1 C1          5.3230    0.8860   20.0110 C.ar      1 <0>         0.0000
      2 C2         12.5020    0.7350   23.5900 C.ar      1 <0>         0.0000
      3 C3         12.9010   -0.9680   21.9460 C.ar      1 <0>         0.0000
      4 C4         14.7350    0.3550   22.7530 C.ar      1 <0>         0.0000
      5 C5          5.7410    0.8480   18.6410 C.ar      1 <0>         0.0000
      6 C6          7.7460    0.1100   19.4650 C.ar      1 <0>         0.0000
      7 C7          6.0560    0.5070   21.1110 C.ar      1 <0>         0.0000
      8 C8         11.9830   -0.2480   22.7450 C.ar      1 <0>         0.0000
      9 C9          7.3360    0.2060   20.7930 C.ar      1 <0>         0.0000
     10 C10        13.8730    1.0830   23.5820 C.ar      1 <0>         0.0000
     11 C11        14.2480   -0.6600   21.9100 C.ar      1 <0>         0.0000
     12 C12         9.5560    0.3340   21.9160 C.2       1 <0>         0.0000
     13 C13         5.4740    0.4940   22.5030 C.3       1 <0>         0.0000
     14 C14        10.5140   -0.5120   22.7630 C.3       1 <0>         0.0000
     15 N1          6.9440    0.3500   18.4430 N.ar      1 <0>         0.0000
     16 N2          8.2390   -0.1050   21.7910 N.am      1 <0>         0.0000
     17 O1          9.9830    1.2220   21.2160 O.2       1 <0>         0.0000
     18 O2         14.4050    2.0770   24.3420 O.3       1 <0>         0.0000
     19 Cl1        15.3610   -1.6290   20.9490 Cl        1 <0>         0.0000
     20 H1          4.3190    1.2750   20.1370 H         1 <0>         0.0000
     21 H2         11.8030    1.2830   24.2060 H         1 <0>         0.0000
     22 H3         12.4150   -1.7270   21.3470 H         1 <0>         0.0000
     23 H4         15.7880    0.6150   22.6520 H         1 <0>         0.0000
     24 H5          5.0540    1.1510   17.8640 H         1 <0>         0.0000
     25 H6          8.7970    0.0220   19.2150 H         1 <0>         0.0000
     26 H7          4.5190    1.0320   22.4180 H         1 <0>         0.0000
     27 H8          5.3320   -0.5750   22.6890 H         1 <0>         0.0000
     28 H9          6.1660    1.0640   23.1240 H         1 <0>         0.0000
     29 H10        10.2100   -1.5310   22.4860 H         1 <0>         0.0000
     30 H11        10.1370   -0.3960   23.7830 H         1 <0>         0.0000
     31 H12         7.8550   -0.5260   22.6350 H         1 <0>         0.0000
     32 H13        14.9080    4.3200   21.6940 H         1 <0>         0.0000
     33 H14        16.0240    2.9050   22.2780 H         1 <0>         0.0000
     34 N3         15.0700    4.2350   24.6030 N.am      1 <0>         0.0000
     35 O3         16.4010    5.6190   23.4910 O.2       1 <0>         0.0000
     36 C15        14.3130    3.3520   23.7600 C.3       1 <0>         0.0000
     37 C16        15.3010    3.6900   22.5040 C.3       1 <0>         0.0000
     38 C17        15.9030    4.5340   23.6330 C.2       1 <0>         0.0000
     39 H15        14.5940    4.9230   25.1930 H         1 <0>         0.0000
     40 H16        13.3000    3.6570   23.4730 H         1 <0>         0.0000
@<TRIPOS>BOND
     1    5   24 1
     2    5   15 ar
     3    6   15 ar
     4    1    5 ar
     5    6   25 1
     6    6    9 ar
     7    1   20 1
     8    1    7 ar
     9    7    9 ar
    10    9   16 1
    11   11   19 1
    12    7   13 1
    13   12   17 2
    14    3   22 1
    15   32   37 1
    16   12   16 am
    17   16   31 1
    18    3   11 ar
    19    4   11 ar
    20   12   14 1
    21    3    8 ar
    22   33   37 1
    23   13   26 1
    24   14   29 1
    25   13   27 1
    26   13   28 1
    27   37   38 1
    28   36   37 1
    29    4   23 1
    30    8   14 1
    31    2    8 ar
    32    4   10 ar
    33   14   30 1
    34   36   40 1
    35   35   38 2
    36    2   10 ar
    37   10   18 1
    38    2   21 1
    39   34   38 am
    40   18   36 1
    41   34   36 1
    42   34   39 1
@<TRIPOS>MOLECULE
*****
   40    42     0     0     0
SMALL
NO_CHARGES

@<TRIPOS>ATOM
      1 C1          4.7450    1.3260   18.6910 C.ar      1 <0>         0.0000
      2 C2         11.2280    0.9350   22.4620 C.ar      1 <0>         0.0000
      3 C3         11.3760   -1.3330   21.6720 C.ar      1 <0>         0.0000
      4 C4         13.3990   -0.0390   21.9510 C.ar      1 <0>         0.0000
      5 C5          4.9830    0.5750   17.4840 C.ar      1 <0>         0.0000
      6 C6          6.9010   -0.2980   18.4290 C.ar      1 <0>         0.0000
      7 C7          5.5960    1.2630   19.7870 C.ar      1 <0>         0.0000
      8 C8         10.6150   -0.2910   22.2500 C.ar      1 <0>         0.0000
      9 C9          6.7590    0.5020   19.5770 C.ar      1 <0>         0.0000
     10 C10        12.6810    1.0570   22.3610 C.ar      1 <0>         0.0000
     11 C11        12.7690   -1.2500   21.4900 C.ar      1 <0>         0.0000
     12 C12         8.1470   -0.6040   21.3030 C.2       1 <0>         0.0000
     13 C13         5.3710    2.1260   20.9710 C.3       1 <0>         0.0000
     14 C14         9.1170   -0.4360   22.5110 C.3       1 <0>         0.0000
     15 N1          6.0690   -0.1980   17.3850 N.ar      1 <0>         0.0000
     16 N2          7.7740    0.5050   20.5920 N.am      1 <0>         0.0000
     17 O1          7.8160   -1.7510   20.8880 O.2       1 <0>         0.0000
     18 O2         13.4280    2.2200   22.5860 O.3       1 <0>         0.0000
     19 Cl1        13.7630   -2.5250   20.8400 Cl        1 <0>         0.0000
     20 H1          3.9670    2.0960   18.6510 H         1 <0>         0.0000
     21 H2         10.4730    1.6310   22.8080 H         1 <0>         0.0000
     22 H3         10.8310   -2.2290   21.3790 H         1 <0>         0.0000
     23 H4         14.4620    0.0440   21.7880 H         1 <0>         0.0000
     24 H5          4.3110    0.6010   16.6410 H         1 <0>         0.0000
     25 H6          7.7230   -1.0080   18.3520 H         1 <0>         0.0000
     26 H7          5.8700    3.0900   20.8080 H         1 <0>         0.0000
     27 H8          4.2900    2.1630   21.1320 H         1 <0>         0.0000
     28 H9          5.9020    1.7880   21.8670 H         1 <0>         0.0000
     29 H10         8.9940   -1.3280   23.1390 H         1 <0>         0.0000
     30 H11         8.7870    0.4300   23.0870 H         1 <0>         0.0000
     31 H12         7.9410    1.3990   21.0360 H         1 <0>         0.0000
     32 H13        12.4200    3.0930   24.1420 H         1 <0>         0.0000
     33 H14        10.7580    4.3460   22.6930 H         1 <0>         0.0000
     34 H15        11.6300    3.6020   21.1790 H         1 <0>         0.0000
     35 N3         13.5830    4.4890   23.0280 N.am      1 <0>         0.0000
     36 O3         12.4900    6.3490   22.1640 O.2       1 <0>         0.0000
     37 C15        12.7040    3.2980   23.1050 C.3       1 <0>         0.0000
     38 C16        11.6690    4.0100   22.1960 C.3       1 <0>         0.0000
     39 C17        12.6970    5.1170   22.3000 C.2       1 <0>         0.0000
     40 H16        14.0400    4.8730   23.8520 H         1 <0>         0.0000
@<TRIPOS>BOND
     1    5   24 1
     2    5   15 ar
     3    6   15 ar
     4    1    5 ar
     5    6   25 1
     6    6    9 ar
     7    1   20 1
     8    1    7 ar
     9    7    9 ar
    10    9   16 1
    11    7   13 1
    12   16   31 1
    13   12   16 am
    14   13   26 1
    15   11   19 1
    16   12   17 2
    17   13   27 1
    18   13   28 1
    19   34   38 1
    20   12   14 1
    21    3   22 1
    22    3   11 ar
    23    4   11 ar
    24    3    8 ar
    25    4   23 1
    26    4   10 ar
    27   36   39 2
    28   38   39 1
    29   33   38 1
    30   37   38 1
    31    2    8 ar
    32    8   14 1
    33   35   39 am
    34    2   10 ar
    35   10   18 1
    36    2   21 1
    37   14   30 1
    38   14   29 1
    39   18   37 1
    40   35   37 1
    41   35   40 1
    42   32   37 1
@<TRIPOS>MOLECULE
*****
   40    42     0     0     0
SMALL
NO_CHARGES

@<TRIPOS>ATOM
      1 C1          5.2890    1.7200   19.2140 C.ar      1 <0>         0.0000
      2 C2         11.7340    0.1390   23.0630 C.ar      1 <0>         0.0000
      3 C3         11.9940   -1.8700   21.7700 C.ar      1 <0>         0.0000
      4 C4         13.9380   -0.5440   22.3900 C.ar      1 <0>         0.0000
      5 C5          5.6210    1.3460   17.8400 C.ar      1 <0>         0.0000
      6 C6          7.3060    0.1080   18.6130 C.ar      1 <0>         0.0000
      7 C7          5.9640    1.1700   20.2960 C.ar      1 <0>         0.0000
      8 C8         11.1400   -0.9220   22.3570 C.ar      1 <0>         0.0000
      9 C9          7.0340    0.3320   19.9600 C.ar      1 <0>         0.0000
     10 C10        13.1260    0.3130   23.1460 C.ar      1 <0>         0.0000
     11 C11        13.3720   -1.6220   21.6760 C.ar      1 <0>         0.0000
     12 C12         9.0190   -0.0710   21.3550 C.2       1 <0>         0.0000
     13 C13         5.6880    1.7080   21.7100 C.3       1 <0>         0.0000
     14 C14         9.6790   -1.0510   22.4080 C.3       1 <0>         0.0000
     15 N1          6.5890    0.5380   17.6080 N.ar      1 <0>         0.0000
     16 N2          7.7240   -0.2560   20.9750 N.am      1 <0>         0.0000
     17 O1          9.6300    0.8420   20.8090 O.2       1 <0>         0.0000
     18 O2         13.7470    1.4470   23.6680 O.3       1 <0>         0.0000
     19 Cl1        14.3040   -2.5660   20.6400 Cl        1 <0>         0.0000
     20 H1          4.4810    2.4160   19.4300 H         1 <0>         0.0000
     21 H2         11.0820    0.8300   23.5870 H         1 <0>         0.0000
     22 H3         11.5840   -2.6500   21.1290 H         1 <0>         0.0000
     23 H4         15.0090   -0.3910   22.4210 H         1 <0>         0.0000
     24 H5          5.1170    1.7560   16.9660 H         1 <0>         0.0000
     25 H6          8.1640   -0.5100   18.3730 H         1 <0>         0.0000
     26 H7          6.3310    2.5750   21.8410 H         1 <0>         0.0000
     27 H8          4.6470    1.9370   21.9620 H         1 <0>         0.0000
     28 H9          5.9780    0.9700   22.4590 H         1 <0>         0.0000
     29 H10         9.3490   -2.0610   22.1500 H         1 <0>         0.0000
     30 H11         9.3390   -0.7210   23.3930 H         1 <0>         0.0000
     31 H12         7.1920   -0.9070   21.5550 H         1 <0>         0.0000
     32 H13        13.1110    2.4670   21.2770 H         1 <0>         0.0000
     33 H14        11.8830    3.6820   21.9300 H         1 <0>         0.0000
     34 N3         14.0110    3.8170   23.7110 N.am      1 <0>         0.0000
     35 O3         15.0630    4.2740   21.7210 O.2       1 <0>         0.0000
     36 C15        13.0710    2.7300   23.5640 C.3       1 <0>         0.0000
     37 C16        12.8400    3.1790   22.0560 C.3       1 <0>         0.0000
     38 C17        14.0420    4.0200   22.3720 C.2       1 <0>         0.0000
     39 H15        14.9250    3.5990   24.1150 H         1 <0>         0.0000
     40 H16        12.1350    2.8220   24.1320 H         1 <0>         0.0000
@<TRIPOS>BOND
     1    5   24 1
     2    5   15 ar
     3    6   15 ar
     4    1    5 ar
     5    6   25 1
     6    6    9 ar
     7    1   20 1
     8    1    7 ar
     9    7    9 ar
    10    9   16 1
    11    7   13 1
    12   11   19 1
    13   12   17 2
    14   12   16 am
    15   16   31 1
    16    3   22 1
    17   32   37 1
    18   12   14 1
    19    3   11 ar
    20    4   11 ar
    21   13   26 1
    22   13   27 1
    23   13   28 1
    24   35   38 2
    25    3    8 ar
    26   33   37 1
    27   37   38 1
    28   36   37 1
    29   14   29 1
    30    8   14 1
    31    2    8 ar
    32   34   38 am
    33    4   23 1
    34    4   10 ar
    35   14   30 1
    36    2   10 ar
    37    2   21 1
    38   10   18 1
    39   18   36 1
    40   34   36 1
    41   36   40 1
    42   34   39 1
@<TRIPOS>MOLECULE
*****
   40    42     0     0     0
SMALL
NO_CHARGES

@<TRIPOS>ATOM
      1 C1          5.4680    1.8990   19.2700 C.ar      1 <0>         0.0000
      2 C2         12.4220    1.7370   23.0680 C.ar      1 <0>         0.0000
      3 C3         12.4720   -0.3400   21.9120 C.ar      1 <0>         0.0000
      4 C4         14.5050    0.8820   22.1910 C.ar      1 <0>         0.0000
      5 C5          6.0270    1.5590   18.0420 C.ar      1 <0>         0.0000
      6 C6          7.8170    0.6250   19.1400 C.ar      1 <0>         0.0000
      7 C7          6.0080    1.4570   20.4310 C.ar      1 <0>         0.0000
      8 C8         11.6990    0.6080   22.6450 C.ar      1 <0>         0.0000
      9 C9          7.2690    0.9040   20.3980 C.ar      1 <0>         0.0000
     10 C10        13.8040    1.8600   22.8710 C.ar      1 <0>         0.0000
     11 C11        13.8540   -0.2580   21.7330 C.ar      1 <0>         0.0000
     12 C12         9.4400    0.9680   21.6430 C.2       1 <0>         0.0000
     13 C13         5.2060    1.5460   21.6670 C.3       1 <0>         0.0000
     14 C14        10.2190    0.4900   22.9010 C.3       1 <0>         0.0000
     15 N1          7.2290    0.9210   17.9470 N.ar      1 <0>         0.0000
     16 N2          8.1270    0.7150   21.4970 N.am      1 <0>         0.0000
     17 O1         10.0220    1.6040   20.8050 O.2       1 <0>         0.0000
     18 O2         14.5300    2.8800   23.2880 O.3       1 <0>         0.0000
     19 Cl1        14.6860   -1.5140   20.8180 Cl        1 <0>         0.0000
     20 H1          4.4930    2.3880   19.2240 H         1 <0>         0.0000
     21 H2         11.8550    2.5280   23.5410 H         1 <0>         0.0000
     22 H3         12.0160   -1.1930   21.4160 H         1 <0>         0.0000
     23 H4         15.5860    1.0150   22.1190 H         1 <0>         0.0000
     24 H5          5.4690    1.8980   17.1680 H         1 <0>         0.0000
     25 H6          8.8020    0.2900   18.8690 H         1 <0>         0.0000
     26 H7          5.3650    0.6940   22.3290 H         1 <0>         0.0000
     27 H8          5.6460    2.4060   22.1800 H         1 <0>         0.0000
     28 H9          4.1720    1.8500   21.5220 H         1 <0>         0.0000
     29 H10         9.9840   -0.5530   23.1050 H         1 <0>         0.0000
     30 H11         9.9470    1.0590   23.7900 H         1 <0>         0.0000
     31 H12         7.7570    0.4940   22.4250 H         1 <0>         0.0000
     32 C15        14.0220    4.1220   22.9400 C.3       1 <0>         0.0000
     33 C16        15.1290    5.2820   22.9730 C.3       1 <0>         0.0000
     34 C17        14.3240    5.7360   24.1390 C.2       1 <0>         0.0000
     35 H13        13.0960    4.3770   24.9810 H         1 <0>         0.0000
     36 H14        13.4070    4.1120   22.0400 H         1 <0>         0.0000
     37 H15        16.1130    4.8870   23.2340 H         1 <0>         0.0000
     38 H16        15.0100    5.8660   22.0560 H         1 <0>         0.0000
     39 N3         13.3320    4.8020   24.0870 N.am      1 <0>         0.0000
     40 O3         14.7680    6.1420   25.2210 O.2       1 <0>         0.0000
@<TRIPOS>BOND
     1    5   24 1
     2    5   15 ar
     3    6   15 ar
     4    1    5 ar
     5    6   25 1
     6    6    9 ar
     7    1   20 1
     8    1    7 ar
     9    7    9 ar
    10    9   16 1
    11    7   13 1
    12   12   17 2
    13   11   19 1
    14    3   22 1
    15   12   16 am
    16   16   31 1
    17   13   28 1
    18   12   14 1
    19   13   27 1
    20   13   26 1
    21    3   11 ar
    22    4   11 ar
    23    3    8 ar
    24   32   36 1
    25   33   38 1
    26    4   23 1
    27    4   10 ar
    28    8   14 1
    29    2    8 ar
    30    2   10 ar
    31   10   18 1
    32   14   29 1
    33   14   30 1
    34   32   33 1
    35   18   32 1
    36   32   39 1
    37   33   37 1
    38   33   34 1
    39    2   21 1
    40   34   39 am
    41   35   39 1
    42   34   40 2
@<TRIPOS>MOLECULE
*****
   40    42     0     0     0
SMALL
NO_CHARGES

@<TRIPOS>ATOM
      1 C1          5.6500    2.7130   18.7370 C.ar      1 <0>         0.0000
      2 C2         12.3980    3.6310   22.4310 C.ar      1 <0>         0.0000
      3 C3         12.0730    1.5610   23.5660 C.ar      1 <0>         0.0000
      4 C4         14.2540    2.2380   22.9360 C.ar      1 <0>         0.0000
      5 C5          6.0440    1.6070   17.9150 C.ar      1 <0>         0.0000
      6 C6          7.7510    1.1520   19.4390 C.ar      1 <0>         0.0000
      7 C7          6.3120    3.0790   19.9150 C.ar      1 <0>         0.0000
      8 C8         11.5290    2.7590   23.0200 C.ar      1 <0>         0.0000
      9 C9          7.4420    2.2780   20.2350 C.ar      1 <0>         0.0000
     10 C10        13.7700    3.3890   22.3910 C.ar      1 <0>         0.0000
     11 C11        13.4130    1.3680   23.5500 C.ar      1 <0>         0.0000
     12 C12         9.4330    2.4960   21.6490 C.2       1 <0>         0.0000
     13 C13         5.7390    4.1710   20.7760 C.3       1 <0>         0.0000
     14 C14        10.0260    3.1260   22.9240 C.3       1 <0>         0.0000
     15 N1          7.1570    0.8410   18.2620 N.ar      1 <0>         0.0000
     16 N2          8.0910    2.5000   21.4330 N.am      1 <0>         0.0000
     17 O1         10.1450    1.8360   20.9900 O.2       1 <0>         0.0000
     18 O2         14.5410    4.2990   21.7640 O.3       1 <0>         0.0000
     19 Cl1        14.0020   -0.1360   24.1890 Cl        1 <0>         0.0000
     20 H1          4.7040    3.1820   18.4630 H         1 <0>         0.0000
     21 H2         12.0320    4.4800   21.8690 H         1 <0>         0.0000
     22 H3         11.4220    0.7810   23.9680 H         1 <0>         0.0000
     23 H4         15.2800    1.9940   22.7130 H         1 <0>         0.0000
     24 H5          5.4810    1.3600   17.0170 H         1 <0>         0.0000
     25 H6          8.5180    0.4710   19.7950 H         1 <0>         0.0000
     26 H7          6.5480    4.8390   21.0840 H         1 <0>         0.0000
     27 H8          5.0470    4.7680   20.1700 H         1 <0>         0.0000
     28 H9          5.2090    3.7250   21.6230 H         1 <0>         0.0000
     29 H10         9.3840    2.7540   23.7390 H         1 <0>         0.0000
     30 H11         9.9890    4.2110   22.7830 H         1 <0>         0.0000
     31 H12         7.6000    3.0140   22.1630 H         1 <0>         0.0000
     32 N3         15.9960    6.0200   22.1830 N.am      1 <0>         0.0000
     33 O3         15.2090    7.9150   23.1500 O.2       1 <0>         0.0000
     34 C15        15.4490    4.8450   22.6790 C.3       1 <0>         0.0000
     35 C16        14.8610    5.5960   23.9080 C.3       1 <0>         0.0000
     36 C17        15.5430    6.7410   23.2020 C.2       1 <0>         0.0000
     37 H13        15.8370    6.2560   21.2080 H         1 <0>         0.0000
     38 H14        16.1750    4.0650   22.9280 H         1 <0>         0.0000
     39 H15        15.3410    5.3650   24.8680 H         1 <0>         0.0000
     40 H16        13.7780    5.6190   24.0420 H         1 <0>         0.0000
@<TRIPOS>BOND
     1    5   24 1
     2    5   15 ar
     3    1    5 ar
     4    6   15 ar
     5    1   20 1
     6    1    7 ar
     7    6   25 1
     8    6    9 ar
     9    7    9 ar
    10    7   13 1
    11   13   27 1
    12    9   16 1
    13   13   26 1
    14   13   28 1
    15   12   17 2
    16   32   37 1
    17   12   16 am
    18   16   31 1
    19   12   14 1
    20   10   18 1
    21   18   34 1
    22    2   21 1
    23   32   34 1
    24   32   36 am
    25    2   10 ar
    26    4   10 ar
    27    2    8 ar
    28   34   38 1
    29   34   35 1
    30    4   23 1
    31   14   30 1
    32    8   14 1
    33   14   29 1
    34    4   11 ar
    35    3    8 ar
    36   33   36 2
    37   35   36 1
    38    3   11 ar
    39   11   19 1
    40    3   22 1
    41   35   40 1
    42   35   39 1
@<TRIPOS>MOLECULE
*****
   40    42     0     0     0
SMALL
NO_CHARGES

@<TRIPOS>ATOM
      1 C1          4.7130    1.0730   18.5430 C.ar      1 <0>         0.0000
      2 C2         11.3610    1.4210   22.2460 C.ar      1 <0>         0.0000
      3 C3         11.4240   -0.8510   22.7940 C.ar      1 <0>         0.0000
      4 C4         13.4440    0.3180   22.4550 C.ar      1 <0>         0.0000
      5 C5          5.4500    0.9030   17.3750 C.ar      1 <0>         0.0000
      6 C6          7.1100   -0.0400   18.5670 C.ar      1 <0>         0.0000
      7 C7          5.2030    0.7260   19.7820 C.ar      1 <0>         0.0000
      8 C8         10.6630    0.2220   22.4960 C.ar      1 <0>         0.0000
      9 C9          6.4970    0.1270   19.7940 C.ar      1 <0>         0.0000
     10 C10        12.7240    1.5050   22.2100 C.ar      1 <0>         0.0000
     11 C11        12.8070   -0.8820   22.7200 C.ar      1 <0>         0.0000
     12 C12         8.4940    0.3720   21.1830 C.2       1 <0>         0.0000
     13 C13         4.3540    1.0890   21.0560 C.3       1 <0>         0.0000
     14 C14         9.2080    0.1710   22.5450 C.3       1 <0>         0.0000
     15 N1          6.6590    0.2620   17.3500 N.ar      1 <0>         0.0000
     16 N2          7.2260   -0.0520   20.9500 N.am      1 <0>         0.0000
     17 O1          9.0960    0.9940   20.3340 O.2       1 <0>         0.0000
     18 O2         13.3300    2.7490   21.8650 O.3       1 <0>         0.0000
     19 Cl1        13.5500   -2.3650   23.1960 Cl        1 <0>         0.0000
     20 H1          3.7190    1.4980   18.4380 H         1 <0>         0.0000
     21 H2         10.8470    2.3470   22.0280 H         1 <0>         0.0000
     22 H3         10.8760   -1.7820   22.9700 H         1 <0>         0.0000
     23 H4         14.5280    0.4220   22.4410 H         1 <0>         0.0000
     24 H5          5.0020    1.2260   16.4450 H         1 <0>         0.0000
     25 H6          8.0790   -0.5200   18.5640 H         1 <0>         0.0000
     26 H7          3.3410    1.3350   20.7500 H         1 <0>         0.0000
     27 H8          4.3790    0.1790   21.6600 H         1 <0>         0.0000
     28 H9          4.8780    1.9140   21.5590 H         1 <0>         0.0000
     29 H10         8.7400   -0.6800   23.0350 H         1 <0>         0.0000
     30 H11         8.8880    0.9600   23.2310 H         1 <0>         0.0000
     31 H12         6.6920   -0.2540   21.7930 H         1 <0>         0.0000
     32 C15        14.7340    2.9310   21.9140 C.3       1 <0>         0.0000
     33 C16        15.2090    4.4540   21.6230 C.3       1 <0>         0.0000
     34 C17        15.9110    3.8160   20.4660 C.2       1 <0>         0.0000
     35 H13        16.3430    1.9440   20.7680 H         1 <0>         0.0000
     36 H14        15.1680    2.5430   22.8380 H         1 <0>         0.0000
     37 H15        15.7940    4.9700   22.3860 H         1 <0>         0.0000
     38 H16        14.5070    5.1890   21.2370 H         1 <0>         0.0000
     39 N3         15.5200    2.5470   20.6840 N.am      1 <0>         0.0000
     40 O3         16.9810    4.1260   20.0120 O.2       1 <0>         0.0000
@<TRIPOS>BOND
     1    5   24 1
     2    5   15 ar
     3    6   15 ar
     4    1    5 ar
     5    1   20 1
     6    1    7 ar
     7    6   25 1
     8    6    9 ar
     9    7    9 ar
    10    7   13 1
    11    9   16 1
    12   34   40 2
    13   12   17 2
    14   34   39 am
    15   33   34 1
    16   35   39 1
    17   32   39 1
    18   13   26 1
    19   12   16 am
    20   16   31 1
    21   13   28 1
    22   13   27 1
    23   12   14 1
    24   33   38 1
    25   32   33 1
    26   33   37 1
    27   18   32 1
    28   10   18 1
    29   32   36 1
    30    2   21 1
    31    2   10 ar
    32    4   10 ar
    33    2    8 ar
    34    4   23 1
    35    4   11 ar
    36    8   14 1
    37    3    8 ar
    38   14   29 1
    39   14   30 1
    40    3   11 ar
    41   11   19 1
    42    3   22 1
@<TRIPOS>MOLECULE
*****
   40    42     0     0     0
SMALL
NO_CHARGES

@<TRIPOS>ATOM
      1 C1          5.2660    0.8840   19.9570 C.ar      1 <0>         0.0000
      2 C2         12.2350    0.2790   23.2930 C.ar      1 <0>         0.0000
      3 C3         12.0200   -1.9340   24.3530 C.ar      1 <0>         0.0000
      4 C4         14.1750   -1.0080   23.8780 C.ar      1 <0>         0.0000
      5 C5          5.6420    0.2950   18.7280 C.ar      1 <0>         0.0000
      6 C6          7.5540   -0.5710   19.6830 C.ar      1 <0>         0.0000
      7 C7          6.0650    0.7200   21.0880 C.ar      1 <0>         0.0000
      8 C8         11.4150   -0.7670   23.7410 C.ar      1 <0>         0.0000
      9 C9          7.2620   -0.0220   20.9470 C.ar      1 <0>         0.0000
     10 C10        13.6580    0.1700   23.3150 C.ar      1 <0>         0.0000
     11 C11        13.4530   -2.0240   24.4590 C.ar      1 <0>         0.0000
     12 C12         9.3530   -0.3080   22.2040 C.2       1 <0>         0.0000
     13 C13         5.4980    1.2500   22.4360 C.3       1 <0>         0.0000
     14 C14         9.9240   -0.7630   23.5800 C.3       1 <0>         0.0000
     15 N1          6.7690   -0.3700   18.6030 N.ar      1 <0>         0.0000
     16 N2          7.9790   -0.3050   22.0760 N.am      1 <0>         0.0000
     17 O1         10.0970   -0.4060   21.2390 O.2       1 <0>         0.0000
     18 O2         14.5450    1.0440   22.7360 O.3       1 <0>         0.0000
     19 Cl1        14.3090   -3.1460   25.4530 Cl        1 <0>         0.0000
     20 H1          4.2910    1.3540   19.9450 H         1 <0>         0.0000
     21 H2         11.8050    1.2090   22.9180 H         1 <0>         0.0000
     22 H3         11.3960   -2.7180   24.7680 H         1 <0>         0.0000
     23 H4         15.2590   -1.0060   23.9210 H         1 <0>         0.0000
     24 H5          5.0040    0.4220   17.8510 H         1 <0>         0.0000
     25 H6          8.5360   -0.9910   19.5170 H         1 <0>         0.0000
     26 H7          6.2960    1.5790   23.1200 H         1 <0>         0.0000
     27 H8          4.7930    2.0700   22.2610 H         1 <0>         0.0000
     28 H9          4.9410    0.4560   22.9410 H         1 <0>         0.0000
     29 H10         9.7510   -1.8530   23.5780 H         1 <0>         0.0000
     30 H11         9.4770   -0.3350   24.4790 H         1 <0>         0.0000
     31 H12         7.5310   -0.2610   22.9870 H         1 <0>         0.0000
     32 H13        13.2910    1.9800   21.4760 H         1 <0>         0.0000
     33 H14        14.9920    3.3720   20.3120 H         1 <0>         0.0000
     34 H15        16.2060    2.7850   21.4010 H         1 <0>         0.0000
     35 N3         13.9530    3.4340   23.0510 N.am      1 <0>         0.0000
     36 O3         14.8130    5.3610   22.2360 O.2       1 <0>         0.0000
     37 C15        14.1030    2.2630   22.1390 C.3       1 <0>         0.0000
     38 C16        15.1650    3.1120   21.3560 C.3       1 <0>         0.0000
     39 C17        14.7250    4.1590   22.2760 C.2       1 <0>         0.0000
     40 H16        13.1370    3.6620   23.6150 H         1 <0>         0.0000
@<TRIPOS>BOND
     1    5   24 1
     2    5   15 ar
     3    6   15 ar
     4    1    5 ar
     5    6   25 1
     6    6    9 ar
     7    1   20 1
     8    1    7 ar
     9   33   38 1
    10    7    9 ar
    11    9   16 1
    12    7   13 1
    13   12   17 2
    14   34   38 1
    15   37   38 1
    16   38   39 1
    17   32   37 1
    18   12   16 am
    19   16   31 1
    20   18   37 1
    21   35   37 1
    22   12   14 1
    23   36   39 2
    24   13   27 1
    25   35   39 am
    26   13   28 1
    27   13   26 1
    28   10   18 1
    29    2   21 1
    30   35   40 1
    31    2   10 ar
    32    2    8 ar
    33    4   10 ar
    34   14   29 1
    35    8   14 1
    36   14   30 1
    37    3    8 ar
    38    4   23 1
    39    4   11 ar
    40    3   11 ar
    41    3   22 1
    42   11   19 1
@<TRIPOS>MOLECULE
*****
   40    42     0     0     0
SMALL
NO_CHARGES

@<TRIPOS>ATOM
      1 C1          4.4260    0.7720   19.2190 C.ar      1 <0>         0.0000
      2 C2         11.8480    1.8070   22.5330 C.ar      1 <0>         0.0000
      3 C3         11.8930   -0.4320   21.5930 C.ar      1 <0>         0.0000
      4 C4         13.9050    0.7100   22.0120 C.ar      1 <0>         0.0000
      5 C5          4.9730    1.1900   18.0020 C.ar      1 <0>         0.0000
      6 C6          7.0660    1.4120   18.8630 C.ar      1 <0>         0.0000
      7 C7          5.2250    0.7390   20.3490 C.ar      1 <0>         0.0000
      8 C8         11.1760    0.6680   22.1620 C.ar      1 <0>         0.0000
      9 C9          6.5980    1.0740   20.1570 C.ar      1 <0>         0.0000
     10 C10        13.2720    1.8560   22.4380 C.ar      1 <0>         0.0000
     11 C11        13.2400   -0.4220   21.5470 C.ar      1 <0>         0.0000
     12 C12         8.7430    1.3230   21.4390 C.2       1 <0>         0.0000
     13 C13         4.5900    0.3540   21.6360 C.3       1 <0>         0.0000
     14 C14         9.6410    0.5610   22.3880 C.3       1 <0>         0.0000
     15 N1          6.2730    1.4420   17.8120 N.ar      1 <0>         0.0000
     16 N2          7.3980    1.0110   21.3180 N.am      1 <0>         0.0000
     17 O1          9.2170    2.1940   20.7870 O.2       1 <0>         0.0000
     18 O2         14.0230    2.9770   22.7240 O.3       1 <0>         0.0000
     19 Cl1        13.9830   -1.7900   20.8480 Cl        1 <0>         0.0000
     20 H1          3.4070    0.3830   19.2310 H         1 <0>         0.0000
     21 H2         11.2970    2.6690   22.9170 H         1 <0>         0.0000
     22 H3         11.3230   -1.2990   21.2820 H         1 <0>         0.0000
     23 H4         14.9690    0.8150   21.8560 H         1 <0>         0.0000
     24 H5          4.2600    1.0860   17.1930 H         1 <0>         0.0000
     25 H6          8.0780    1.7530   18.6720 H         1 <0>         0.0000
     26 H7          3.6380    0.8670   21.8000 H         1 <0>         0.0000
     27 H8          4.4760   -0.7180   21.8010 H         1 <0>         0.0000
     28 H9          5.3240    0.6270   22.4100 H         1 <0>         0.0000
     29 H10         9.3340   -0.4470   22.0870 H         1 <0>         0.0000
     30 H11         9.4160    0.9170   23.3880 H         1 <0>         0.0000
     31 H12         7.0950    0.4120   22.0940 H         1 <0>         0.0000
     32 H13        11.7090    5.1300   21.5470 H         1 <0>         0.0000
     33 H14        13.0560    4.3190   20.7100 H         1 <0>         0.0000
     34 N3         14.2490    5.3970   23.1230 N.am      1 <0>         0.0000
     35 O3         13.6850    7.1170   21.7410 O.2       1 <0>         0.0000
     36 C15        13.3910    4.2400   22.9510 C.3       1 <0>         0.0000
     37 C16        12.7610    4.8250   21.6290 C.3       1 <0>         0.0000
     38 C17        13.7030    5.9350   22.0400 C.2       1 <0>         0.0000
     39 H15        14.3000    6.0740   23.8800 H         1 <0>         0.0000
     40 H16        12.7080    4.2280   23.8090 H         1 <0>         0.0000
@<TRIPOS>BOND
     1    5   24 1
     2    5   15 ar
     3    6   15 ar
     4    1    5 ar
     5    6   25 1
     6    6    9 ar
     7    1   20 1
     8    1    7 ar
     9    7    9 ar
    10    9   16 1
    11    7   13 1
    12   33   37 1
    13   12   17 2
    14   11   19 1
    15    3   22 1
    16   12   16 am
    17   16   31 1
    18   12   14 1
    19    3   11 ar
    20    4   11 ar
    21   32   37 1
    22    3    8 ar
    23   37   38 1
    24   36   37 1
    25   13   26 1
    26   13   27 1
    27   13   28 1
    28   35   38 2
    29    4   23 1
    30    4   10 ar
    31   34   38 am
    32   14   29 1
    33    8   14 1
    34    2    8 ar
    35   14   30 1
    36    2   10 ar
    37   10   18 1
    38    2   21 1
    39   18   36 1
    40   34   36 1
    41   36   40 1
    42   34   39 1
@<TRIPOS>MOLECULE
*****
   40    42     0     0     0
SMALL
NO_CHARGES

@<TRIPOS>ATOM
      1 C1          4.1660    0.0890   19.5900 C.ar      1 <0>         0.0000
      2 C2         11.5150    1.3550   22.5160 C.ar      1 <0>         0.0000
      3 C3         11.6770   -0.8760   21.6770 C.ar      1 <0>         0.0000
      4 C4         13.6860    0.4570   21.6560 C.ar      1 <0>         0.0000
      5 C5          4.5930    0.3030   18.3270 C.ar      1 <0>         0.0000
      6 C6          6.7570    0.0040   18.9520 C.ar      1 <0>         0.0000
      7 C7          5.0060   -0.3140   20.5670 C.ar      1 <0>         0.0000
      8 C8         10.9010    0.1210   22.3000 C.ar      1 <0>         0.0000
      9 C9          6.3680   -0.2290   20.2990 C.ar      1 <0>         0.0000
     10 C10        12.9050    1.5440   22.1720 C.ar      1 <0>         0.0000
     11 C11        13.0640   -0.7760   21.4190 C.ar      1 <0>         0.0000
     12 C12         8.5200    0.2370   21.4730 C.2       1 <0>         0.0000
     13 C13         4.4860   -0.5250   21.9440 C.3       1 <0>         0.0000
     14 C14         9.4710   -0.1290   22.6450 C.3       1 <0>         0.0000
     15 N1          5.8930    0.3300   17.9690 N.ar      1 <0>         0.0000
     16 N2          7.3620   -0.4810   21.2650 N.am      1 <0>         0.0000
     17 O1          8.7930    1.1850   20.7310 O.2       1 <0>         0.0000
     18 O2         13.5790    2.7270   22.3550 O.3       1 <0>         0.0000
     19 Cl1        13.9640   -2.0480   20.6820 Cl        1 <0>         0.0000
     20 H1          3.1150    0.1570   19.8370 H         1 <0>         0.0000
     21 H2         10.8490    2.1270   22.8900 H         1 <0>         0.0000
     22 H3         11.0870   -1.7240   21.3550 H         1 <0>         0.0000
     23 H4         14.7240    0.5680   21.3340 H         1 <0>         0.0000
     24 H5          3.9130    0.6780   17.5730 H         1 <0>         0.0000
     25 H6          7.8130   -0.0450   18.7030 H         1 <0>         0.0000
     26 H7          5.0160    0.1600   22.6140 H         1 <0>         0.0000
     27 H8          3.4030   -0.3410   22.0010 H         1 <0>         0.0000
     28 H9          4.7540   -1.5370   22.2730 H         1 <0>         0.0000
     29 H10         9.3570   -1.2080   22.7930 H         1 <0>         0.0000
     30 H11         9.2130    0.4470   23.5430 H         1 <0>         0.0000
     31 H12         7.0980   -1.1280   22.0060 H         1 <0>         0.0000
     32 N3         13.7200    5.1660   22.7370 N.am      1 <0>         0.0000
     33 O3         12.6510    6.8930   21.8340 O.2       1 <0>         0.0000
     34 C15        12.9220    3.9490   22.7690 C.3       1 <0>         0.0000
     35 C16        11.8440    4.6050   21.7890 C.3       1 <0>         0.0000
     36 C17        12.8980    5.7390   21.9000 C.2       1 <0>         0.0000
     37 H13        13.9900    5.6690   23.5840 H         1 <0>         0.0000
     38 H14        12.4370    3.7390   23.7370 H         1 <0>         0.0000
     39 H15        10.8420    4.6140   22.2350 H         1 <0>         0.0000
     40 H16        11.8040    4.2210   20.7690 H         1 <0>         0.0000
@<TRIPOS>BOND
     1    5   24 1
     2    5   15 ar
     3    6   15 ar
     4    1    5 ar
     5    6   25 1
     6    6    9 ar
     7    1   20 1
     8    1    7 ar
     9    7    9 ar
    10    9   16 1
    11    7   13 1
    12   11   19 1
    13   12   17 2
    14   35   40 1
    15   12   16 am
    16   16   31 1
    17    4   23 1
    18    3   22 1
    19    4   11 ar
    20    3   11 ar
    21   12   14 1
    22    4   10 ar
    23    3    8 ar
    24   35   36 1
    25   35   39 1
    26   34   35 1
    27   33   36 2
    28   32   36 am
    29   13   27 1
    30   13   28 1
    31   13   26 1
    32   10   18 1
    33    2   10 ar
    34    2    8 ar
    35    8   14 1
    36   18   34 1
    37    2   21 1
    38   14   29 1
    39   14   30 1
    40   32   34 1
    41   32   37 1
    42   34   38 1
@<TRIPOS>MOLECULE
*****
   40    42     0     0     0
SMALL
NO_CHARGES

@<TRIPOS>ATOM
      1 C1          4.8450    1.3940   18.8810 C.ar      1 <0>         0.0000
      2 C2         11.7950    2.0260   22.2870 C.ar      1 <0>         0.0000
      3 C3         12.1050   -0.4180   22.1110 C.ar      1 <0>         0.0000
      4 C4         14.0080    1.0980   21.9210 C.ar      1 <0>         0.0000
      5 C5          5.3890    0.9780   17.6590 C.ar      1 <0>         0.0000
      6 C6          7.3100    0.2710   18.6880 C.ar      1 <0>         0.0000
      7 C7          5.5560    1.2530   20.0410 C.ar      1 <0>         0.0000
      8 C8         11.2940    0.6860   22.3430 C.ar      1 <0>         0.0000
      9 C9          6.8920    0.7750   19.9500 C.ar      1 <0>         0.0000
     10 C10        13.2010    2.2350   22.0910 C.ar      1 <0>         0.0000
     11 C11        13.5370   -0.2410   21.9800 C.ar      1 <0>         0.0000
     12 C12         9.0990    0.8510   21.2740 C.2       1 <0>         0.0000
     13 C13         4.9760    1.5010   21.4030 C.3       1 <0>         0.0000
     14 C14         9.8280    0.4750   22.5340 C.3       1 <0>         0.0000
     15 N1          6.6440    0.4410   17.5730 N.ar      1 <0>         0.0000
     16 N2          7.7200    0.7230   21.1180 N.am      1 <0>         0.0000
     17 O1          9.6810    1.0420   20.2360 O.2       1 <0>         0.0000
     18 O2         13.8230    3.4580   22.3010 O.3       1 <0>         0.0000
     19 Cl1        14.5950   -1.5760   21.7480 Cl        1 <0>         0.0000
     20 H1          3.8130    1.7420   18.8740 H         1 <0>         0.0000
     21 H2         11.1130    2.8570   22.3800 H         1 <0>         0.0000
     22 H3         11.6870   -1.4060   22.2640 H         1 <0>         0.0000
     23 H4         15.0440    1.1880   21.6140 H         1 <0>         0.0000
     24 H5          4.7680    1.0300   16.7710 H         1 <0>         0.0000
     25 H6          8.2470   -0.2610   18.5700 H         1 <0>         0.0000
     26 H7          4.0240    2.0350   21.3300 H         1 <0>         0.0000
     27 H8          4.7680    0.6170   22.0230 H         1 <0>         0.0000
     28 H9          5.5250    2.1400   22.0920 H         1 <0>         0.0000
     29 H10         9.6420   -0.5890   22.6990 H         1 <0>         0.0000
     30 H11         9.4700    0.9560   23.4420 H         1 <0>         0.0000
     31 H12         7.2030    0.8810   21.9860 H         1 <0>         0.0000
     32 C15        13.1900    4.5140   22.9440 C.3       1 <0>         0.0000
     33 C16        12.3720    5.4660   21.9650 C.3       1 <0>         0.0000
     34 C17        13.1550    6.4820   22.6120 C.2       1 <0>         0.0000
     35 H13        14.0390    5.9460   24.3580 H         1 <0>         0.0000
     36 H14        12.5620    4.1350   23.7530 H         1 <0>         0.0000
     37 H15        11.3180    5.6590   22.1570 H         1 <0>         0.0000
     38 H16        12.5920    5.4480   20.8910 H         1 <0>         0.0000
     39 N3         13.9160    5.6610   23.3890 N.am      1 <0>         0.0000
     40 O3         12.9460    7.6490   22.9430 O.2       1 <0>         0.0000
@<TRIPOS>BOND
     1    5   24 1
     2    5   15 ar
     3    6   15 ar
     4    1    5 ar
     5    6   25 1
     6    6    9 ar
     7    1   20 1
     8    1    7 ar
     9    7    9 ar
    10    9   16 1
    11    7   13 1
    12   12   17 2
    13   33   38 1
    14   12   16 am
    15   16   31 1
    16   12   14 1
    17   13   26 1
    18   13   27 1
    19   13   28 1
    20    4   23 1
    21   11   19 1
    22    4   11 ar
    23    4   10 ar
    24   33   37 1
    25   33   34 1
    26   32   33 1
    27    3   11 ar
    28    2   10 ar
    29   10   18 1
    30    3   22 1
    31    3    8 ar
    32    2    8 ar
    33    2   21 1
    34   18   32 1
    35    8   14 1
    36   14   29 1
    37   14   30 1
    38   34   40 2
    39   34   39 am
    40   32   39 1
    41   32   36 1
    42   35   39 1
@<TRIPOS>MOLECULE
*****
   40    42     0     0     0
SMALL
NO_CHARGES

@<TRIPOS>ATOM
      1 C1          5.4360    1.1590   18.8080 C.ar      1 <0>         0.0000
      2 C2         11.7410    2.0100   23.9930 C.ar      1 <0>         0.0000
      3 C3         10.8620   -0.2530   24.1900 C.ar      1 <0>         0.0000
      4 C4         13.1580    0.2460   24.6590 C.ar      1 <0>         0.0000
      5 C5          6.3390    0.7330   17.8630 C.ar      1 <0>         0.0000
      6 C6          7.8660    0.1540   19.5790 C.ar      1 <0>         0.0000
      7 C7          5.7210    1.1260   20.1960 C.ar      1 <0>         0.0000
      8 C8         10.6590    1.0450   23.9300 C.ar      1 <0>         0.0000
      9 C9          7.0320    0.6660   20.5900 C.ar      1 <0>         0.0000
     10 C10        13.0030    1.6060   24.3130 C.ar      1 <0>         0.0000
     11 C11        12.1170   -0.6770   24.5880 C.ar      1 <0>         0.0000
     12 C12         8.8390    1.2500   22.2180 C.2       1 <0>         0.0000
     13 C13         4.7640    1.7430   21.2060 C.3       1 <0>         0.0000
     14 C14         9.2620    1.4550   23.6250 C.3       1 <0>         0.0000
     15 N1          7.5030    0.1190   18.2650 N.ar      1 <0>         0.0000
     16 N2          7.5410    0.8700   21.9120 N.am      1 <0>         0.0000
     17 O1          9.6990    1.5060   21.3650 O.2       1 <0>         0.0000
     18 O2         14.0130    2.5800   24.3870 O.3       1 <0>         0.0000
     19 Cl1        12.3080   -2.3980   24.9690 Cl        1 <0>         0.0000
     20 H1          4.5030    1.6130   18.4970 H         1 <0>         0.0000
     21 H2         11.6580    3.0690   23.7830 H         1 <0>         0.0000
     22 H3         10.0910   -1.0150   24.1730 H         1 <0>         0.0000
     23 H4         14.0960   -0.2360   24.9060 H         1 <0>         0.0000
     24 H5          6.1650    0.9210   16.8070 H         1 <0>         0.0000
     25 H6          8.8650   -0.2030   19.7950 H         1 <0>         0.0000
     26 H7          4.9250    1.1820   22.1270 H         1 <0>         0.0000
     27 H8          5.0150    2.7830   21.3910 H         1 <0>         0.0000
     28 H9          3.7010    1.6710   20.9180 H         1 <0>         0.0000
     29 H10         8.4890    0.9730   24.2290 H         1 <0>         0.0000
     30 H11         9.1680    2.5340   23.7640 H         1 <0>         0.0000
     31 H12         6.9770    0.9000   22.7550 H         1 <0>         0.0000
     32 C15        15.3090    2.4280   24.9300 C.3       1 <0>         0.0000
     33 C16        16.1470    1.3510   24.2820 C.3       1 <0>         0.0000
     34 C17        16.1710    0.8970   25.6810 C.2       1 <0>         0.0000
     35 H13        14.5390    1.5850   26.8620 H         1 <0>         0.0000
     36 H14        15.7250    3.4340   25.0180 H         1 <0>         0.0000
     37 H15        15.6820    0.6700   23.5630 H         1 <0>         0.0000
     38 H16        17.1290    1.7060   23.9560 H         1 <0>         0.0000
     39 N3         15.3390    1.7930   26.2570 N.am      1 <0>         0.0000
     40 O3         16.4770   -0.2110   26.1170 O.2       1 <0>         0.0000
@<TRIPOS>BOND
     1    5   24 1
     2    5   15 ar
     3    1    5 ar
     4    6   15 ar
     5    1   20 1
     6    1    7 ar
     7    6   25 1
     8    6    9 ar
     9    7    9 ar
    10    7   13 1
    11    9   16 1
    12   13   28 1
    13   13   27 1
    14   13   26 1
    15   12   17 2
    16   12   16 am
    17   16   31 1
    18   12   14 1
    19   33   37 1
    20   14   30 1
    21    8   14 1
    22   14   29 1
    23    2   21 1
    24    2    8 ar
    25    3    8 ar
    26   33   38 1
    27    2   10 ar
    28    3   22 1
    29    3   11 ar
    30   32   33 1
    31   33   34 1
    32   10   18 1
    33    4   10 ar
    34   18   32 1
    35    4   11 ar
    36   11   19 1
    37    4   23 1
    38   32   36 1
    39   32   39 1
    40   34   40 2
    41   34   39 am
    42   35   39 1
@<TRIPOS>MOLECULE
*****
   40    42     0     0     0
SMALL
NO_CHARGES

@<TRIPOS>ATOM
      1 C1          5.6480    1.1100   19.3000 C.ar      1 <0>         0.0000
      2 C2         10.7270    0.7860   25.9980 C.ar      1 <0>         0.0000
      3 C3         11.7650    1.4070   24.0440 C.ar      1 <0>         0.0000
      4 C4         13.1290    0.5090   25.7750 C.ar      1 <0>         0.0000
      5 C5          6.3130    0.2020   18.5670 C.ar      1 <0>         0.0000
      6 C6          7.7810   -0.1460   20.3130 C.ar      1 <0>         0.0000
      7 C7          6.1100    1.6120   20.5180 C.ar      1 <0>         0.0000
      8 C8         10.6030    1.2550   24.7310 C.ar      1 <0>         0.0000
      9 C9          7.2310    0.9220   20.9890 C.ar      1 <0>         0.0000
     10 C10        12.0020    0.5210   26.6460 C.ar      1 <0>         0.0000
     11 C11        13.0260    1.0140   24.5510 C.ar      1 <0>         0.0000
     12 C12         8.9610    1.0710   22.7260 C.2       1 <0>         0.0000
     13 C13         5.4810    2.7690   21.2210 C.3       1 <0>         0.0000
     14 C14         9.2690    1.5830   24.1420 C.3       1 <0>         0.0000
     15 N1          7.2860   -0.5710   19.1380 N.ar      1 <0>         0.0000
     16 N2          7.7030    1.3100   22.2530 N.am      1 <0>         0.0000
     17 O1          9.7630    0.3470   22.0920 O.2       1 <0>         0.0000
     18 O2         12.1730    0.1540   27.9490 O.3       1 <0>         0.0000
     19 Cl1        14.4540    1.1350   23.4730 Cl        1 <0>         0.0000
     20 H1          4.8010    1.5590   18.7970 H         1 <0>         0.0000
     21 H2          9.7910    0.7520   26.5360 H         1 <0>         0.0000
     22 H3         11.8940    1.9020   23.0910 H         1 <0>         0.0000
     23 H4         14.1180    0.1850   26.0750 H         1 <0>         0.0000
     24 H5          5.8990   -0.0680   17.6040 H         1 <0>         0.0000
     25 H6          8.5100   -0.8250   20.7300 H         1 <0>         0.0000
     26 H7          4.7040    3.3160   20.6770 H         1 <0>         0.0000
     27 H8          5.0650    2.4980   22.1930 H         1 <0>         0.0000
     28 H9          6.2660    3.5010   21.4220 H         1 <0>         0.0000
     29 H10         8.4910    1.1570   24.7860 H         1 <0>         0.0000
     30 H11         9.1280    2.6650   24.1860 H         1 <0>         0.0000
     31 H12         7.1480    1.9620   22.8070 H         1 <0>         0.0000
     32 N3         11.4190    0.3990   30.2330 N.am      1 <0>         0.0000
     33 O3         11.9970    2.4330   31.2120 O.2       1 <0>         0.0000
     34 C15        11.0760    0.4560   28.8180 C.3       1 <0>         0.0000
     35 C16        10.8660    2.0830   28.9800 C.3       1 <0>         0.0000
     36 C17        11.3900    1.7420   30.3700 C.2       1 <0>         0.0000
     37 H13        12.2750   -0.0700   30.5240 H         1 <0>         0.0000
     38 H14        10.1560   -0.0940   28.6100 H         1 <0>         0.0000
     39 H15         9.8200    2.3620   29.1480 H         1 <0>         0.0000
     40 H16        11.4470    2.7550   28.3390 H         1 <0>         0.0000
@<TRIPOS>BOND
     1    5   24 1
     2    5   15 ar
     3    1    5 ar
     4    1   20 1
     5    6   15 ar
     6    1    7 ar
     7    6   25 1
     8    6    9 ar
     9    7    9 ar
    10    7   13 1
    11   13   26 1
    12    9   16 1
    13   13   28 1
    14   13   27 1
    15   12   17 2
    16   12   16 am
    17   16   31 1
    18   12   14 1
    19    3   22 1
    20   11   19 1
    21    3   11 ar
    22    3    8 ar
    23   14   30 1
    24    8   14 1
    25   14   29 1
    26    4   11 ar
    27    2    8 ar
    28    4   23 1
    29    4   10 ar
    30    2   21 1
    31    2   10 ar
    32   10   18 1
    33   18   34 1
    34   35   40 1
    35   34   38 1
    36   34   35 1
    37   32   34 1
    38   35   39 1
    39   35   36 1
    40   32   36 am
    41   32   37 1
    42   33   36 2
@<TRIPOS>MOLECULE
*****
   40    42     0     0     0
SMALL
NO_CHARGES

@<TRIPOS>ATOM
      1 C1          7.3530    1.6380   20.3570 C.ar      1 <0>         0.0000
      2 C2         10.7100   -3.0690   24.0060 C.ar      1 <0>         0.0000
      3 C3         11.8650   -3.1970   21.9190 C.ar      1 <0>         0.0000
      4 C4         12.9230   -2.1230   23.8150 C.ar      1 <0>         0.0000
      5 C5          6.9520    1.2670   19.0190 C.ar      1 <0>         0.0000
      6 C6          7.7880   -0.8170   19.3670 C.ar      1 <0>         0.0000
      7 C7          7.9720    0.6140   21.2100 C.ar      1 <0>         0.0000
      8 C8         10.7280   -3.4460   22.6740 C.ar      1 <0>         0.0000
      9 C9          8.1570   -0.6530   20.6550 C.ar      1 <0>         0.0000
     10 C10        11.7670   -2.3340   24.5770 C.ar      1 <0>         0.0000
     11 C11        12.9600   -2.5400   22.4560 C.ar      1 <0>         0.0000
     12 C12         8.7270   -3.0910   21.2000 C.2       1 <0>         0.0000
     13 C13         8.4080    0.9660   22.6210 C.3       1 <0>         0.0000
     14 C14         9.5280   -4.0890   22.0670 C.3       1 <0>         0.0000
     15 N1          7.2020    0.0840   18.5100 N.ar      1 <0>         0.0000
     16 N2          8.7410   -1.7060   21.4200 N.am      1 <0>         0.0000
     17 O1          7.8540   -3.6130   20.4680 O.2       1 <0>         0.0000
     18 O2         11.7580   -1.7760   25.8690 O.3       1 <0>         0.0000
     19 Cl1        14.3510   -2.1310   21.4000 Cl        1 <0>         0.0000
     20 H1          7.2550    2.6750   20.6780 H         1 <0>         0.0000
     21 H2          9.8130   -3.1980   24.5900 H         1 <0>         0.0000
     22 H3         11.8620   -3.5550   20.8990 H         1 <0>         0.0000
     23 H4         13.7230   -1.5380   24.2510 H         1 <0>         0.0000
     24 H5          6.4470    1.9450   18.3390 H         1 <0>         0.0000
     25 H6          8.0360   -1.8250   19.0580 H         1 <0>         0.0000
     26 H7          7.9020    1.8310   23.0670 H         1 <0>         0.0000
     27 H8          8.3170    0.0690   23.2340 H         1 <0>         0.0000
     28 H9          9.4660    1.2290   22.6490 H         1 <0>         0.0000
     29 H10         9.7970   -4.9830   21.5000 H         1 <0>         0.0000
     30 H11         8.8210   -4.5080   22.8050 H         1 <0>         0.0000
     31 H12         9.4590   -1.4400   22.1000 H         1 <0>         0.0000
     32 C15        10.7260   -2.1260   26.7520 C.3       1 <0>         0.0000
     33 C16         9.2670   -1.5380   26.5200 C.3       1 <0>         0.0000
     34 C17         9.5430   -0.8870   27.7950 C.2       1 <0>         0.0000
     35 H13        11.6000   -0.9900   28.3750 H         1 <0>         0.0000
     36 H14        10.7940   -3.2180   26.8480 H         1 <0>         0.0000
     37 H15         8.4700   -2.2770   26.5490 H         1 <0>         0.0000
     38 H16         9.1920   -0.7460   25.7670 H         1 <0>         0.0000
     39 N3         10.7640   -1.4700   28.0460 N.am      1 <0>         0.0000
     40 O3          9.1840    0.2300   28.2080 O.2       1 <0>         0.0000
@<TRIPOS>BOND
     1    5   24 1
     2    5   15 ar
     3    6   15 ar
     4    1    5 ar
     5    6   25 1
     6    6    9 ar
     7    1   20 1
     8    1    7 ar
     9   12   17 2
    10    7    9 ar
    11    9   16 1
    12    3   22 1
    13   12   16 am
    14   12   14 1
    15    7   13 1
    16   11   19 1
    17   16   31 1
    18   14   29 1
    19    3   11 ar
    20    3    8 ar
    21    8   14 1
    22   14   30 1
    23    4   11 ar
    24   13   28 1
    25   13   26 1
    26   13   27 1
    27    2    8 ar
    28    4   23 1
    29    4   10 ar
    30    2   10 ar
    31    2   21 1
    32   10   18 1
    33   33   38 1
    34   18   32 1
    35   33   37 1
    36   32   33 1
    37   33   34 1
    38   32   36 1
    39   32   39 1
    40   34   39 am
    41   34   40 2
    42   35   39 1
@<TRIPOS>MOLECULE
*****
   40    42     0     0     0
SMALL
NO_CHARGES

@<TRIPOS>ATOM
      1 C1          4.4650    1.7510   19.6320 C.ar      1 <0>         0.0000
      2 C2          8.0310   -3.1850   22.8730 C.ar      1 <0>         0.0000
      3 C3          7.0990   -5.4500   22.9270 C.ar      1 <0>         0.0000
      4 C4          9.4930   -5.0510   23.2640 C.ar      1 <0>         0.0000
      5 C5          5.1180    1.5870   18.4180 C.ar      1 <0>         0.0000
      6 C6          6.1810   -0.2880   19.1190 C.ar      1 <0>         0.0000
      7 C7          4.5880    0.7210   20.5740 C.ar      1 <0>         0.0000
      8 C8          6.9340   -4.0490   22.7860 C.ar      1 <0>         0.0000
      9 C9          5.4960   -0.2880   20.3840 C.ar      1 <0>         0.0000
     10 C10         9.3340   -3.6650   23.1600 C.ar      1 <0>         0.0000
     11 C11         8.4150   -5.9430   23.1400 C.ar      1 <0>         0.0000
     12 C12         5.6180   -2.5940   21.1870 C.2       1 <0>         0.0000
     13 C13         3.8010    0.9080   21.9330 C.3       1 <0>         0.0000
     14 C14         5.5550   -3.5200   22.4560 C.3       1 <0>         0.0000
     15 N1          5.9670    0.6520   18.1910 N.ar      1 <0>         0.0000
     16 N2          5.5860   -1.2710   21.3620 N.am      1 <0>         0.0000
     17 O1          5.6890   -3.0600   20.0470 O.2       1 <0>         0.0000
     18 O2         10.4490   -2.8770   23.2130 O.3       1 <0>         0.0000
     19 Cl1         8.6470   -7.6530   23.1770 Cl        1 <0>         0.0000
     20 H1          3.8880    2.6530   19.7400 H         1 <0>         0.0000
     21 H2          7.9120   -2.1110   22.7790 H         1 <0>         0.0000
     22 H3          6.2520   -6.1110   22.7970 H         1 <0>         0.0000
     23 H4         10.5040   -5.4310   23.3500 H         1 <0>         0.0000
     24 H5          4.9450    2.3330   17.6440 H         1 <0>         0.0000
     25 H6          6.9300   -1.0590   19.0210 H         1 <0>         0.0000
     26 H7          4.3780    1.4460   22.6970 H         1 <0>         0.0000
     27 H8          2.9340    1.5600   21.8090 H         1 <0>         0.0000
     28 H9          3.3960   -0.0610   22.2650 H         1 <0>         0.0000
     29 H10         4.8000   -4.2640   22.1890 H         1 <0>         0.0000
     30 H11         5.1040   -2.9170   23.2520 H         1 <0>         0.0000
     31 H12         5.5160   -0.9410   22.3270 H         1 <0>         0.0000
     32 H13        10.1110   -2.6340   21.2420 H         1 <0>         0.0000
     33 H14        12.5030   -3.5030   20.7110 H         1 <0>         0.0000
     34 H15        12.6970   -3.6400   22.5110 H         1 <0>         0.0000
     35 N3         11.4730   -1.1420   22.0670 N.am      1 <0>         0.0000
     36 O3         13.7480   -1.3330   22.1570 O.2       1 <0>         0.0000
     37 C15        10.8920   -2.4300   21.9760 C.3       1 <0>         0.0000
     38 C16        12.2650   -3.0660   21.6850 C.3       1 <0>         0.0000
     39 C17        12.6540   -1.6840   21.8050 C.2       1 <0>         0.0000
     40 H16        11.2750   -0.5030   22.8410 H         1 <0>         0.0000
@<TRIPOS>BOND
     1    5   24 1
     2    5   15 ar
     3    6   15 ar
     4    1    5 ar
     5    6   25 1
     6    6    9 ar
     7    1   20 1
     8    1    7 ar
     9   12   17 2
    10    7    9 ar
    11    9   16 1
    12    7   13 1
    13   33   38 1
    14   12   16 am
    15   12   14 1
    16   32   37 1
    17   16   31 1
    18   38   39 1
    19   37   38 1
    20   34   38 1
    21   35   39 am
    22   36   39 2
    23   13   27 1
    24   13   28 1
    25   13   26 1
    26   35   37 1
    27   18   37 1
    28   35   40 1
    29   14   29 1
    30    8   14 1
    31   14   30 1
    32    2   21 1
    33    2    8 ar
    34    3    8 ar
    35    3   22 1
    36    2   10 ar
    37    3   11 ar
    38   11   19 1
    39    4   11 ar
    40   10   18 1
    41    4   10 ar
    42    4   23 1
@<TRIPOS>MOLECULE
*****
   40    42     0     0     0
SMALL
NO_CHARGES

@<TRIPOS>ATOM
      1 C1          5.8070    1.8990   18.4080 C.ar      1 <0>         0.0000
      2 C2          9.6870   -0.5210   22.7690 C.ar      1 <0>         0.0000
      3 C3         10.9110   -2.1170   21.4500 C.ar      1 <0>         0.0000
      4 C4         12.0850   -0.2060   22.4200 C.ar      1 <0>         0.0000
      5 C5          5.6600    1.2780   17.2000 C.ar      1 <0>         0.0000
      6 C6          6.7510   -0.5620   17.9960 C.ar      1 <0>         0.0000
      7 C7          6.4030    1.2930   19.5120 C.ar      1 <0>         0.0000
      8 C8          9.6810   -1.6770   21.9480 C.ar      1 <0>         0.0000
      9 C9          6.8640    0.0170   19.3130 C.ar      1 <0>         0.0000
     10 C10        10.8350    0.3060   22.9620 C.ar      1 <0>         0.0000
     11 C11        12.1070   -1.3800   21.6630 C.ar      1 <0>         0.0000
     12 C12         7.5760   -2.0090   20.6100 C.2       1 <0>         0.0000
     13 C13         6.3570    2.0550   20.7750 C.3       1 <0>         0.0000
     14 C14         8.4280   -2.6030   21.7210 C.3       1 <0>         0.0000
     15 N1          6.1840    0.0700   17.0110 N.ar      1 <0>         0.0000
     16 N2          7.5510   -0.6650   20.3100 N.am      1 <0>         0.0000
     17 O1          6.8250   -2.7570   19.9970 O.2       1 <0>         0.0000
     18 O2         10.7590    1.4440   23.7390 O.3       1 <0>         0.0000
     19 Cl1        13.6130   -1.7940   20.9100 Cl        1 <0>         0.0000
     20 H1          5.3290    2.8530   18.6350 H         1 <0>         0.0000
     21 H2          8.8760   -0.2570   23.4490 H         1 <0>         0.0000
     22 H3         11.0150   -2.9490   20.7430 H         1 <0>         0.0000
     23 H4         13.0490    0.2290   22.6300 H         1 <0>         0.0000
     24 H5          5.2100    1.7160   16.3220 H         1 <0>         0.0000
     25 H6          7.1510   -1.5290   17.7340 H         1 <0>         0.0000
     26 H7          7.0070    1.5160   21.4800 H         1 <0>         0.0000
     27 H8          6.7870    3.0480   20.6210 H         1 <0>         0.0000
     28 H9          5.3240    2.2400   21.0660 H         1 <0>         0.0000
     29 H10         8.8120   -3.6060   21.5310 H         1 <0>         0.0000
     30 H11         7.8480   -2.8010   22.6220 H         1 <0>         0.0000
     31 H12         8.1470   -0.0840   20.9080 H         1 <0>         0.0000
     32 C15        11.3050    3.7610   24.2620 C.3       1 <0>         0.0000
     33 C16        11.8570    4.1010   22.9060 C.2       1 <0>         0.0000
     34 H13        13.4180    2.9260   22.4590 H         1 <0>         0.0000
     35 H14        12.6390    1.9920   24.5360 H         1 <0>         0.0000
     36 H15        11.9130    4.2980   24.9930 H         1 <0>         0.0000
     37 H16        10.2170    3.8140   24.3570 H         1 <0>         0.0000
     38 N3         12.4150    2.9070   22.6420 N.am      1 <0>         0.0000
     39 O3         12.3440    5.1820   22.6230 O.2       1 <0>         0.0000
     40 C17        11.8480    2.3450   23.8750 C.3       1 <0>         0.0000
@<TRIPOS>BOND
     1    5   24 1
     2    5   15 ar
     3    6   15 ar
     4    1    5 ar
     5    6   25 1
     6    6    9 ar
     7    1   20 1
     8    1    7 ar
     9    7    9 ar
    10    9   16 1
    11    7   13 1
    12   12   17 2
    13   12   16 am
    14   16   31 1
    15   12   14 1
    16   13   27 1
    17    3   22 1
    18   13   28 1
    19   13   26 1
    20   11   19 1
    21    3   11 ar
    22    3    8 ar
    23   14   29 1
    24    4   11 ar
    25    8   14 1
    26   14   30 1
    27    2    8 ar
    28    4   23 1
    29    4   10 ar
    30   34   38 1
    31   33   39 2
    32   33   38 am
    33   38   40 1
    34    2   10 ar
    35    2   21 1
    36   32   33 1
    37   10   18 1
    38   18   40 1
    39   32   40 1
    40   35   40 1
    41   32   37 1
    42   32   36 1
@<TRIPOS>MOLECULE
*****
   40    42     0     0     0
SMALL
NO_CHARGES

@<TRIPOS>ATOM
      1 C1          4.5370    1.0360   18.8930 C.ar      1 <0>         0.0000
      2 C2         11.4720    0.6380   23.5430 C.ar      1 <0>         0.0000
      3 C3         11.3060   -1.4050   22.3150 C.ar      1 <0>         0.0000
      4 C4         13.4610   -0.6010   23.0560 C.ar      1 <0>         0.0000
      5 C5          5.0930    1.2360   17.6500 C.ar      1 <0>         0.0000
      6 C6          7.2370    0.7870   18.5780 C.ar      1 <0>         0.0000
      7 C7          5.2530    0.7220   19.9640 C.ar      1 <0>         0.0000
      8 C8         10.7010   -0.2980   22.8570 C.ar      1 <0>         0.0000
      9 C9          6.6530    0.5070   19.8170 C.ar      1 <0>         0.0000
     10 C10        12.8540    0.4800   23.6570 C.ar      1 <0>         0.0000
     11 C11        12.7640   -1.5420   22.3200 C.ar      1 <0>         0.0000
     12 C12         8.6610    0.2720   21.3690 C.2       1 <0>         0.0000
     13 C13         4.5220    0.5930   21.2770 C.3       1 <0>         0.0000
     14 C14         9.1650   -0.2100   22.7080 C.3       1 <0>         0.0000
     15 N1          6.4790    1.1220   17.4940 N.ar      1 <0>         0.0000
     16 N2          7.3180    0.1390   21.0330 N.am      1 <0>         0.0000
     17 O1          9.4150    1.0230   20.7450 O.2       1 <0>         0.0000
     18 O2         13.6370    1.2890   24.4110 O.3       1 <0>         0.0000
     19 Cl1        13.7230   -2.8170   21.5940 Cl        1 <0>         0.0000
     20 H1          3.4540    1.0600   18.8690 H         1 <0>         0.0000
     21 H2         11.0470    1.5110   24.0310 H         1 <0>         0.0000
     22 H3         10.8090   -2.2220   21.8160 H         1 <0>         0.0000
     23 H4         14.5260   -0.8050   23.0570 H         1 <0>         0.0000
     24 H5          4.4060    1.2690   16.8140 H         1 <0>         0.0000
     25 H6          8.2940    0.6220   18.3700 H         1 <0>         0.0000
     26 H7          4.8870    1.2190   22.1020 H         1 <0>         0.0000
     27 H8          3.4870    0.9190   21.1510 H         1 <0>         0.0000
     28 H9          4.4270   -0.4800   21.4710 H         1 <0>         0.0000
     29 H10         8.7140   -1.1000   23.1480 H         1 <0>         0.0000
     30 H11         8.9120    0.6430   23.3420 H         1 <0>         0.0000
     31 H12         6.7630   -0.5210   21.5770 H         1 <0>         0.0000
     32 C15        13.3530    2.7010   24.4000 C.3       1 <0>         0.0000
     33 C16        12.9280    3.3730   23.0870 C.3       1 <0>         0.0000
     34 C17        14.2170    4.0760   23.4400 C.2       1 <0>         0.0000
     35 H13        15.4890    3.1780   24.6290 H         1 <0>         0.0000
     36 H14        12.5890    2.8940   25.1470 H         1 <0>         0.0000
     37 H15        12.0820    4.0580   23.2400 H         1 <0>         0.0000
     38 H16        13.0720    2.8260   22.1490 H         1 <0>         0.0000
     39 N3         14.5300    3.5010   24.5430 N.am      1 <0>         0.0000
     40 O3         15.0170    4.5800   22.6560 O.2       1 <0>         0.0000
@<TRIPOS>BOND
     1    5   24 1
     2    5   15 ar
     3    6   15 ar
     4    1    5 ar
     5    6   25 1
     6    6    9 ar
     7    1   20 1
     8    1    7 ar
     9    7    9 ar
    10    9   16 1
    11    7   13 1
    12   12   17 2
    13   12   16 am
    14   16   31 1
    15   13   27 1
    16   13   28 1
    17   13   26 1
    18   12   14 1
    19   11   19 1
    20    3   22 1
    21   33   38 1
    22    3   11 ar
    23    3    8 ar
    24    4   11 ar
    25   34   40 2
    26    8   14 1
    27   14   29 1
    28   14   30 1
    29    2    8 ar
    30    4   23 1
    31    4   10 ar
    32   33   37 1
    33   33   34 1
    34   32   33 1
    35   34   39 am
    36    2   10 ar
    37    2   21 1
    38   10   18 1
    39   18   32 1
    40   32   39 1
    41   32   36 1
    42   35   39 1
@<TRIPOS>MOLECULE
*****
   40    42     0     0     0
SMALL
NO_CHARGES

@<TRIPOS>ATOM
      1 C1          6.4860    2.4640   19.1540 C.ar      1 <0>         0.0000
      2 C2          9.4220   -1.5790   23.2750 C.ar      1 <0>         0.0000
      3 C3         10.5910   -2.8440   21.5700 C.ar      1 <0>         0.0000
      4 C4         11.7740   -1.3770   23.0780 C.ar      1 <0>         0.0000
      5 C5          6.3160    2.0610   17.7930 C.ar      1 <0>         0.0000
      6 C6          7.1570    0.0370   18.2460 C.ar      1 <0>         0.0000
      7 C7          7.1070    1.6160   20.0780 C.ar      1 <0>         0.0000
      8 C8          9.4010   -2.5420   22.2200 C.ar      1 <0>         0.0000
      9 C9          7.3690    0.2890   19.5880 C.ar      1 <0>         0.0000
     10 C10        10.6210   -1.0490   23.7090 C.ar      1 <0>         0.0000
     11 C11        11.7660   -2.2700   22.0160 C.ar      1 <0>         0.0000
     12 C12         7.6430   -2.1410   20.3930 C.2       1 <0>         0.0000
     13 C13         7.4560    2.0270   21.5090 C.3       1 <0>         0.0000
     14 C14         8.0410   -3.0150   21.6410 C.3       1 <0>         0.0000
     15 N1          6.5890    0.8820   17.3670 N.ar      1 <0>         0.0000
     16 N2          7.8420   -0.7330   20.5300 N.am      1 <0>         0.0000
     17 O1          7.0760   -2.6190   19.4130 O.2       1 <0>         0.0000
     18 O2         10.6780    0.0770   24.6720 O.3       1 <0>         0.0000
     19 Cl1        13.2620   -2.5000   21.2070 Cl        1 <0>         0.0000
     20 H1          6.2390    3.4890   19.4250 H         1 <0>         0.0000
     21 H2          8.5200   -1.3310   23.8440 H         1 <0>         0.0000
     22 H3         10.6530   -3.4960   20.7040 H         1 <0>         0.0000
     23 H4         12.7300   -0.9290   23.3520 H         1 <0>         0.0000
     24 H5          6.0460    2.7620   17.0010 H         1 <0>         0.0000
     25 H6          7.4770   -0.8890   17.7720 H         1 <0>         0.0000
     26 H7          6.6010    1.7840   22.1380 H         1 <0>         0.0000
     27 H8          8.3400    1.6030   21.9900 H         1 <0>         0.0000
     28 H9          7.4840    3.1240   21.4920 H         1 <0>         0.0000
     29 H10         8.0890   -4.0650   21.3660 H         1 <0>         0.0000
     30 H11         7.2440   -2.9120   22.3840 H         1 <0>         0.0000
     31 H12         8.0320   -0.3980   21.4700 H         1 <0>         0.0000
     32 H13         8.8200   -0.2430   25.5280 H         1 <0>         0.0000
     33 H14         9.5290    2.2070   23.8150 H         1 <0>         0.0000
     34 H15         7.7770    1.7670   24.2600 H         1 <0>         0.0000
     35 N3          9.6390    1.3390   26.4670 N.am      1 <0>         0.0000
     36 O3          8.3080    3.1900   26.5390 O.2       1 <0>         0.0000
     37 C15         9.4970    0.5690   25.2690 C.3       1 <0>         0.0000
     38 C16         8.8320    1.8330   24.5620 C.3       1 <0>         0.0000
     39 C17         9.0530    2.3900   25.9480 C.2       1 <0>         0.0000
     40 H16         9.5010    0.9440   27.4020 H         1 <0>         0.0000
@<TRIPOS>BOND
     1    5   24 1
     2    5   15 ar
     3    6   15 ar
     4    6   25 1
     5    1    5 ar
     6    6    9 ar
     7    1   20 1
     8    1    7 ar
     9   12   17 2
    10    7    9 ar
    11    9   16 1
    12    7   13 1
    13   12   16 am
    14   12   14 1
    15   16   31 1
    16    3   22 1
    17   11   19 1
    18   14   29 1
    19   13   28 1
    20   13   27 1
    21   13   26 1
    22    3   11 ar
    23    3    8 ar
    24    8   14 1
    25   14   30 1
    26    4   11 ar
    27    2    8 ar
    28    4   23 1
    29    4   10 ar
    30    2   10 ar
    31    2   21 1
    32   10   18 1
    33   33   38 1
    34   34   38 1
    35   37   38 1
    36   38   39 1
    37   18   37 1
    38   32   37 1
    39   35   37 1
    40   35   39 am
    41   36   39 2
    42   35   40 1
@<TRIPOS>MOLECULE
*****
   40    42     0     0     0
SMALL
NO_CHARGES

@<TRIPOS>ATOM
      1 C1          5.2700    1.6650   19.0050 C.ar      1 <0>         0.0000
      2 C2         11.9220    0.5150   22.4910 C.ar      1 <0>         0.0000
      3 C3         12.2890   -1.6740   21.5550 C.ar      1 <0>         0.0000
      4 C4         14.1590   -0.2690   22.0530 C.ar      1 <0>         0.0000
      5 C5          5.7150    1.4300   17.7030 C.ar      1 <0>         0.0000
      6 C6          7.5370    0.0820   18.3790 C.ar      1 <0>         0.0000
      7 C7          6.0020    1.0840   20.0330 C.ar      1 <0>         0.0000
      8 C8         11.3870   -0.6620   22.0040 C.ar      1 <0>         0.0000
      9 C9          7.1100    0.2110   19.7820 C.ar      1 <0>         0.0000
     10 C10        13.3200    0.7600   22.5210 C.ar      1 <0>         0.0000
     11 C11        13.6950   -1.4730   21.5760 C.ar      1 <0>         0.0000
     12 C12         9.0580    0.0250   21.1640 C.2       1 <0>         0.0000
     13 C13         5.5900    1.3700   21.4430 C.3       1 <0>         0.0000
     14 C14         9.9330   -0.9840   22.0330 C.3       1 <0>         0.0000
     15 N1          6.7780    0.6310   17.3840 N.ar      1 <0>         0.0000
     16 N2          7.7900   -0.4160   20.7980 N.am      1 <0>         0.0000
     17 O1          9.5230    1.0640   20.6740 O.2       1 <0>         0.0000
     18 O2         13.8470    1.9680   23.0110 O.3       1 <0>         0.0000
     19 Cl1        14.7490   -2.5690   20.7870 Cl        1 <0>         0.0000
     20 H1          4.4600    2.3690   19.1640 H         1 <0>         0.0000
     21 H2         11.1860    1.2190   22.8710 H         1 <0>         0.0000
     22 H3         12.0040   -2.6590   21.1940 H         1 <0>         0.0000
     23 H4         15.2380   -0.1180   22.1250 H         1 <0>         0.0000
     24 H5          5.2990    2.0110   16.8890 H         1 <0>         0.0000
     25 H6          8.3830   -0.5660   18.1590 H         1 <0>         0.0000
     26 H7          4.9300    2.2350   21.4670 H         1 <0>         0.0000
     27 H8          5.0500    0.5580   21.9310 H         1 <0>         0.0000
     28 H9          6.4210    1.7140   22.0650 H         1 <0>         0.0000
     29 H10         9.6570   -1.9710   21.6620 H         1 <0>         0.0000
     30 H11         9.5530   -0.9610   23.0530 H         1 <0>         0.0000
     31 H12         7.5910   -1.3880   21.0400 H         1 <0>         0.0000
     32 H13        14.9130    4.2420   23.1400 H         1 <0>         0.0000
     33 H14        13.6960    5.2610   22.0880 H         1 <0>         0.0000
     34 N3         12.2570    3.6450   23.9190 N.am      1 <0>         0.0000
     35 O3         13.4060    5.4290   25.0110 O.2       1 <0>         0.0000
     36 C15        13.0750    3.1720   22.7650 C.3       1 <0>         0.0000
     37 C16        13.8990    4.4810   22.8260 C.3       1 <0>         0.0000
     38 C17        13.0610    4.6910   24.0450 C.2       1 <0>         0.0000
     39 H15        12.0410    3.0830   24.7380 H         1 <0>         0.0000
     40 H16        12.4320    3.1170   21.8730 H         1 <0>         0.0000
@<TRIPOS>BOND
     1    5   24 1
     2    5   15 ar
     3    6   15 ar
     4    1    5 ar
     5    6   25 1
     6    6    9 ar
     7    1   20 1
     8    1    7 ar
     9    7    9 ar
    10    9   16 1
    11    7   13 1
    12   12   17 2
    13   11   19 1
    14   16   31 1
    15   12   16 am
    16   12   14 1
    17    3   22 1
    18   13   26 1
    19   13   27 1
    20   13   28 1
    21    3   11 ar
    22    3    8 ar
    23    4   11 ar
    24   14   29 1
    25   36   40 1
    26    8   14 1
    27    2    8 ar
    28   14   30 1
    29    4   23 1
    30    4   10 ar
    31   33   37 1
    32    2   10 ar
    33    2   21 1
    34   10   18 1
    35   36   37 1
    36   18   36 1
    37   34   36 1
    38   32   37 1
    39   37   38 1
    40   34   38 am
    41   34   39 1
    42   35   38 2
@<TRIPOS>MOLECULE
*****
   40    42     0     0     0
SMALL
NO_CHARGES

@<TRIPOS>ATOM
      1 C1          6.0420    2.4390   19.6240 C.ar      1 <0>         0.0000
      2 C2          9.0660   -1.4970   23.9920 C.ar      1 <0>         0.0000
      3 C3         10.9070   -1.2870   22.4490 C.ar      1 <0>         0.0000
      4 C4         11.1020   -0.3060   24.5840 C.ar      1 <0>         0.0000
      5 C5          6.1860    2.3690   18.2110 C.ar      1 <0>         0.0000
      6 C6          7.6060    0.5410   18.4720 C.ar      1 <0>         0.0000
      7 C7          6.6980    1.6020   20.5010 C.ar      1 <0>         0.0000
      8 C8          9.5660   -1.7670   22.7080 C.ar      1 <0>         0.0000
      9 C9          7.5280    0.6350   19.8870 C.ar      1 <0>         0.0000
     10 C10         9.8500   -0.6920   24.8790 C.ar      1 <0>         0.0000
     11 C11        11.6850   -0.5990   23.3800 C.ar      1 <0>         0.0000
     12 C12         8.0000   -1.5900   20.7000 C.2       1 <0>         0.0000
     13 C13         6.4580    1.6500   22.0080 C.3       1 <0>         0.0000
     14 C14         8.7320   -2.4880   21.6710 C.3       1 <0>         0.0000
     15 N1          6.9880    1.4490   17.6450 N.ar      1 <0>         0.0000
     16 N2          8.2080   -0.2560   20.7490 N.am      1 <0>         0.0000
     17 O1          7.4870   -2.1080   19.7370 O.2       1 <0>         0.0000
     18 O2          9.3520   -0.2320   26.1400 O.3       1 <0>         0.0000
     19 Cl1        13.3950   -0.1960   23.0330 Cl        1 <0>         0.0000
     20 H1          5.3730    3.1820   20.0490 H         1 <0>         0.0000
     21 H2          8.0450   -1.8100   24.2430 H         1 <0>         0.0000
     22 H3         11.4880   -1.5040   21.5510 H         1 <0>         0.0000
     23 H4         11.7210    0.2770   25.2550 H         1 <0>         0.0000
     24 H5          5.7080    3.1390   17.6230 H         1 <0>         0.0000
     25 H6          8.1030   -0.2980   17.9990 H         1 <0>         0.0000
     26 H7          5.8310    0.8540   22.4270 H         1 <0>         0.0000
     27 H8          7.4400    1.6130   22.4830 H         1 <0>         0.0000
     28 H9          6.1510    2.6410   22.3660 H         1 <0>         0.0000
     29 H10         9.4370   -3.1310   21.1500 H         1 <0>         0.0000
     30 H11         8.0090   -3.1370   22.1630 H         1 <0>         0.0000
     31 H12         8.4920    0.0510   21.6760 H         1 <0>         0.0000
     32 H13         7.5800   -1.3670   26.4560 H         1 <0>         0.0000
     33 H14         5.9340    0.4010   25.6630 H         1 <0>         0.0000
     34 H15         7.3720    1.5040   25.2570 H         1 <0>         0.0000
     35 N3          7.8270    0.2270   27.7730 N.am      1 <0>         0.0000
     36 O3          6.8750    2.3110   27.8140 O.2       1 <0>         0.0000
     37 C15         7.9970   -0.3620   26.4680 C.3       1 <0>         0.0000
     38 C16         6.9240    0.7800   25.9360 C.3       1 <0>         0.0000
     39 C17         7.0650    1.2010   27.3240 C.2       1 <0>         0.0000
     40 H16         8.6080    0.4450   28.3830 H         1 <0>         0.0000
@<TRIPOS>BOND
     1    5   24 1
     2    5   15 ar
     3    6   15 ar
     4    6   25 1
     5    1    5 ar
     6    6    9 ar
     7    1   20 1
     8    1    7 ar
     9   12   17 2
    10    7    9 ar
    11    9   16 1
    12    7   13 1
    13   12   16 am
    14   12   14 1
    15   16   31 1
    16   14   29 1
    17    3   22 1
    18   14   30 1
    19    8   14 1
    20   13   28 1
    21   13   26 1
    22   13   27 1
    23    3    8 ar
    24    3   11 ar
    25    2    8 ar
    26   11   19 1
    27    4   11 ar
    28    2   21 1
    29    2   10 ar
    30    4   10 ar
    31    4   23 1
    32   10   18 1
    33   34   38 1
    34   33   38 1
    35   37   38 1
    36   38   39 1
    37   18   37 1
    38   32   37 1
    39   35   37 1
    40   35   39 am
    41   36   39 2
    42   35   40 1
@<TRIPOS>MOLECULE
*****
   40    42     0     0     0
SMALL
NO_CHARGES

@<TRIPOS>ATOM
      1 C1          5.0870    1.9260   19.0990 C.ar      1 <0>         0.0000
      2 C2         11.1640    0.6960   23.7850 C.ar      1 <0>         0.0000
      3 C3         11.7600   -1.2580   22.3600 C.ar      1 <0>         0.0000
      4 C4         13.5190    0.0970   23.3980 C.ar      1 <0>         0.0000
      5 C5          5.6020    1.7650   17.8300 C.ar      1 <0>         0.0000
      6 C6          7.3930    0.6030   18.6660 C.ar      1 <0>         0.0000
      7 C7          5.7070    1.3910   20.2020 C.ar      1 <0>         0.0000
      8 C8         10.7530   -0.4340   22.9500 C.ar      1 <0>         0.0000
      9 C9          6.8110    0.5970   19.9510 C.ar      1 <0>         0.0000
     10 C10        12.5570    0.9170   24.0760 C.ar      1 <0>         0.0000
     11 C11        13.1340   -0.9480   22.5170 C.ar      1 <0>         0.0000
     12 C12         8.7760    0.0100   21.3110 C.2       1 <0>         0.0000
     13 C13         5.1230    1.5250   21.5760 C.3       1 <0>         0.0000
     14 C14         9.2950   -0.6710   22.5650 C.3       1 <0>         0.0000
     15 N1          6.7280    1.0750   17.5480 N.ar      1 <0>         0.0000
     16 N2          7.4170   -0.0600   20.9990 N.am      1 <0>         0.0000
     17 O1          9.5910    0.6240   20.5530 O.2       1 <0>         0.0000
     18 O2         13.0080    1.9040   24.9350 O.3       1 <0>         0.0000
     19 Cl1        14.3530   -2.0270   21.7300 Cl        1 <0>         0.0000
     20 H1          4.3010    2.6810   19.1120 H         1 <0>         0.0000
     21 H2         10.3260    1.2360   24.2180 H         1 <0>         0.0000
     22 H3         11.4120   -2.0010   21.6490 H         1 <0>         0.0000
     23 H4         14.5890    0.1960   23.4870 H         1 <0>         0.0000
     24 H5          5.0740    2.1660   16.9720 H         1 <0>         0.0000
     25 H6          8.3120    0.0830   18.4150 H         1 <0>         0.0000
     26 H7          5.9660    1.9050   22.1620 H         1 <0>         0.0000
     27 H8          4.3970    2.3310   21.4600 H         1 <0>         0.0000
     28 H9          4.6440    0.6140   21.9300 H         1 <0>         0.0000
     29 H10         9.0910   -1.7440   22.4370 H         1 <0>         0.0000
     30 H11         8.6660   -0.3530   23.4050 H         1 <0>         0.0000
     31 H12         6.8220   -0.4090   21.7580 H         1 <0>         0.0000
     32 C15        13.2180    3.1520   24.3570 C.3       1 <0>         0.0000
     33 C16        14.4650    3.2020   23.4420 C.3       1 <0>         0.0000
     34 C17        14.7740    4.3060   24.4700 C.2       1 <0>         0.0000
     35 H13        13.3190    5.0520   25.4950 H         1 <0>         0.0000
     36 H14        12.3060    3.4810   23.8540 H         1 <0>         0.0000
     37 H15        14.2910    3.4890   22.3950 H         1 <0>         0.0000
     38 H16        15.1610    2.3620   23.4910 H         1 <0>         0.0000
     39 N3         13.7310    4.1480   25.2660 N.am      1 <0>         0.0000
     40 O3         15.2890    5.4230   24.1940 O.2       1 <0>         0.0000
@<TRIPOS>BOND
     1    5   24 1
     2    5   15 ar
     3    6   15 ar
     4    1    5 ar
     5    6   25 1
     6    6    9 ar
     7    1   20 1
     8    1    7 ar
     9    7    9 ar
    10    9   16 1
    11    7   13 1
    12   12   17 2
    13   12   16 am
    14   16   31 1
    15   12   14 1
    16   13   27 1
    17   13   28 1
    18   13   26 1
    19    3   22 1
    20   11   19 1
    21    3   11 ar
    22    3    8 ar
    23   33   37 1
    24   14   29 1
    25    4   11 ar
    26    8   14 1
    27   14   30 1
    28    2    8 ar
    29    4   23 1
    30    4   10 ar
    31   33   38 1
    32   32   33 1
    33   33   34 1
    34    2   10 ar
    35    2   21 1
    36   32   36 1
    37   10   18 1
    38   34   40 2
    39   18   32 1
    40   32   39 1
    41   34   39 am
    42   35   39 1
@<TRIPOS>MOLECULE
*****
   40    42     0     0     0
SMALL
NO_CHARGES

@<TRIPOS>ATOM
      1 C1          9.5260    3.3890   30.2390 C.ar      1 <0>         0.0000
      2 C2         13.5990    1.1100   25.2650 C.ar      1 <0>         0.0000
      3 C3         13.3890   -0.9780   24.2030 C.ar      1 <0>         0.0000
      4 C4         14.6610    0.7020   23.1220 C.ar      1 <0>         0.0000
      5 C5          9.7740    2.7520   31.4470 C.ar      1 <0>         0.0000
      6 C6         10.9720    1.1150   30.3910 C.ar      1 <0>         0.0000
      7 C7          9.9690    2.8680   29.0550 C.ar      1 <0>         0.0000
      8 C8         13.0910   -0.1330   25.2380 C.ar      1 <0>         0.0000
      9 C9         10.6550    1.6430   29.0800 C.ar      1 <0>         0.0000
     10 C10        14.3830    1.5840   24.1570 C.ar      1 <0>         0.0000
     11 C11        14.1810   -0.5900   23.0660 C.ar      1 <0>         0.0000
     12 C12        12.1640    0.1210   27.7420 C.2       1 <0>         0.0000
     13 C13         9.5940    3.5250   27.7590 C.3       1 <0>         0.0000
     14 C14        12.3280   -0.7530   26.4980 C.3       1 <0>         0.0000
     15 N1         10.5180    1.6680   31.5440 N.ar      1 <0>         0.0000
     16 N2         11.0820    0.9520   27.8950 N.am      1 <0>         0.0000
     17 O1         13.0680    0.2000   28.5630 O.2       1 <0>         0.0000
     18 O2         14.9180    2.9190   23.9900 O.3       1 <0>         0.0000
     19 Cl1        14.4680   -1.7300   21.7470 Cl        1 <0>         0.0000
     20 H1          8.8230    4.2070   30.1160 H         1 <0>         0.0000
     21 H2         13.3900    1.7680   26.0950 H         1 <0>         0.0000
     22 H3         12.9890   -1.9830   24.1820 H         1 <0>         0.0000
     23 H4         15.3290    1.1190   22.3730 H         1 <0>         0.0000
     24 H5          9.3470    3.2160   32.3260 H         1 <0>         0.0000
     25 H6         11.5190    0.1750   30.3610 H         1 <0>         0.0000
     26 H7          9.9640    2.9210   26.9230 H         1 <0>         0.0000
     27 H8          8.5060    3.6560   27.6630 H         1 <0>         0.0000
     28 H9         10.0430    4.5290   27.7650 H         1 <0>         0.0000
     29 H10        11.3380   -1.1530   26.2750 H         1 <0>         0.0000
     30 H11        13.0340   -1.5400   26.7780 H         1 <0>         0.0000
     31 H12        10.4980    1.0550   27.0670 H         1 <0>         0.0000
     32 H13        14.3390    3.6400   25.8600 H         1 <0>         0.0000
     33 H14        12.0680    3.9860   25.1350 H         1 <0>         0.0000
     34 H15        12.6110    3.9650   23.3260 H         1 <0>         0.0000
     35 N3         14.6690    5.2150   24.4480 N.am      1 <0>         0.0000
     36 O3         12.8260    6.6570   24.7940 O.2       1 <0>         0.0000
     37 C15        14.2880    3.8420   24.7800 C.3       1 <0>         0.0000
     38 C16        12.7950    4.2600   24.3670 C.3       1 <0>         0.0000
     39 C17        13.3740    5.5990   24.4190 C.2       1 <0>         0.0000
     40 H16        15.3310    5.7510   25.0030 H         1 <0>         0.0000
@<TRIPOS>BOND
     1   11   19 1
     2    4   23 1
     3    4   11 ar
     4    3   11 ar
     5    4   10 ar
     6   34   38 1
     7   10   18 1
     8   18   37 1
     9    2   10 ar
    10    3   22 1
    11    3    8 ar
    12   38   39 1
    13   37   38 1
    14   33   38 1
    15   35   39 am
    16   36   39 2
    17   35   37 1
    18   35   40 1
    19   32   37 1
    20    2    8 ar
    21    8   14 1
    22    2   21 1
    23   14   29 1
    24   14   30 1
    25   12   14 1
    26   13   26 1
    27   16   31 1
    28   13   27 1
    29   12   16 am
    30   12   17 2
    31   13   28 1
    32    7   13 1
    33    9   16 1
    34    7    9 ar
    35    1    7 ar
    36    6    9 ar
    37    1   20 1
    38    1    5 ar
    39    6   25 1
    40    6   15 ar
    41    5   15 ar
    42    5   24 1
@<TRIPOS>MOLECULE
*****
   40    42     0     0     0
SMALL
NO_CHARGES

@<TRIPOS>ATOM
      1 C1          6.7120    1.8280   18.9250 C.ar      1 <0>         0.0000
      2 C2         10.4090   -1.6800   22.9620 C.ar      1 <0>         0.0000
      3 C3         11.5130   -3.0100   21.3050 C.ar      1 <0>         0.0000
      4 C4         12.8280   -1.6090   22.7240 C.ar      1 <0>         0.0000
      5 C5          6.2680    1.2750   17.7560 C.ar      1 <0>         0.0000
      6 C6          7.2250   -0.7670   18.2090 C.ar      1 <0>         0.0000
      7 C7          7.4500    1.0680   19.8450 C.ar      1 <0>         0.0000
      8 C8         10.3540   -2.6190   21.9340 C.ar      1 <0>         0.0000
      9 C9          7.7880   -0.2490   19.4280 C.ar      1 <0>         0.0000
     10 C10        11.6040   -1.0890   23.3580 C.ar      1 <0>         0.0000
     11 C11        12.7140   -2.5790   21.7230 C.ar      1 <0>         0.0000
     12 C12         8.2140   -2.4420   20.5540 C.2       1 <0>         0.0000
     13 C13         7.8220    1.5760   21.1870 C.3       1 <0>         0.0000
     14 C14         8.9980   -3.2170   21.6480 C.3       1 <0>         0.0000
     15 N1          6.5530    0.0270   17.3400 N.ar      1 <0>         0.0000
     16 N2          8.5440   -1.1240   20.2670 N.am      1 <0>         0.0000
     17 O1          7.4480   -3.0630   19.9090 O.2       1 <0>         0.0000
     18 O2         11.5200   -0.1260   24.3540 O.3       1 <0>         0.0000
     19 Cl1        14.1450   -3.1000   20.9170 Cl        1 <0>         0.0000
     20 H1          6.4800    2.8710   19.1230 H         1 <0>         0.0000
     21 H2          9.5110   -1.4650   23.5260 H         1 <0>         0.0000
     22 H3         11.4980   -3.7050   20.4710 H         1 <0>         0.0000
     23 H4         13.8240   -1.2290   22.8910 H         1 <0>         0.0000
     24 H5          5.9410    2.0440   17.0600 H         1 <0>         0.0000
     25 H6          7.5200   -1.7880   17.9710 H         1 <0>         0.0000
     26 H7          6.8720    1.6480   21.7300 H         1 <0>         0.0000
     27 H8          8.5100    0.9270   21.7340 H         1 <0>         0.0000
     28 H9          8.2440    2.5740   21.0100 H         1 <0>         0.0000
     29 H10         9.2880   -4.1660   21.1910 H         1 <0>         0.0000
     30 H11         8.3910   -3.5270   22.5020 H         1 <0>         0.0000
     31 H12         9.1150   -0.6880   20.9860 H         1 <0>         0.0000
     32 C15        12.7070    0.5590   24.6270 C.3       1 <0>         0.0000
     33 C16        13.4330    0.1320   25.9000 C.3       1 <0>         0.0000
     34 C17        13.2570    1.5880   26.2170 C.2       1 <0>         0.0000
     35 H13        12.4880    2.6880   24.6250 H         1 <0>         0.0000
     36 H14        13.3670    0.5220   23.7570 H         1 <0>         0.0000
     37 H15        12.7770   -0.5590   26.4410 H         1 <0>         0.0000
     38 H16        14.4350   -0.2220   25.6590 H         1 <0>         0.0000
     39 N3         12.3970    1.8500   25.2040 N.am      1 <0>         0.0000
     40 O3         14.1370    2.3000   26.7040 O.2       1 <0>         0.0000
@<TRIPOS>BOND
     1    5   24 1
     2    5   15 ar
     3    6   15 ar
     4    1    5 ar
     5    6   25 1
     6    6    9 ar
     7    1   20 1
     8    1    7 ar
     9    7    9 ar
    10    9   16 1
    11    7   13 1
    12   12   17 2
    13   12   16 am
    14   16   31 1
    15    3   22 1
    16   12   14 1
    17   11   19 1
    18   13   28 1
    19   13   26 1
    20   13   27 1
    21   14   29 1
    22    3   11 ar
    23    3    8 ar
    24    8   14 1
    25   14   30 1
    26    4   11 ar
    27    2    8 ar
    28    4   23 1
    29    4   10 ar
    30    2   10 ar
    31    2   21 1
    32   10   18 1
    33   32   36 1
    34   18   32 1
    35   35   39 1
    36   32   39 1
    37   32   33 1
    38   34   39 am
    39   33   38 1
    40   33   34 1
    41   33   37 1
    42   34   40 2
@<TRIPOS>MOLECULE
*****
   40    42     0     0     0
SMALL
NO_CHARGES

@<TRIPOS>ATOM
      1 C1          4.9390    1.3820   19.3020 C.ar      1 <0>         0.0000
      2 C2         11.2120   -0.4740   23.8010 C.ar      1 <0>         0.0000
      3 C3         11.5840   -2.2820   22.2440 C.ar      1 <0>         0.0000
      4 C4         13.5140   -1.2190   23.1130 C.ar      1 <0>         0.0000
      5 C5          5.6050    1.4720   18.0640 C.ar      1 <0>         0.0000
      6 C6          7.3550    0.2300   19.0090 C.ar      1 <0>         0.0000
      7 C7          5.4810    0.7180   20.4090 C.ar      1 <0>         0.0000
      8 C8         10.7340   -1.3910   22.8810 C.ar      1 <0>         0.0000
      9 C9          6.7770    0.1810   20.2810 C.ar      1 <0>         0.0000
     10 C10        12.6130   -0.3530   23.9040 C.ar      1 <0>         0.0000
     11 C11        13.0090   -2.2220   22.3110 C.ar      1 <0>         0.0000
     12 C12         8.5680   -0.4180   21.7810 C.2       1 <0>         0.0000
     13 C13         4.7500    0.7070   21.7040 C.3       1 <0>         0.0000
     14 C14         9.2730   -1.4990   22.5990 C.3       1 <0>         0.0000
     15 N1          6.7670    0.8620   17.9370 N.ar      1 <0>         0.0000
     16 N2          7.2600   -0.4880   21.4100 N.am      1 <0>         0.0000
     17 O1          9.2240    0.4780   21.3510 O.2       1 <0>         0.0000
     18 O2         13.2350    0.5160   24.8120 O.3       1 <0>         0.0000
     19 Cl1        14.0870   -3.1140   21.1930 Cl        1 <0>         0.0000
     20 H1          3.9280    1.7600   19.2180 H         1 <0>         0.0000
     21 H2         10.5390    0.1760   24.3460 H         1 <0>         0.0000
     22 H3         11.0590   -2.9650   21.5910 H         1 <0>         0.0000
     23 H4         14.6020   -1.2070   23.2070 H         1 <0>         0.0000
     24 H5          5.2040    2.0680   17.2570 H         1 <0>         0.0000
     25 H6          8.2450   -0.3730   18.8930 H         1 <0>         0.0000
     26 H7          4.9920    1.4710   22.4540 H         1 <0>         0.0000
     27 H8          3.7270    1.0340   21.4840 H         1 <0>         0.0000
     28 H9          4.7470   -0.2440   22.2510 H         1 <0>         0.0000
     29 H10         9.1170   -2.3780   21.9730 H         1 <0>         0.0000
     30 H11         8.6820   -1.7240   23.5020 H         1 <0>         0.0000
     31 H12         6.5980   -1.0020   21.9850 H         1 <0>         0.0000
     32 C15        13.0010    1.8630   24.6490 C.3       1 <0>         0.0000
     33 C16        14.0540    2.7180   23.8230 C.3       1 <0>         0.0000
     34 C17        14.2210    3.3820   25.1350 C.2       1 <0>         0.0000
     35 H13        12.7520    2.9120   26.5730 H         1 <0>         0.0000
     36 H14        12.0380    2.2380   24.3020 H         1 <0>         0.0000
     37 H15        13.6160    3.4710   23.1580 H         1 <0>         0.0000
     38 H16        14.9210    2.2140   23.3900 H         1 <0>         0.0000
     39 N3         13.3980    2.5900   25.8460 N.am      1 <0>         0.0000
     40 O3         14.6670    4.5360   25.4080 O.2       1 <0>         0.0000
@<TRIPOS>BOND
     1    5   24 1
     2    5   15 ar
     3    6   15 ar
     4    1    5 ar
     5    6   25 1
     6    6    9 ar
     7    1   20 1
     8    1    7 ar
     9    7    9 ar
    10    9   16 1
    11    7   13 1
    12   11   19 1
    13   12   17 2
    14   12   16 am
    15   16   31 1
    16   13   27 1
    17    3   22 1
    18   13   28 1
    19   13   26 1
    20   12   14 1
    21   14   29 1
    22    3   11 ar
    23    3    8 ar
    24    4   11 ar
    25    8   14 1
    26   14   30 1
    27    2    8 ar
    28    4   23 1
    29    4   10 ar
    30   33   37 1
    31   33   38 1
    32    2   10 ar
    33    2   21 1
    34   32   33 1
    35   33   34 1
    36   10   18 1
    37   32   36 1
    38   18   32 1
    39   32   39 1
    40   34   40 2
    41   34   39 am
    42   35   39 1
@<TRIPOS>MOLECULE
*****
   40    42     0     0     0
SMALL
NO_CHARGES

@<TRIPOS>ATOM
      1 C1          5.6050    1.6340   19.7640 C.ar      1 <0>         0.0000
      2 C2         11.4900    2.1000   23.5110 C.ar      1 <0>         0.0000
      3 C3         13.0840    0.2970   23.1030 C.ar      1 <0>         0.0000
      4 C4         13.9050    2.4130   23.8270 C.ar      1 <0>         0.0000
      5 C5          5.9900    1.3870   18.3880 C.ar      1 <0>         0.0000
      6 C6          7.8710    0.3330   19.1770 C.ar      1 <0>         0.0000
      7 C7          6.3580    1.1260   20.8070 C.ar      1 <0>         0.0000
      8 C8         11.7550    0.7560   23.1360 C.ar      1 <0>         0.0000
      9 C9          7.5420    0.4710   20.5510 C.ar      1 <0>         0.0000
     10 C10        12.5910    2.9420   23.8610 C.ar      1 <0>         0.0000
     11 C11        14.1460    1.1140   23.4040 C.ar      1 <0>         0.0000
     12 C12         9.7440    0.3640   21.5940 C.2       1 <0>         0.0000
     13 C13         5.9270    1.3760   22.2330 C.3       1 <0>         0.0000
     14 C14        10.6730   -0.2140   22.7660 C.3       1 <0>         0.0000
     15 N1          7.0370    0.6230   18.1150 N.ar      1 <0>         0.0000
     16 N2          8.4170    0.1410   21.6440 N.am      1 <0>         0.0000
     17 O1         10.1960    1.1380   20.7760 O.2       1 <0>         0.0000
     18 O2         12.2130    4.1440   24.3390 O.3       1 <0>         0.0000
     19 Cl1        15.6680    0.4490   23.2040 Cl        1 <0>         0.0000
     20 H1          4.7530    2.2800   19.9580 H         1 <0>         0.0000
     21 H2         10.4590    2.4280   23.4660 H         1 <0>         0.0000
     22 H3         13.3340   -0.7280   22.8480 H         1 <0>         0.0000
     23 H4         14.6590    3.0570   24.2790 H         1 <0>         0.0000
     24 H5          5.3860    1.8320   17.6020 H         1 <0>         0.0000
     25 H6          8.8280   -0.1210   18.9200 H         1 <0>         0.0000
     26 H7          5.8450    0.4140   22.7510 H         1 <0>         0.0000
     27 H8          6.6630    2.0280   22.7100 H         1 <0>         0.0000
     28 H9          4.9510    1.8790   22.2840 H         1 <0>         0.0000
     29 H10        11.1650   -1.1640   22.5220 H         1 <0>         0.0000
     30 H11        10.1200   -0.4570   23.6880 H         1 <0>         0.0000
     31 H12         8.0640   -0.4860   22.3750 H         1 <0>         0.0000
     32 N3         12.5660    5.7690   22.6040 N.am      1 <0>         0.0000
     33 O3         11.1010    7.4930   22.7040 O.2       1 <0>         0.0000
     34 C15        12.9620    5.2720   23.9350 C.3       1 <0>         0.0000
     35 C16        12.4310    6.6010   24.5650 C.3       1 <0>         0.0000
     36 C17        12.0580    6.8900   23.1150 C.2       1 <0>         0.0000
     37 H13        11.8910    5.2410   22.0550 H         1 <0>         0.0000
     38 H14        14.0470    5.2660   24.0440 H         1 <0>         0.0000
     39 H15        13.1400    7.2990   25.0030 H         1 <0>         0.0000
     40 H16        11.5530    6.4780   25.2000 H         1 <0>         0.0000
@<TRIPOS>BOND
     1    5   24 1
     2    5   15 ar
     3    6   15 ar
     4    1    5 ar
     5    6   25 1
     6    6    9 ar
     7    1   20 1
     8    1    7 ar
     9    7    9 ar
    10    9   16 1
    11   12   17 2
    12    7   13 1
    13   12   16 am
    14   12   14 1
    15   16   31 1
    16   32   37 1
    17   13   28 1
    18   13   27 1
    19   13   26 1
    20   14   29 1
    21   32   36 am
    22   32   34 1
    23   33   36 2
    24    8   14 1
    25   14   30 1
    26    3   22 1
    27    3    8 ar
    28    3   11 ar
    29   35   36 1
    30    2    8 ar
    31   11   19 1
    32    4   11 ar
    33    2   21 1
    34    2   10 ar
    35    4   10 ar
    36    4   23 1
    37   10   18 1
    38   34   38 1
    39   18   34 1
    40   34   35 1
    41   35   39 1
    42   35   40 1
@<TRIPOS>MOLECULE
*****
   40    42     0     0     0
SMALL
NO_CHARGES

@<TRIPOS>ATOM
      1 C1          4.5190    1.6850   17.8880 C.ar      1 <0>         0.0000
      2 C2         11.0290    1.6410   22.6970 C.ar      1 <0>         0.0000
      3 C3         10.8050   -0.5410   21.7650 C.ar      1 <0>         0.0000
      4 C4         12.9940    0.4990   22.0810 C.ar      1 <0>         0.0000
      5 C5          5.3270    1.4760   16.8520 C.ar      1 <0>         0.0000
      6 C6          6.9700    0.6060   18.2730 C.ar      1 <0>         0.0000
      7 C7          4.8960    1.3750   19.2380 C.ar      1 <0>         0.0000
      8 C8         10.1940    0.5720   22.3050 C.ar      1 <0>         0.0000
      9 C9          6.2260    0.8320   19.4520 C.ar      1 <0>         0.0000
     10 C10        12.4430    1.6540   22.6500 C.ar      1 <0>         0.0000
     11 C11        12.2020   -0.5720   21.6620 C.ar      1 <0>         0.0000
     12 C12         7.9940    1.1200   21.0990 C.2       1 <0>         0.0000
     13 C13         4.0870    1.7940   20.3500 C.3       1 <0>         0.0000
     14 C14         8.7010    0.6470   22.3970 C.3       1 <0>         0.0000
     15 N1          6.4960    0.8130   16.9900 N.ar      1 <0>         0.0000
     16 N2          6.6920    0.7250   20.7130 N.am      1 <0>         0.0000
     17 O1          8.6220    1.7910   20.2840 O.2       1 <0>         0.0000
     18 O2         13.2210    2.6950   23.1120 O.3       1 <0>         0.0000
     19 Cl1        12.9800   -1.9000   20.7230 Cl        1 <0>         0.0000
     20 H1          3.5680    2.1760   17.7230 H         1 <0>         0.0000
     21 H2         10.5700    2.5830   22.9630 H         1 <0>         0.0000
     22 H3         10.2410   -1.3940   21.3860 H         1 <0>         0.0000
     23 H4         14.0700    0.4220   22.0140 H         1 <0>         0.0000
     24 H5          4.8520    1.7270   15.9070 H         1 <0>         0.0000
     25 H6          8.0150    0.3140   18.2290 H         1 <0>         0.0000
     26 H7          4.0270    1.0670   21.1670 H         1 <0>         0.0000
     27 H8          4.4760    2.7500   20.6970 H         1 <0>         0.0000
     28 H9          3.0560    2.0300   20.0990 H         1 <0>         0.0000
     29 H10         8.2860   -0.3450   22.6180 H         1 <0>         0.0000
     30 H11         8.4740    1.3490   23.2000 H         1 <0>         0.0000
     31 H12         6.1040    0.3500   21.4570 H         1 <0>         0.0000
     32 C15        12.5780    3.9810   23.3680 C.3       1 <0>         0.0000
     33 C16        11.9100    4.6780   22.0870 C.3       1 <0>         0.0000
     34 C17        13.0070    5.7040   22.4580 C.2       1 <0>         0.0000
     35 H13        13.5070    5.6750   24.3080 H         1 <0>         0.0000
     36 H14        11.8280    3.9440   24.1630 H         1 <0>         0.0000
     37 H15        10.9420    5.1620   22.2240 H         1 <0>         0.0000
     38 H16        12.2280    4.1360   21.1900 H         1 <0>         0.0000
     39 N3         13.5080    5.0720   23.4800 N.am      1 <0>         0.0000
     40 O3         12.9310    6.9440   22.3210 O.2       1 <0>         0.0000
@<TRIPOS>BOND
     1    5   24 1
     2    5   15 ar
     3    1    5 ar
     4    6   15 ar
     5    1   20 1
     6    1    7 ar
     7    6   25 1
     8    6    9 ar
     9    7    9 ar
    10    7   13 1
    11    9   16 1
    12   13   28 1
    13   12   17 2
    14   13   27 1
    15   13   26 1
    16   12   16 am
    17   16   31 1
    18   11   19 1
    19   12   14 1
    20   33   38 1
    21    3   22 1
    22    3   11 ar
    23    4   11 ar
    24    3    8 ar
    25    4   23 1
    26    4   10 ar
    27   33   37 1
    28   33   34 1
    29   32   33 1
    30    8   14 1
    31    2    8 ar
    32   34   40 2
    33   14   29 1
    34   14   30 1
    35   34   39 am
    36    2   10 ar
    37   10   18 1
    38    2   21 1
    39   18   32 1
    40   32   39 1
    41   32   36 1
    42   35   39 1
@<TRIPOS>MOLECULE
*****
   42    44     0     0     0
SMALL
NO_CHARGES

@<TRIPOS>ATOM
      1 C1          6.6420    2.0410   19.7180 C.ar      1 <0>         0.0000
      2 C2          9.9710   -1.7850   23.8630 C.ar      1 <0>         0.0000
      3 C3         11.7470   -1.7140   22.2750 C.ar      1 <0>         0.0000
      4 C4         12.0110   -0.5290   24.3780 C.ar      1 <0>         0.0000
      5 C5          6.1470    1.6190   18.4730 C.ar      1 <0>         0.0000
      6 C6          7.2040   -0.3880   18.7640 C.ar      1 <0>         0.0000
      7 C7          7.5940    1.3040   20.3780 C.ar      1 <0>         0.0000
      8 C8         10.4610   -2.1160   22.5890 C.ar      1 <0>         0.0000
      9 C9          7.7400   -0.0150   20.0070 C.ar      1 <0>         0.0000
     10 C10        10.7470   -0.9720   24.7630 C.ar      1 <0>         0.0000
     11 C11        12.5530   -0.9430   23.1250 C.ar      1 <0>         0.0000
     12 C12         8.5230   -2.1550   20.9610 C.2       1 <0>         0.0000
     13 C13         8.1530    1.9660   21.6550 C.3       1 <0>         0.0000
     14 C14         9.6250   -2.9560   21.6560 C.3       1 <0>         0.0000
     15 N1          6.4060    0.3780   18.0070 N.ar      1 <0>         0.0000
     16 N2          8.5320   -0.7860   20.8500 N.am      1 <0>         0.0000
     17 O1          7.6590   -2.7930   20.3870 O.2       1 <0>         0.0000
     18 O2         10.3430   -0.5950   26.0130 O.3       1 <0>         0.0000
     19 Cl1        14.1590   -0.4630   22.6890 Cl        1 <0>         0.0000
     20 H1          6.5140    3.0750   20.0220 H         1 <0>         0.0000
     21 H2          9.0000   -2.1860   24.1460 H         1 <0>         0.0000
     22 H3         12.1820   -2.0520   21.3410 H         1 <0>         0.0000
     23 H4         12.6370    0.0690   25.0350 H         1 <0>         0.0000
     24 H5          5.5120    2.2850   17.9040 H         1 <0>         0.0000
     25 H6          7.3620   -1.4170   18.4580 H         1 <0>         0.0000
     26 H7          7.4410    1.8970   22.4890 H         1 <0>         0.0000
     27 H8          9.1080    1.4800   21.8760 H         1 <0>         0.0000
     28 H9          8.3890    3.0260   21.5040 H         1 <0>         0.0000
     29 H10        10.2100   -3.4920   20.9090 H         1 <0>         0.0000
     30 H11         9.1400   -3.7360   22.2520 H         1 <0>         0.0000
     31 H12         9.1180   -0.3060   21.5350 H         1 <0>         0.0000
     32 C15         9.0820   -0.9050   26.5190 C.3       1 <0>         0.0000
     33 C16         7.8550   -0.1220   25.9690 C.3       1 <0>         0.0000
     34 C17         7.7320    0.2450   27.4050 C.3       1 <0>         0.0000
     35 H13         9.5450    0.2960   28.3180 H         1 <0>         0.0000
     36 H14         8.9590   -1.9950   26.5050 H         1 <0>         0.0000
     37 H15         7.0280   -0.7340   25.6020 H         1 <0>         0.0000
     38 H16         8.1120    0.7380   25.3390 H         1 <0>         0.0000
     39 N3          8.8740   -0.3200   27.8700 N.3       1 <0>         0.0000
     40 O3          7.3580    1.3410   27.8030 O.3       1 <0>         0.0000
     41 H           7.7320    0.2450   27.4050 H         1 <0>         0.0000
     42 H           7.3580    1.3410   27.8030 H         1 <0>         0.0000
@<TRIPOS>BOND
     1    5   24 1
     2    5   15 ar
     3    6   15 ar
     4    6   25 1
     5    1    5 ar
     6    6    9 ar
     7    1   20 1
     8    1    7 ar
     9    7    9 ar
    10    9   16 1
    11    7   13 1
    12   12   17 2
    13   12   16 am
    14   16   31 1
    15   14   29 1
    16   12   14 1
    17    3   22 1
    18   13   28 1
    19   13   27 1
    20   13   26 1
    21   14   30 1
    22    8   14 1
    23    3    8 ar
    24    3   11 ar
    25    2    8 ar
    26   11   19 1
    27    4   11 ar
    28    2   21 1
    29    2   10 ar
    30    4   10 ar
    31    4   23 1
    32   10   18 1
    33   33   38 1
    34   33   37 1
    35   32   33 1
    36   33   34 1
    37   18   32 1
    38   32   36 1
    39   32   39 1
    40   34   40 1
    41   34   39 1
    42   35   39 1
    43   34   41 1
    44   40   42 1
@<TRIPOS>MOLECULE
*****
   40    42     0     0     0
SMALL
NO_CHARGES

@<TRIPOS>ATOM
      1 C1          5.4470    1.9730   19.6490 C.ar      1 <0>         0.0000
      2 C2         12.0280    1.4570   24.0500 C.ar      1 <0>         0.0000
      3 C3         12.1420   -0.9250   23.5480 C.ar      1 <0>         0.0000
      4 C4         14.1150    0.4170   23.6890 C.ar      1 <0>         0.0000
      5 C5          5.7390    1.1390   18.5820 C.ar      1 <0>         0.0000
      6 C6          7.5670    0.1680   19.6990 C.ar      1 <0>         0.0000
      7 C7          6.2600    1.8970   20.7890 C.ar      1 <0>         0.0000
      8 C8         11.3850    0.1900   23.8200 C.ar      1 <0>         0.0000
      9 C9          7.3040    1.0050   20.8390 C.ar      1 <0>         0.0000
     10 C10        13.4250    1.6100   23.8710 C.ar      1 <0>         0.0000
     11 C11        13.5350   -0.8660   23.4700 C.ar      1 <0>         0.0000
     12 C12         9.3630    0.4930   22.3180 C.2       1 <0>         0.0000
     13 C13         5.9570    2.7010   22.0030 C.3       1 <0>         0.0000
     14 C14         9.8910    0.1100   23.7270 C.3       1 <0>         0.0000
     15 N1          6.7990    0.2980   18.5860 N.ar      1 <0>         0.0000
     16 N2          8.0380    0.8230   22.0820 N.am      1 <0>         0.0000
     17 O1         10.1890    0.6410   21.4070 O.2       1 <0>         0.0000
     18 O2         14.0390    2.8050   24.0660 O.3       1 <0>         0.0000
     19 Cl1        14.5430   -2.2800   23.1890 Cl        1 <0>         0.0000
     20 H1          4.6210    2.6630   19.5090 H         1 <0>         0.0000
     21 H2         11.3670    2.3130   24.2140 H         1 <0>         0.0000
     22 H3         11.6990   -1.9140   23.5460 H         1 <0>         0.0000
     23 H4         15.1970    0.5260   23.6580 H         1 <0>         0.0000
     24 H5          5.0360    1.1210   17.7620 H         1 <0>         0.0000
     25 H6          8.2700   -0.6590   19.7460 H         1 <0>         0.0000
     26 H7          5.2780    2.0850   22.5900 H         1 <0>         0.0000
     27 H8          6.8600    3.0410   22.5350 H         1 <0>         0.0000
     28 H9          5.3420    3.5540   21.7300 H         1 <0>         0.0000
     29 H10         9.6630   -0.9260   24.0070 H         1 <0>         0.0000
     30 H11         9.4240    0.7510   24.4730 H         1 <0>         0.0000
     31 H12         7.5210    0.9520   22.9510 H         1 <0>         0.0000
     32 N3         12.5490    4.8010   24.0530 N.am      1 <0>         0.0000
     33 O3         12.8780    7.0510   23.5820 O.2       1 <0>         0.0000
     34 C15        13.4450    3.9050   23.3480 C.3       1 <0>         0.0000
     35 C16        14.5090    5.1170   23.1890 C.3       1 <0>         0.0000
     36 C17        13.2800    5.8750   23.7010 C.2       1 <0>         0.0000
     37 H13        11.5330    4.8240   24.0170 H         1 <0>         0.0000
     38 H14        13.0820    3.6190   22.3490 H         1 <0>         0.0000
     39 H15        15.3290    5.0530   23.9050 H         1 <0>         0.0000
     40 H16        14.8650    5.2850   22.1710 H         1 <0>         0.0000
@<TRIPOS>BOND
     1    5   24 1
     2    5   15 ar
     3    1    5 ar
     4    6   15 ar
     5    1   20 1
     6    1    7 ar
     7    6   25 1
     8    6    9 ar
     9    7    9 ar
    10    7   13 1
    11    9   16 1
    12   12   17 2
    13   13   28 1
    14   13   27 1
    15   13   26 1
    16   12   16 am
    17   16   31 1
    18   35   40 1
    19   12   14 1
    20   34   38 1
    21   11   19 1
    22   34   35 1
    23   35   36 1
    24   35   39 1
    25   32   34 1
    26   18   34 1
    27    3   11 ar
    28    4   11 ar
    29    3   22 1
    30    3    8 ar
    31   33   36 2
    32    4   23 1
    33    4   10 ar
    34   32   36 am
    35    8   14 1
    36   14   29 1
    37   14   30 1
    38    2    8 ar
    39    2   10 ar
    40   10   18 1
    41   32   37 1
    42    2   21 1
@<TRIPOS>MOLECULE
*****
   40    42     0     0     0
SMALL
NO_CHARGES

@<TRIPOS>ATOM
      1 C1          3.8800    2.4980   26.2400 C.ar      1 <0>         0.0000
      2 C2         11.0220    3.3040   26.0350 C.ar      1 <0>         0.0000
      3 C3         11.8080    1.4230   24.7970 C.ar      1 <0>         0.0000
      4 C4         12.8530    3.5590   24.5610 C.ar      1 <0>         0.0000
      5 C5          3.6840    3.0070   24.9810 C.ar      1 <0>         0.0000
      6 C6          5.8660    2.3540   24.3990 C.ar      1 <0>         0.0000
      7 C7          5.0530    1.8010   26.5880 C.ar      1 <0>         0.0000
      8 C8         10.9670    1.9470   25.7060 C.ar      1 <0>         0.0000
      9 C9          6.0960    1.7510   25.6840 C.ar      1 <0>         0.0000
     10 C10        11.9750    4.1340   25.4700 C.ar      1 <0>         0.0000
     11 C11        12.8280    2.1990   24.2450 C.ar      1 <0>         0.0000
     12 C12         8.5490    1.2640   25.5310 C.2       1 <0>         0.0000
     13 C13         5.1500    1.0200   27.9080 C.3       1 <0>         0.0000
     14 C14         9.8370    1.0510   26.3090 C.3       1 <0>         0.0000
     15 N1          4.6790    2.9600   24.0530 N.ar      1 <0>         0.0000
     16 N2          7.2900    1.0740   26.0250 N.am      1 <0>         0.0000
     17 O1          8.6730    1.6730   24.3550 O.2       1 <0>         0.0000
     18 O2         11.7990    5.4710   25.6660 O.3       1 <0>         0.0000
     19 Cl1        13.9670    1.4880   23.1490 Cl        1 <0>         0.0000
     20 H1          3.0430    2.6480   26.9190 H         1 <0>         0.0000
     21 H2         10.1930    3.7680   26.5570 H         1 <0>         0.0000
     22 H3         11.7520    0.3720   24.5310 H         1 <0>         0.0000
     23 H4         13.6660    4.0970   24.0730 H         1 <0>         0.0000
     24 H5          2.7540    3.5240   24.7530 H         1 <0>         0.0000
     25 H6          6.6610    2.2600   23.6590 H         1 <0>         0.0000
     26 H7          5.8650    1.5000   28.5940 H         1 <0>         0.0000
     27 H8          4.1390    0.9890   28.3050 H         1 <0>         0.0000
     28 H9          5.6600    0.0750   27.6720 H         1 <0>         0.0000
     29 H10        10.1030    0.0170   26.0440 H         1 <0>         0.0000
     30 H11         9.6670    1.1730   27.3800 H         1 <0>         0.0000
     31 H12         7.2690    0.7380   26.9850 H         1 <0>         0.0000
     32 H13        13.9670    6.0370   25.5460 H         1 <0>         0.0000
     33 H14        12.6740    5.5860   28.2130 H         1 <0>         0.0000
     34 H15        14.3700    6.1100   27.8350 H         1 <0>         0.0000
     35 N3         12.6410    7.6280   26.1480 N.am      1 <0>         0.0000
     36 O3         13.4520    8.6750   27.9840 O.2       1 <0>         0.0000
     37 C15        13.0260    6.2240   26.0580 C.3       1 <0>         0.0000
     38 C16        13.3110    6.2120   27.5940 C.3       1 <0>         0.0000
     39 C17        12.9190    7.6840   27.4570 C.2       1 <0>         0.0000
     40 H16        12.9810    8.3840   25.5520 H         1 <0>         0.0000
@<TRIPOS>BOND
     1   11   19 1
     2    6   25 1
     3    6   15 ar
     4    5   15 ar
     5    4   23 1
     6    4   11 ar
     7    3   11 ar
     8   12   17 2
     9    6    9 ar
    10    3   22 1
    11    4   10 ar
    12    5   24 1
    13    3    8 ar
    14    1    5 ar
    15   10   18 1
    16    2   10 ar
    17   12   16 am
    18   12   14 1
    19   32   37 1
    20   35   40 1
    21   18   37 1
    22    9   16 1
    23    7    9 ar
    24    2    8 ar
    25    8   14 1
    26   16   31 1
    27    2   21 1
    28   14   29 1
    29   35   37 1
    30   37   38 1
    31   35   39 am
    32    1    7 ar
    33    1   20 1
    34   14   30 1
    35    7   13 1
    36   38   39 1
    37   36   39 2
    38   34   38 1
    39   33   38 1
    40   13   28 1
    41   13   27 1
    42   13   26 1
@<TRIPOS>MOLECULE
*****
   40    42     0     0     0
SMALL
NO_CHARGES

@<TRIPOS>ATOM
      1 C1          4.0300    2.0180   18.4090 C.ar      1 <0>         0.0000
      2 C2         10.5590    2.2610   22.9970 C.ar      1 <0>         0.0000
      3 C3         10.4320   -0.0390   22.3660 C.ar      1 <0>         0.0000
      4 C4         12.6480    1.0350   22.6250 C.ar      1 <0>         0.0000
      5 C5          4.8460    1.8060   17.2950 C.ar      1 <0>         0.0000
      6 C6          6.4450    1.0190   18.6850 C.ar      1 <0>         0.0000
      7 C7          4.4450    1.6760   19.7040 C.ar      1 <0>         0.0000
      8 C8          9.7370    1.1200   22.8290 C.ar      1 <0>         0.0000
      9 C9          5.7690    1.2490   19.8550 C.ar      1 <0>         0.0000
     10 C10        11.9980    2.2330   22.9810 C.ar      1 <0>         0.0000
     11 C11        11.8770   -0.1150   22.2520 C.ar      1 <0>         0.0000
     12 C12         7.5700    1.4480   21.4820 C.2       1 <0>         0.0000
     13 C13         3.5580    2.0340   20.8630 C.3       1 <0>         0.0000
     14 C14         8.1840    1.1320   22.8490 C.3       1 <0>         0.0000
     15 N1          6.0230    1.2300   17.4070 N.ar      1 <0>         0.0000
     16 N2          6.3400    0.9540   21.0870 N.am      1 <0>         0.0000
     17 O1          8.2150    2.0730   20.6120 O.2       1 <0>         0.0000
     18 O2         12.7910    3.3410   23.0510 O.3       1 <0>         0.0000
     19 Cl1        12.6530   -1.3970   21.4830 Cl        1 <0>         0.0000
     20 H1          3.1170    2.5270   18.0920 H         1 <0>         0.0000
     21 H2         10.0360    3.1740   23.2430 H         1 <0>         0.0000
     22 H3          9.9230   -0.9130   21.9790 H         1 <0>         0.0000
     23 H4         13.7240    0.9790   22.7240 H         1 <0>         0.0000
     24 H5          4.5290    2.1460   16.3100 H         1 <0>         0.0000
     25 H6          7.3380    0.4240   18.8670 H         1 <0>         0.0000
     26 H7          3.9760    2.9520   21.2940 H         1 <0>         0.0000
     27 H8          2.5330    2.1050   20.4920 H         1 <0>         0.0000
     28 H9          3.6000    1.2900   21.6490 H         1 <0>         0.0000
     29 H10         7.9300    0.1460   23.2560 H         1 <0>         0.0000
     30 H11         7.9490    1.9010   23.5880 H         1 <0>         0.0000
     31 H12         5.7450    0.7430   21.8930 H         1 <0>         0.0000
     32 H13        11.4900    4.4400   24.2520 H         1 <0>         0.0000
     33 H14        10.3720    5.5000   22.4690 H         1 <0>         0.0000
     34 H15        11.5940    4.7470   21.1940 H         1 <0>         0.0000
     35 N3         13.0070    5.7050   23.5310 N.am      1 <0>         0.0000
     36 O3         12.2360    7.5230   22.4060 O.2       1 <0>         0.0000
     37 C15        12.1350    4.5620   23.3730 C.3       1 <0>         0.0000
     38 C16        11.3850    5.2160   22.1520 C.3       1 <0>         0.0000
     39 C17        12.3760    6.3150   22.5160 C.2       1 <0>         0.0000
     40 H16        13.2880    6.2160   24.3660 H         1 <0>         0.0000
@<TRIPOS>BOND
     1    5   24 1
     2    5   15 ar
     3    1    5 ar
     4    6   15 ar
     5    1   20 1
     6    1    7 ar
     7    6   25 1
     8    6    9 ar
     9    7    9 ar
    10    7   13 1
    11    9   16 1
    12   13   27 1
    13   12   17 2
    14   13   26 1
    15   13   28 1
    16   12   16 am
    17   16   31 1
    18   34   38 1
    19   12   14 1
    20   11   19 1
    21    3   22 1
    22   33   38 1
    23   38   39 1
    24   37   38 1
    25    3   11 ar
    26    4   11 ar
    27    3    8 ar
    28   36   39 2
    29   35   39 am
    30    4   23 1
    31    4   10 ar
    32    8   14 1
    33    2    8 ar
    34   14   29 1
    35   14   30 1
    36    2   10 ar
    37   10   18 1
    38    2   21 1
    39   18   37 1
    40   35   37 1
    41   32   37 1
    42   35   40 1
@<TRIPOS>MOLECULE
*****
   40    42     0     0     0
SMALL
NO_CHARGES

@<TRIPOS>ATOM
      1 C1          6.6770    2.2060   19.4280 C.ar      1 <0>         0.0000
      2 C2         13.3760    1.4430   23.4930 C.ar      1 <0>         0.0000
      3 C3         13.2410   -0.7370   22.4470 C.ar      1 <0>         0.0000
      4 C4         15.3640    0.3570   22.5930 C.ar      1 <0>         0.0000
      5 C5          7.0750    1.4780   18.3640 C.ar      1 <0>         0.0000
      6 C6          8.6380    0.4910   19.5160 C.ar      1 <0>         0.0000
      7 C7          7.3760    2.1540   20.6020 C.ar      1 <0>         0.0000
      8 C8         12.6110    0.3650   23.1490 C.ar      1 <0>         0.0000
      9 C9          8.3550    1.1700   20.6630 C.ar      1 <0>         0.0000
     10 C10        14.7260    1.4230   23.2180 C.ar      1 <0>         0.0000
     11 C11        14.5810   -0.6920   22.1790 C.ar      1 <0>         0.0000
     12 C12        10.3730    0.9230   22.1050 C.2       1 <0>         0.0000
     13 C13         6.9400    3.0960   21.7650 C.3       1 <0>         0.0000
     14 C14        11.0760    0.3620   23.2770 C.3       1 <0>         0.0000
     15 N1          8.0560    0.5710   18.3700 N.ar      1 <0>         0.0000
     16 N2          9.0360    0.8430   21.9030 N.am      1 <0>         0.0000
     17 O1         10.9450    1.5690   21.1720 O.2       1 <0>         0.0000
     18 O2         15.5450    2.4830   23.5650 O.3       1 <0>         0.0000
     19 Cl1        15.4120   -2.1280   21.4520 Cl        1 <0>         0.0000
     20 H1          5.8290    2.8820   19.3440 H         1 <0>         0.0000
     21 H2         12.8410    2.3150   23.8510 H         1 <0>         0.0000
     22 H3         12.6120   -1.5960   22.2260 H         1 <0>         0.0000
     23 H4         16.4480    0.3110   22.5080 H         1 <0>         0.0000
     24 H5          6.5910    1.5700   17.3910 H         1 <0>         0.0000
     25 H6          9.4970   -0.1850   19.4970 H         1 <0>         0.0000
     26 H7          7.5820    2.9110   22.6300 H         1 <0>         0.0000
     27 H8          7.0440    4.0850   21.3090 H         1 <0>         0.0000
     28 H9          5.8960    2.9040   22.0350 H         1 <0>         0.0000
     29 H10        10.6920   -0.6630   23.1970 H         1 <0>         0.0000
     30 H11        10.7150    0.8420   24.1960 H         1 <0>         0.0000
     31 H12         8.4940    0.7240   22.7580 H         1 <0>         0.0000
     32 C15        14.9410    3.7660   23.6390 C.3       1 <0>         0.0000
     33 C16        14.2990    4.2930   22.2780 C.3       1 <0>         0.0000
     34 C17        15.3200    5.3930   22.4310 C.2       1 <0>         0.0000
     35 H13        16.1280    5.4870   24.2950 H         1 <0>         0.0000
     36 H14        14.3150    3.8790   24.5300 H         1 <0>         0.0000
     37 H15        13.3010    4.7580   22.2540 H         1 <0>         0.0000
     38 H16        14.4440    3.5640   21.4740 H         1 <0>         0.0000
     39 N3         15.9060    4.8880   23.5080 N.am      1 <0>         0.0000
     40 O3         15.2290    6.5870   22.2200 O.2       1 <0>         0.0000
@<TRIPOS>BOND
     1    5   24 1
     2    5   15 ar
     3    1    5 ar
     4    6   15 ar
     5    1   20 1
     6    1    7 ar
     7    6   25 1
     8    6    9 ar
     9    7    9 ar
    10    7   13 1
    11    9   16 1
    12   12   17 2
    13   13   27 1
    14   11   19 1
    15   33   38 1
    16   13   28 1
    17   13   26 1
    18   12   16 am
    19   16   31 1
    20   12   14 1
    21    3   11 ar
    22    4   11 ar
    23   34   40 2
    24    3   22 1
    25   33   37 1
    26   33   34 1
    27   32   33 1
    28   34   39 am
    29    3    8 ar
    30    4   23 1
    31    4   10 ar
    32    8   14 1
    33    2    8 ar
    34   14   29 1
    35    2   10 ar
    36   10   18 1
    37   14   30 1
    38    2   21 1
    39   32   39 1
    40   35   39 1
    41   18   32 1
    42   32   36 1
@<TRIPOS>MOLECULE
*****
   42    44     0     0     0
SMALL
NO_CHARGES

@<TRIPOS>ATOM
      1 C1          4.2680    0.7000   19.4180 C.ar      1 <0>         0.0000
      2 C2         11.3220   -0.3000   22.4670 C.ar      1 <0>         0.0000
      3 C3         11.7260   -2.3470   21.2730 C.ar      1 <0>         0.0000
      4 C4         13.5420   -1.0580   21.9590 C.ar      1 <0>         0.0000
      5 C5          4.6400    0.7050   18.1050 C.ar      1 <0>         0.0000
      6 C6          6.5760   -0.4710   18.5760 C.ar      1 <0>         0.0000
      7 C7          4.9830   -0.0130   20.4430 C.ar      1 <0>         0.0000
      8 C8         10.8080   -1.3990   21.8110 C.ar      1 <0>         0.0000
      9 C9          6.1800   -0.5220   19.9310 C.ar      1 <0>         0.0000
     10 C10        12.7340   -0.0610   22.5200 C.ar      1 <0>         0.0000
     11 C11        13.0840   -2.0520   21.1800 C.ar      1 <0>         0.0000
     12 C12         8.4170   -0.7800   21.0310 C.2       1 <0>         0.0000
     13 C13         4.5820   -0.0020   21.9120 C.3       1 <0>         0.0000
     14 C14         9.3680   -1.7290   21.6790 C.3       1 <0>         0.0000
     15 N1          5.7330    0.1060   17.6360 N.ar      1 <0>         0.0000
     16 N2          7.1030   -1.1450   20.8430 N.am      1 <0>         0.0000
     17 O1          8.8370    0.2860   20.6400 O.2       1 <0>         0.0000
     18 O2         13.3670    0.9570   23.1800 O.3       1 <0>         0.0000
     19 Cl1        14.2560   -2.9940   20.3220 Cl        1 <0>         0.0000
     20 H1          3.3320    1.1960   19.6700 H         1 <0>         0.0000
     21 H2         10.6760    0.3590   23.0370 H         1 <0>         0.0000
     22 H3         11.4200   -3.2240   20.7080 H         1 <0>         0.0000
     23 H4         14.6210   -1.0180   22.0480 H         1 <0>         0.0000
     24 H5          4.0430    1.3830   17.5050 H         1 <0>         0.0000
     25 H6          7.4910   -0.9390   18.2230 H         1 <0>         0.0000
     26 H7          4.0530    0.9150   22.2000 H         1 <0>         0.0000
     27 H8          3.9470   -0.8720   22.0650 H         1 <0>         0.0000
     28 H9          5.4780    0.0110   22.5370 H         1 <0>         0.0000
     29 H10         9.3020   -2.7160   21.2040 H         1 <0>         0.0000
     30 H11         9.0190   -2.0340   22.6740 H         1 <0>         0.0000
     31 H12         6.7680   -1.8920   21.4540 H         1 <0>         0.0000
     32 H13        11.9000    1.7750   24.4980 H         1 <0>         0.0000
     33 H14        10.8970    3.1820   22.6500 H         1 <0>         0.0000
     34 H15        12.1890    2.5770   21.5190 H         1 <0>         0.0000
     35 N3         13.4080    3.2320   23.9990 N.3       1 <0>         0.0000
     36 O3         13.6500    4.6090   22.2560 O.3       1 <0>         0.0000
     37 C15        12.5180    2.0650   23.6420 C.3       1 <0>         0.0000
     38 C16        11.9610    2.9550   22.5170 C.3       1 <0>         0.0000
     39 C17        12.9180    3.9460   22.9800 C.3       1 <0>         0.0000
     40 H16        14.4100    3.0970   23.8680 H         1 <0>         0.0000
     41 H          13.6500    4.6090   22.2560 H         1 <0>         0.0000
     42 H          12.9180    3.9460   22.9800 H         1 <0>         0.0000
@<TRIPOS>BOND
     1    5   24 1
     2    5   15 ar
     3    6   15 ar
     4    1    5 ar
     5    6   25 1
     6    6    9 ar
     7    1   20 1
     8    1    7 ar
     9    7    9 ar
    10    9   16 1
    11   11   19 1
    12    7   13 1
    13   12   17 2
    14    3   22 1
    15   12   16 am
    16   16   31 1
    17   12   14 1
    18    3   11 ar
    19    4   11 ar
    20   14   29 1
    21    3    8 ar
    22   34   38 1
    23    8   14 1
    24   14   30 1
    25    2    8 ar
    26   13   27 1
    27   13   26 1
    28   13   28 1
    29    4   23 1
    30    4   10 ar
    31   36   39 1
    32    2   10 ar
    33    2   21 1
    34   33   38 1
    35   38   39 1
    36   37   38 1
    37   10   18 1
    38   35   39 1
    39   18   37 1
    40   35   37 1
    41   32   37 1
    42   35   40 1
    43   36   41 1
    44   39   42 1
@<TRIPOS>MOLECULE
*****
   40    42     0     0     0
SMALL
NO_CHARGES

@<TRIPOS>ATOM
      1 C1          4.4180    1.2860   19.7520 C.ar      1 <0>         0.0000
      2 C2         11.6610    0.4710   23.2180 C.ar      1 <0>         0.0000
      3 C3         11.8510   -1.4230   21.7850 C.ar      1 <0>         0.0000
      4 C4         13.7830   -0.2150   22.3790 C.ar      1 <0>         0.0000
      5 C5          4.8450    1.1210   18.4700 C.ar      1 <0>         0.0000
      6 C6          6.7360    0.0960   19.2140 C.ar      1 <0>         0.0000
      7 C7          5.1400    0.7670   20.8340 C.ar      1 <0>         0.0000
      8 C8         11.0480   -0.6510   22.5610 C.ar      1 <0>         0.0000
      9 C9          6.4100    0.2650   20.5660 C.ar      1 <0>         0.0000
     10 C10        13.0230    0.6790   23.0410 C.ar      1 <0>         0.0000
     11 C11        13.2230   -1.3020   21.7030 C.ar      1 <0>         0.0000
     12 C12         8.7110   -0.0880   21.6090 C.2       1 <0>         0.0000
     13 C13         4.5940    0.8590   22.2110 C.3       1 <0>         0.0000
     14 C14         9.5210   -0.8950   22.6350 C.3       1 <0>         0.0000
     15 N1          5.9560    0.4540   18.2320 N.ar      1 <0>         0.0000
     16 N2          7.3030    0.0060   21.7030 N.am      1 <0>         0.0000
     17 O1          9.2290    0.6180   20.7800 O.2       1 <0>         0.0000
     18 O2         13.7050    1.6930   23.6820 O.3       1 <0>         0.0000
     19 Cl1        14.2060   -2.2540   20.5670 Cl        1 <0>         0.0000
     20 H1          3.4650    1.7440   19.9680 H         1 <0>         0.0000
     21 H2         11.1270    1.1370   23.8970 H         1 <0>         0.0000
     22 H3         11.4530   -2.2510   21.2050 H         1 <0>         0.0000
     23 H4         14.8590   -0.1290   22.2650 H         1 <0>         0.0000
     24 H5          4.3490    1.5800   17.6150 H         1 <0>         0.0000
     25 H6          7.6120   -0.5030   18.9690 H         1 <0>         0.0000
     26 H7          3.5130    0.7230   22.3220 H         1 <0>         0.0000
     27 H8          5.0960    0.1010   22.8280 H         1 <0>         0.0000
     28 H9          4.8720    1.8680   22.5210 H         1 <0>         0.0000
     29 H10         9.2210   -1.9290   22.4440 H         1 <0>         0.0000
     30 H11         9.2860   -0.6160   23.6630 H         1 <0>         0.0000
     31 H12         6.9490   -0.4070   22.5700 H         1 <0>         0.0000
     32 H13        13.7890    4.5910   24.9840 H         1 <0>         0.0000
     33 H14        12.3750    2.6900   24.9010 H         1 <0>         0.0000
     34 H15        11.0960    3.5760   22.9280 H         1 <0>         0.0000
     35 H16        12.4220    3.0770   21.8190 H         1 <0>         0.0000
     36 N3         13.7370    4.0950   24.0930 N.am      1 <0>         0.0000
     37 O3         12.5430    5.8570   23.1840 O.2       1 <0>         0.0000
     38 C15        12.9670    2.8970   24.0120 C.3       1 <0>         0.0000
     39 C16        12.1740    3.5020   22.7950 C.3       1 <0>         0.0000
     40 C17        12.8740    4.6870   23.2360 C.2       1 <0>         0.0000
@<TRIPOS>BOND
     1    5   24 1
     2    5   15 ar
     3    6   15 ar
     4    1    5 ar
     5    6   25 1
     6    6    9 ar
     7    1   20 1
     8    1    7 ar
     9    7    9 ar
    10    9   16 1
    11   11   19 1
    12   12   17 2
    13    7   13 1
    14    3   22 1
    15   12   16 am
    16   12   14 1
    17    3   11 ar
    18    4   11 ar
    19   16   31 1
    20    3    8 ar
    21   35   39 1
    22   13   26 1
    23   13   28 1
    24   13   27 1
    25    4   23 1
    26    4   10 ar
    27   14   29 1
    28    8   14 1
    29    2    8 ar
    30   14   30 1
    31   34   39 1
    32   39   40 1
    33   38   39 1
    34    2   10 ar
    35   10   18 1
    36   37   40 2
    37    2   21 1
    38   36   40 am
    39   18   38 1
    40   36   38 1
    41   33   38 1
    42   32   36 1
@<TRIPOS>MOLECULE
*****
   40    42     0     0     0
SMALL
NO_CHARGES

@<TRIPOS>ATOM
      1 C1          5.3010    1.8450   18.7450 C.ar      1 <0>         0.0000
      2 C2          9.7970   -1.0240   22.2710 C.ar      1 <0>         0.0000
      3 C3         10.7070   -2.9690   21.2320 C.ar      1 <0>         0.0000
      4 C4         12.1340   -1.3590   22.0960 C.ar      1 <0>         0.0000
      5 C5          5.2190    1.3390   17.3890 C.ar      1 <0>         0.0000
      6 C6          6.5830   -0.4290   17.9260 C.ar      1 <0>         0.0000
      7 C7          6.0280    1.1440   19.6770 C.ar      1 <0>         0.0000
      8 C8          9.6120   -2.2390   21.6340 C.ar      1 <0>         0.0000
      9 C9          6.6860    0.0070   19.2920 C.ar      1 <0>         0.0000
     10 C10        11.0390   -0.5090   22.5210 C.ar      1 <0>         0.0000
     11 C11        11.9680   -2.5950   21.4690 C.ar      1 <0>         0.0000
     12 C12         7.4040   -2.0450   20.3110 C.2       1 <0>         0.0000
     13 C13         6.0970    1.7790   21.0900 C.3       1 <0>         0.0000
     14 C14         8.2110   -2.7560   21.3820 C.3       1 <0>         0.0000
     15 N1          5.8460    0.2220   16.9770 N.ar      1 <0>         0.0000
     16 N2          7.4340   -0.6740   20.2940 N.am      1 <0>         0.0000
     17 O1          6.6660   -2.6970   19.5890 O.2       1 <0>         0.0000
     18 O2         11.2350    0.7380   23.0310 O.3       1 <0>         0.0000
     19 Cl1        13.4270   -3.6120   21.2930 Cl        1 <0>         0.0000
     20 H1          4.7930    2.7750   18.9690 H         1 <0>         0.0000
     21 H2          8.8970   -0.4590   22.4920 H         1 <0>         0.0000
     22 H3         10.5050   -3.9170   20.7400 H         1 <0>         0.0000
     23 H4         13.1440   -0.9660   22.1760 H         1 <0>         0.0000
     24 H5          4.5900    1.8980   16.7050 H         1 <0>         0.0000
     25 H6          7.1880   -1.3080   17.7580 H         1 <0>         0.0000
     26 H7          6.9210    1.3440   21.6560 H         1 <0>         0.0000
     27 H8          6.2340    2.8530   20.9520 H         1 <0>         0.0000
     28 H9          5.2480    1.6190   21.7580 H         1 <0>         0.0000
     29 H10         8.2370   -3.8440   21.2050 H         1 <0>         0.0000
     30 H11         7.7040   -2.6340   22.3500 H         1 <0>         0.0000
     31 H12         7.8250   -0.1980   21.1040 H         1 <0>         0.0000
     32 C15        12.4960    1.3770   22.9550 C.3       1 <0>         0.0000
     33 C16        12.4180    2.9110   23.3360 C.3       1 <0>         0.0000
     34 C17        13.0240    2.9660   21.8910 C.2       1 <0>         0.0000
     35 H13        12.9800    1.1780   20.7840 H         1 <0>         0.0000
     36 H14        13.2130    0.8590   23.5920 H         1 <0>         0.0000
     37 H15        13.0790    3.1010   24.1810 H         1 <0>         0.0000
     38 H16        11.3400    3.0850   23.4590 H         1 <0>         0.0000
     39 N3         13.0220    1.6480   21.6850 N.am      1 <0>         0.0000
     40 O3         13.1050    3.8670   21.0910 O.2       1 <0>         0.0000
@<TRIPOS>BOND
     1    5   24 1
     2    5   15 ar
     3    6   15 ar
     4    1    5 ar
     5    6   25 1
     6    6    9 ar
     7    1   20 1
     8    1    7 ar
     9    7    9 ar
    10    9   16 1
    11   12   17 2
    12    7   13 1
    13   12   16 am
    14   16   31 1
    15   12   14 1
    16    3   22 1
    17   35   39 1
    18   13   27 1
    19   13   26 1
    20   13   28 1
    21   34   40 2
    22   14   29 1
    23    3   11 ar
    24    3    8 ar
    25   11   19 1
    26    8   14 1
    27   14   30 1
    28    4   11 ar
    29    2    8 ar
    30   34   39 am
    31   32   39 1
    32   33   34 1
    33    4   23 1
    34    4   10 ar
    35    2   21 1
    36    2   10 ar
    37   10   18 1
    38   18   32 1
    39   32   33 1
    40   32   36 1
    41   33   38 1
    42   33   37 1
@<TRIPOS>MOLECULE
*****
   40    42     0     0     0
SMALL
NO_CHARGES

@<TRIPOS>ATOM
      1 C1          4.5060    0.4610   19.3430 C.ar      1 <0>         0.0000
      2 C2         11.5630    0.5230   23.2860 C.ar      1 <0>         0.0000
      3 C3         11.7880   -1.5920   22.0640 C.ar      1 <0>         0.0000
      4 C4         13.6780   -0.2310   22.4440 C.ar      1 <0>         0.0000
      5 C5          5.1230    0.4610   18.0520 C.ar      1 <0>         0.0000
      6 C6          7.1210    0.0830   19.0770 C.ar      1 <0>         0.0000
      7 C7          5.2410    0.2370   20.5370 C.ar      1 <0>         0.0000
      8 C8         10.9620   -0.6490   22.7000 C.ar      1 <0>         0.0000
      9 C9          6.6260    0.0310   20.3910 C.ar      1 <0>         0.0000
     10 C10        12.9590    0.7070   23.2080 C.ar      1 <0>         0.0000
     11 C11        13.0930   -1.3520   21.8120 C.ar      1 <0>         0.0000
     12 C12         8.6430   -0.0570   21.6510 C.2       1 <0>         0.0000
     13 C13         4.5500    0.2400   21.8810 C.3       1 <0>         0.0000
     14 C14         9.4430   -0.8990   22.6310 C.3       1 <0>         0.0000
     15 N1          6.4410    0.1890   17.8950 N.ar      1 <0>         0.0000
     16 N2          7.3210   -0.3660   21.5180 N.am      1 <0>         0.0000
     17 O1          9.0650    0.8890   20.9640 O.2       1 <0>         0.0000
     18 O2         13.7120    1.6940   23.8060 O.3       1 <0>         0.0000
     19 Cl1        14.1220   -2.5310   21.0560 Cl        1 <0>         0.0000
     20 H1          3.4240    0.5420   19.3200 H         1 <0>         0.0000
     21 H2         10.9320    1.3150   23.6910 H         1 <0>         0.0000
     22 H3         11.3520   -2.3920   21.4650 H         1 <0>         0.0000
     23 H4         14.7630   -0.1460   22.4610 H         1 <0>         0.0000
     24 H5          4.4810    0.5470   17.1870 H         1 <0>         0.0000
     25 H6          8.1770   -0.1250   19.0180 H         1 <0>         0.0000
     26 H7          5.2250    0.8310   22.5220 H         1 <0>         0.0000
     27 H8          3.5620    0.7030   21.9550 H         1 <0>         0.0000
     28 H9          4.4130   -0.7800   22.2590 H         1 <0>         0.0000
     29 H10         9.3600   -1.9780   22.4570 H         1 <0>         0.0000
     30 H11         9.0630   -0.6130   23.6190 H         1 <0>         0.0000
     31 H12         6.9170   -1.0360   22.1640 H         1 <0>         0.0000
     32 H13        15.1130    3.8130   24.2250 H         1 <0>         0.0000
     33 H14        12.4130    2.9740   24.9120 H         1 <0>         0.0000
     34 H15        12.4850    3.1170   21.8850 H         1 <0>         0.0000
     35 H16        11.5490    4.1810   23.0920 H         1 <0>         0.0000
     36 N3         14.1260    4.0330   24.1510 N.am      1 <0>         0.0000
     37 O3         14.4370    4.9560   22.0950 O.2       1 <0>         0.0000
     38 C15        13.1050    2.9930   24.0560 C.3       1 <0>         0.0000
     39 C16        12.4850    3.6920   22.8050 C.3       1 <0>         0.0000
     40 C17        13.6930    4.5080   22.9720 C.2       1 <0>         0.0000
@<TRIPOS>BOND
     1    5   24 1
     2    5   15 ar
     3    6   15 ar
     4    1    5 ar
     5    6   25 1
     6    6    9 ar
     7    1   20 1
     8    1    7 ar
     9    7    9 ar
    10    9   16 1
    11    7   13 1
    12   12   17 2
    13   11   19 1
    14    3   22 1
    15   12   16 am
    16   16   31 1
    17   12   14 1
    18    3   11 ar
    19    4   11 ar
    20   13   27 1
    21   13   28 1
    22   13   26 1
    23   34   39 1
    24    3    8 ar
    25   37   40 2
    26    4   23 1
    27    4   10 ar
    28   14   29 1
    29    8   14 1
    30   14   30 1
    31    2    8 ar
    32   39   40 1
    33   35   39 1
    34   38   39 1
    35   36   40 am
    36    2   10 ar
    37   10   18 1
    38    2   21 1
    39   18   38 1
    40   36   38 1
    41   33   38 1
    42   32   36 1
@<TRIPOS>MOLECULE
*****
   40    42     0     0     0
SMALL
NO_CHARGES

@<TRIPOS>ATOM
      1 C1         11.2230    0.0560   23.6000 C.ar      1 <0>         0.0000
      2 C2         11.8410   -1.8240   22.2660 C.ar      1 <0>         0.0000
      3 C3         13.5520   -0.4580   23.3490 C.ar      1 <0>         0.0000
      4 C4          5.2240    1.2420   18.6750 C.ar      1 <0>         0.0000
      5 C5          7.1680    0.5350   19.5690 C.ar      1 <0>         0.0000
      6 C6          5.3210    0.9690   21.0160 C.ar      1 <0>         0.0000
      7 C7         10.8160   -1.0740   22.8350 C.ar      1 <0>         0.0000
      8 C8          6.6090    0.5320   20.8680 C.ar      1 <0>         0.0000
      9 C9         12.5600    0.3440   23.8990 C.ar      1 <0>         0.0000
     10 C10        13.1870   -1.5660   22.6050 C.ar      1 <0>         0.0000
     11 C11         8.7870   -0.1060   21.9030 C.2       1 <0>         0.0000
     12 C12         9.3700   -1.3710   22.5010 C.3       1 <0>         0.0000
     13 N1          6.5010    0.8060   18.4420 N.ar      1 <0>         0.0000
     14 N2          7.4210    0.1600   22.0020 N.am      1 <0>         0.0000
     15 O1          9.4500    0.7830   21.3890 O.2       1 <0>         0.0000
     16 O2         12.8890    1.3470   24.7500 O.3       1 <0>         0.0000
     17 Cl1        14.3470   -2.6650   22.0740 Cl        1 <0>         0.0000
     18 H1         10.5480    0.6620   24.1880 H         1 <0>         0.0000
     19 H2         11.5630   -2.7240   21.7370 H         1 <0>         0.0000
     20 H3         14.5700   -0.2410   23.6510 H         1 <0>         0.0000
     21 H4          4.7590    1.6100   17.7700 H         1 <0>         0.0000
     22 H5          8.1890    0.2350   19.3530 H         1 <0>         0.0000
     23 H6          9.1710   -2.2470   21.8710 H         1 <0>         0.0000
     24 H7          8.8360   -1.5820   23.4350 H         1 <0>         0.0000
     25 H8          6.9350   -0.4670   22.6490 H         1 <0>         0.0000
     26 N3         13.6080    3.7190   24.8730 N.am      1 <0>         0.0000
     27 O3         14.5260    5.0980   23.2000 O.2       1 <0>         0.0000
     28 C13        12.7250    2.7200   24.2700 C.3       1 <0>         0.0000
     29 C14        13.3570    3.0190   22.7980 C.3       1 <0>         0.0000
     30 C15        14.0370    4.0350   23.5960 C.2       1 <0>         0.0000
     31 H9          4.5290    0.1200   22.7430 H         1 <0>         0.0000
     32 H10         3.7470    1.7070   22.4420 H         1 <0>         0.0000
     33 H11         5.4010    1.6440   23.0440 H         1 <0>         0.0000
     34 H12         3.6750    1.8580   20.0560 H         1 <0>         0.0000
     35 H13        13.4380    4.4730   25.5400 H         1 <0>         0.0000
     36 C16         4.6800    1.1510   22.3950 C.3       1 <0>         0.0000
     37 H14        11.6730    3.0220   24.3800 H         1 <0>         0.0000
     38 H15        14.0260    2.2670   22.3540 H         1 <0>         0.0000
     39 H16        12.6140    3.4110   22.1090 H         1 <0>         0.0000
     40 C17         4.6180    1.3450   19.8870 C.ar      1 <0>         0.0000
@<TRIPOS>BOND
     1    4   21 1
     2    4   13 ar
     3    5   13 ar
     4    4   40 ar
     5    5   22 1
     6    5    8 ar
     7   34   40 1
     8    6   40 ar
     9    6    8 ar
    10    8   14 1
    11    6   36 1
    12   11   15 2
    13    2   19 1
    14   12   23 1
    15   11   14 am
    16   11   12 1
    17   14   25 1
    18   10   17 1
    19   29   39 1
    20    2   10 ar
    21    2    7 ar
    22   29   38 1
    23   32   36 1
    24   31   36 1
    25   33   36 1
    26    7   12 1
    27   12   24 1
    28    3   10 ar
    29   29   30 1
    30   28   29 1
    31    1    7 ar
    32   27   30 2
    33    3   20 1
    34    3    9 ar
    35   26   30 am
    36    1    9 ar
    37    1   18 1
    38    9   16 1
    39   28   37 1
    40   16   28 1
    41   26   28 1
    42   26   35 1
@<TRIPOS>MOLECULE
*****
   42    44     0     0     0
SMALL
NO_CHARGES

@<TRIPOS>ATOM
      1 C1          6.0170    1.6060   19.4850 C.ar      1 <0>         0.0000
      2 C2         12.3740    1.2730   24.0730 C.ar      1 <0>         0.0000
      3 C3         12.5520   -1.0430   23.1270 C.ar      1 <0>         0.0000
      4 C4         14.5480    0.3210   23.4910 C.ar      1 <0>         0.0000
      5 C5          6.7170    1.1390   18.3710 C.ar      1 <0>         0.0000
      6 C6          8.3460    0.2290   19.7750 C.ar      1 <0>         0.0000
      7 C7          6.4730    1.4200   20.7730 C.ar      1 <0>         0.0000
      8 C8         11.8130    0.0670   23.6870 C.ar      1 <0>         0.0000
      9 C9          7.6420    0.7060   20.9200 C.ar      1 <0>         0.0000
     10 C10        13.7890    1.4270   23.9520 C.ar      1 <0>         0.0000
     11 C11        13.9880   -0.8520   23.0450 C.ar      1 <0>         0.0000
     12 C12         9.6860    0.6130   22.4590 C.2       1 <0>         0.0000
     13 C13         5.6980    1.9940   21.8870 C.3       1 <0>         0.0000
     14 C14        10.2600   -0.1210   23.6890 C.3       1 <0>         0.0000
     15 N1          7.8190    0.4180   18.5420 N.ar      1 <0>         0.0000
     16 N2          8.2930    0.4850   22.2200 N.am      1 <0>         0.0000
     17 O1         10.3890    1.1740   21.6540 O.2       1 <0>         0.0000
     18 O2         14.4660    2.5290   24.2380 O.3       1 <0>         0.0000
     19 Cl1        15.0230   -2.0700   22.2080 Cl        1 <0>         0.0000
     20 H1          5.1050    2.1460   19.2460 H         1 <0>         0.0000
     21 H2         11.8720    2.1990   24.3400 H         1 <0>         0.0000
     22 H3         12.1600   -1.9680   22.7260 H         1 <0>         0.0000
     23 H4         15.6260    0.4440   23.4840 H         1 <0>         0.0000
     24 H5          6.3970    1.3420   17.3540 H         1 <0>         0.0000
     25 H6          9.2730   -0.3250   19.8870 H         1 <0>         0.0000
     26 H7          6.3460    2.6400   22.4870 H         1 <0>         0.0000
     27 H8          4.7740    2.5340   21.6410 H         1 <0>         0.0000
     28 H9          5.3500    1.1650   22.5150 H         1 <0>         0.0000
     29 H10        10.0480   -1.2000   23.6830 H         1 <0>         0.0000
     30 H11         9.7230    0.1840   24.5980 H         1 <0>         0.0000
     31 H12         7.7770    0.2100   23.0570 H         1 <0>         0.0000
     32 C15        14.2140    3.5180   23.2670 C.3       1 <0>         0.0000
     33 C16        15.2580    3.6090   22.1120 C.3       1 <0>         0.0000
     34 C17        15.3880    5.0100   22.6340 C.3       1 <0>         0.0000
     35 H13        14.8690    5.1790   24.6630 H         1 <0>         0.0000
     36 H14        13.1640    3.5080   22.9690 H         1 <0>         0.0000
     37 H15        14.8620    3.6080   21.0860 H         1 <0>         0.0000
     38 H16        16.1200    2.9660   22.2820 H         1 <0>         0.0000
     39 N3         14.5850    4.9140   23.7220 N.3       1 <0>         0.0000
     40 O3         16.4750    5.5760   22.7860 O.3       1 <0>         0.0000
     41 H          15.3880    5.0100   22.6340 H         1 <0>         0.0000
     42 H          16.4750    5.5760   22.7860 H         1 <0>         0.0000
@<TRIPOS>BOND
     1    5   24 1
     2    5   15 ar
     3    1    5 ar
     4    6   15 ar
     5    1   20 1
     6    1    7 ar
     7    6   25 1
     8    6    9 ar
     9    7    9 ar
    10    7   13 1
    11    9   16 1
    12   33   37 1
    13   13   27 1
    14   12   17 2
    15   13   26 1
    16   13   28 1
    17   33   38 1
    18   33   34 1
    19   32   33 1
    20   11   19 1
    21   12   16 am
    22   16   31 1
    23   12   14 1
    24   34   40 1
    25   34   39 1
    26    3   22 1
    27   32   36 1
    28    3   11 ar
    29    4   11 ar
    30    3    8 ar
    31   32   39 1
    32   18   32 1
    33    4   23 1
    34    4   10 ar
    35   14   29 1
    36    8   14 1
    37    2    8 ar
    38   14   30 1
    39   35   39 1
    40    2   10 ar
    41   10   18 1
    42    2   21 1
    43   34   41 1
    44   40   42 1
@<TRIPOS>MOLECULE
*****
   40    42     0     0     0
SMALL
NO_CHARGES

@<TRIPOS>ATOM
      1 C1          5.3760    1.1180   19.5110 C.ar      1 <0>         0.0000
      2 C2         12.3690    1.2590   23.3580 C.ar      1 <0>         0.0000
      3 C3         12.4120   -0.6100   21.8720 C.ar      1 <0>         0.0000
      4 C4         14.4140    0.5840   22.3480 C.ar      1 <0>         0.0000
      5 C5          6.0580    0.9060   18.2990 C.ar      1 <0>         0.0000
      6 C6          7.8840    0.1420   19.4840 C.ar      1 <0>         0.0000
      7 C7          6.0400    0.8850   20.8070 C.ar      1 <0>         0.0000
      8 C8         11.7260    0.1930   22.7570 C.ar      1 <0>         0.0000
      9 C9          7.3720    0.4510   20.7190 C.ar      1 <0>         0.0000
     10 C10        13.6840    1.5210   23.1450 C.ar      1 <0>         0.0000
     11 C11        13.7760   -0.4840   21.7300 C.ar      1 <0>         0.0000
     12 C12         9.4210    0.6550   21.9780 C.2       1 <0>         0.0000
     13 C13         5.3180    1.1220   22.1130 C.3       1 <0>         0.0000
     14 C14        10.2620    0.0180   23.0630 C.3       1 <0>         0.0000
     15 N1          7.3150    0.3890   18.2840 N.ar      1 <0>         0.0000
     16 N2          8.1220    0.2340   21.9000 N.am      1 <0>         0.0000
     17 O1          9.8590    1.4730   21.1690 O.2       1 <0>         0.0000
     18 O2         14.4010    2.5850   23.6550 O.3       1 <0>         0.0000
     19 Cl1        14.6490   -1.4910   20.6160 Cl        1 <0>         0.0000
     20 H1          4.3510    1.4700   19.3800 H         1 <0>         0.0000
     21 H2         11.8820    1.9780   24.0130 H         1 <0>         0.0000
     22 H3         12.0800   -1.4020   21.2170 H         1 <0>         0.0000
     23 H4         15.4740    0.7790   22.2320 H         1 <0>         0.0000
     24 H5          5.5170    1.1800   17.4050 H         1 <0>         0.0000
     25 H6          8.8220   -0.4020   19.5220 H         1 <0>         0.0000
     26 H7          5.5890    2.1320   22.4240 H         1 <0>         0.0000
     27 H8          4.2550    1.0870   21.8630 H         1 <0>         0.0000
     28 H9          5.5330    0.4190   22.9170 H         1 <0>         0.0000
     29 H10        10.0130   -1.0480   23.0550 H         1 <0>         0.0000
     30 H11        10.0080    0.4670   24.0270 H         1 <0>         0.0000
     31 H12         7.6650   -0.2750   22.6540 H         1 <0>         0.0000
     32 H13        13.5690    4.4130   21.8090 H         1 <0>         0.0000
     33 H14        12.0860    4.8250   22.6960 H         1 <0>         0.0000
     34 N3         14.3510    4.8470   24.5520 N.am      1 <0>         0.0000
     35 O3         13.7110    6.8660   23.7960 O.2       1 <0>         0.0000
     36 C15        13.6490    3.7230   23.9640 C.3       1 <0>         0.0000
     37 C16        13.1710    4.6720   22.7890 C.3       1 <0>         0.0000
     38 C17        13.9720    5.7360   23.6020 C.2       1 <0>         0.0000
     39 H15        14.1690    5.0720   25.5400 H         1 <0>         0.0000
     40 H16        12.8130    3.4860   24.6360 H         1 <0>         0.0000
@<TRIPOS>BOND
     1    5   24 1
     2    5   15 ar
     3    6   15 ar
     4    1    5 ar
     5    1   20 1
     6    6   25 1
     7    6    9 ar
     8    1    7 ar
     9   11   19 1
    10    7    9 ar
    11    9   16 1
    12    7   13 1
    13   12   17 2
    14    3   22 1
    15    3   11 ar
    16    4   11 ar
    17   32   37 1
    18   13   27 1
    19    3    8 ar
    20   12   16 am
    21   16   31 1
    22   12   14 1
    23   13   26 1
    24   13   28 1
    25    4   23 1
    26    4   10 ar
    27   33   37 1
    28    8   14 1
    29    2    8 ar
    30   37   38 1
    31   36   37 1
    32   14   29 1
    33   14   30 1
    34    2   10 ar
    35   10   18 1
    36    2   21 1
    37   35   38 2
    38   34   38 am
    39   18   36 1
    40   34   36 1
    41   36   40 1
    42   34   39 1
@<TRIPOS>MOLECULE
*****
   40    42     0     0     0
SMALL
NO_CHARGES

@<TRIPOS>ATOM
      1 C1          4.0530    0.7760   20.1290 C.ar      1 <0>         0.0000
      2 C2         10.4940    0.3860   24.2860 C.ar      1 <0>         0.0000
      3 C3         11.2300   -1.4520   22.9710 C.ar      1 <0>         0.0000
      4 C4         12.7580    0.2440   23.6500 C.ar      1 <0>         0.0000
      5 C5          4.5490    0.4610   18.8950 C.ar      1 <0>         0.0000
      6 C6          6.4980   -0.2650   19.7940 C.ar      1 <0>         0.0000
      7 C7          4.8700    0.5770   21.2950 C.ar      1 <0>         0.0000
      8 C8         10.1790   -0.7440   23.5400 C.ar      1 <0>         0.0000
      9 C9          6.1190    0.0760   21.0580 C.ar      1 <0>         0.0000
     10 C10        11.8200    0.9200   24.3030 C.ar      1 <0>         0.0000
     11 C11        12.4950   -0.9070   22.9860 C.ar      1 <0>         0.0000
     12 C12         7.9080   -1.1630   22.2330 C.2       1 <0>         0.0000
     13 C13         4.3770    0.9080   22.6970 C.3       1 <0>         0.0000
     14 C14         8.7640   -1.3820   23.5400 C.3       1 <0>         0.0000
     15 N1          5.7700   -0.1200   18.7250 N.ar      1 <0>         0.0000
     16 N2          6.9160   -0.1970   22.1680 N.am      1 <0>         0.0000
     17 O1          8.1670   -1.9240   21.3080 O.2       1 <0>         0.0000
     18 O2         12.1490    2.0180   24.9850 O.3       1 <0>         0.0000
     19 Cl1        13.8480   -1.7190   22.2960 Cl        1 <0>         0.0000
     20 H1          3.0240    1.1200   20.1870 H         1 <0>         0.0000
     21 H2          9.6590    0.8980   24.7330 H         1 <0>         0.0000
     22 H3         10.9880   -2.3670   22.4270 H         1 <0>         0.0000
     23 H4         13.7750    0.5910   23.7770 H         1 <0>         0.0000
     24 H5          3.8810    0.6350   18.0610 H         1 <0>         0.0000
     25 H6          7.5220   -0.5740   19.6260 H         1 <0>         0.0000
     26 H7          4.9320    1.7500   23.1170 H         1 <0>         0.0000
     27 H8          3.3290    1.2260   22.6540 H         1 <0>         0.0000
     28 H9          4.3580   -0.0350   23.2460 H         1 <0>         0.0000
     29 H10         8.8930   -2.4740   23.5540 H         1 <0>         0.0000
     30 H11         8.1160   -0.9860   24.3250 H         1 <0>         0.0000
     31 H12         6.7230    0.4010   22.9620 H         1 <0>         0.0000
     32 N3         12.3020    3.3100   26.9690 N.am      1 <0>         0.0000
     33 O3         10.6120    4.7910   27.1970 O.2       1 <0>         0.0000
     34 C15        11.7230    2.1110   26.2870 C.3       1 <0>         0.0000
     35 C16        10.2850    2.5120   26.6630 C.3       1 <0>         0.0000
     36 C17        11.0450    3.6620   27.2660 C.2       1 <0>         0.0000
     37 H13        12.9440    3.9240   26.4770 H         1 <0>         0.0000
     38 H14        12.0180    1.1780   26.7660 H         1 <0>         0.0000
     39 H15         9.8660    1.8510   27.4280 H         1 <0>         0.0000
     40 H16         9.6520    2.8760   25.8420 H         1 <0>         0.0000
@<TRIPOS>BOND
     1    5   24 1
     2    5   15 ar
     3    6   15 ar
     4    1    5 ar
     5    6   25 1
     6    6    9 ar
     7    1   20 1
     8    1    7 ar
     9    7    9 ar
    10    9   16 1
    11    7   13 1
    12   12   17 2
    13   12   16 am
    14   16   31 1
    15   12   14 1
    16   11   19 1
    17    3   22 1
    18   13   27 1
    19   13   26 1
    20   13   28 1
    21    3   11 ar
    22    3    8 ar
    23    4   11 ar
    24    8   14 1
    25    2    8 ar
    26   14   29 1
    27   14   30 1
    28    4   23 1
    29    4   10 ar
    30    2   10 ar
    31    2   21 1
    32   10   18 1
    33   18   34 1
    34   35   40 1
    35   34   35 1
    36   34   38 1
    37   32   34 1
    38   32   37 1
    39   35   36 1
    40   35   39 1
    41   32   36 am
    42   33   36 2
@<TRIPOS>MOLECULE
*****
   40    42     0     0     0
SMALL
NO_CHARGES

@<TRIPOS>ATOM
      1 C1          5.5140    1.3330   19.0170 C.ar      1 <0>         0.0000
      2 C2         12.0800    1.1120   23.9760 C.ar      1 <0>         0.0000
      3 C3         12.2160   -1.0750   22.8190 C.ar      1 <0>         0.0000
      4 C4         14.1910   -0.0210   23.7920 C.ar      1 <0>         0.0000
      5 C5          6.1510    0.8580   17.9020 C.ar      1 <0>         0.0000
      6 C6          8.1170    0.5580   19.0160 C.ar      1 <0>         0.0000
      7 C7          6.1980    1.3370   20.2000 C.ar      1 <0>         0.0000
      8 C8         11.4090    0.0330   23.2650 C.ar      1 <0>         0.0000
      9 C9          7.5200    0.8780   20.2290 C.ar      1 <0>         0.0000
     10 C10        13.4540    1.0860   24.2330 C.ar      1 <0>         0.0000
     11 C11        13.6300   -1.0520   23.0690 C.ar      1 <0>         0.0000
     12 C12         9.5490    0.6650   21.7310 C.2       1 <0>         0.0000
     13 C13         5.4610    1.6900   21.4240 C.3       1 <0>         0.0000
     14 C14        10.0060    0.0470   23.0650 C.3       1 <0>         0.0000
     15 N1          7.4260    0.4930   17.8520 N.ar      1 <0>         0.0000
     16 N2          8.2050    0.8910   21.4640 N.am      1 <0>         0.0000
     17 O1         10.3780    0.8420   20.8220 O.2       1 <0>         0.0000
     18 O2         14.1130    2.0350   24.9830 O.3       1 <0>         0.0000
     19 Cl1        14.7180   -2.3100   22.5070 Cl        1 <0>         0.0000
     20 H1          4.4980    1.6830   19.1340 H         1 <0>         0.0000
     21 H2         11.5550    1.9780   24.3630 H         1 <0>         0.0000
     22 H3         11.8670   -1.9120   22.2210 H         1 <0>         0.0000
     23 H4         15.2450   -0.0620   24.0350 H         1 <0>         0.0000
     24 H5          5.6490    0.7240   16.9510 H         1 <0>         0.0000
     25 H6          9.1320    0.1830   19.0410 H         1 <0>         0.0000
     26 H7          4.3980    1.8980   21.2810 H         1 <0>         0.0000
     27 H8          5.4160    0.9160   22.1960 H         1 <0>         0.0000
     28 H9          6.0210    2.5510   21.8140 H         1 <0>         0.0000
     29 H10         9.5690   -0.9570   23.0640 H         1 <0>         0.0000
     30 H11         9.5930    0.5560   23.9380 H         1 <0>         0.0000
     31 H12         7.6070    0.6550   22.2600 H         1 <0>         0.0000
     32 C15        14.1750    3.2380   24.2330 C.3       1 <0>         0.0000
     33 C16        15.1350    3.2130   22.9920 C.3       1 <0>         0.0000
     34 C17        15.9300    4.1380   23.8050 C.2       1 <0>         0.0000
     35 H13        15.3660    4.2060   25.7490 H         1 <0>         0.0000
     36 H14        13.1670    3.6370   24.0530 H         1 <0>         0.0000
     37 H15        15.7250    2.2970   22.9070 H         1 <0>         0.0000
     38 H16        14.5770    3.5080   22.0990 H         1 <0>         0.0000
     39 N3         15.0450    4.2600   24.7760 N.am      1 <0>         0.0000
     40 O3         17.1350    4.2790   23.8890 O.2       1 <0>         0.0000
@<TRIPOS>BOND
     1    5   24 1
     2    5   15 ar
     3    6   15 ar
     4    1    5 ar
     5    6   25 1
     6    6    9 ar
     7    1   20 1
     8    1    7 ar
     9    7    9 ar
    10    7   13 1
    11    9   16 1
    12   12   17 2
    13   13   26 1
    14   13   28 1
    15   13   27 1
    16   12   16 am
    17   16   31 1
    18   12   14 1
    19   33   38 1
    20    3   22 1
    21   11   19 1
    22    3   11 ar
    23    3    8 ar
    24   33   37 1
    25   33   34 1
    26   32   33 1
    27   14   29 1
    28    8   14 1
    29   14   30 1
    30    4   11 ar
    31    2    8 ar
    32    4   23 1
    33    4   10 ar
    34   34   40 2
    35   34   39 am
    36    2   10 ar
    37    2   21 1
    38   32   36 1
    39   10   18 1
    40   32   39 1
    41   18   32 1
    42   35   39 1
@<TRIPOS>MOLECULE
*****
   40    42     0     0     0
SMALL
NO_CHARGES

@<TRIPOS>ATOM
      1 C1          6.6820    1.7540   19.2340 C.ar      1 <0>         0.0000
      2 C2          9.8350   -1.6080   22.8730 C.ar      1 <0>         0.0000
      3 C3         10.6900   -3.4820   21.6220 C.ar      1 <0>         0.0000
      4 C4         12.2090   -1.8200   22.4170 C.ar      1 <0>         0.0000
      5 C5          6.3370    1.3800   17.9610 C.ar      1 <0>         0.0000
      6 C6          7.1450   -0.7080   18.3050 C.ar      1 <0>         0.0000
      7 C7          7.3480    0.9270   20.0760 C.ar      1 <0>         0.0000
      8 C8          9.6030   -2.8130   22.2460 C.ar      1 <0>         0.0000
      9 C9          7.5030   -0.3720   19.6930 C.ar      1 <0>         0.0000
     10 C10        11.1270   -1.1150   22.9500 C.ar      1 <0>         0.0000
     11 C11        12.0190   -3.0200   21.7560 C.ar      1 <0>         0.0000
     12 C12         7.6760   -2.6770   20.8260 C.2       1 <0>         0.0000
     13 C13         7.7780    1.5070   21.4580 C.3       1 <0>         0.0000
     14 C14         8.2130   -3.3240   22.0880 C.3       1 <0>         0.0000
     15 N1          6.5610    0.1520   17.4510 N.ar      1 <0>         0.0000
     16 N2          8.0500   -1.3440   20.5840 N.am      1 <0>         0.0000
     17 O1          6.8530   -3.1740   20.0540 O.2       1 <0>         0.0000
     18 O2         11.3910    0.1040   23.5390 O.3       1 <0>         0.0000
     19 Cl1        13.2550   -3.9620   21.0790 Cl        1 <0>         0.0000
     20 H1          6.4420    2.7920   19.4550 H         1 <0>         0.0000
     21 H2          9.0020   -1.0470   23.2880 H         1 <0>         0.0000
     22 H3         10.5590   -4.4090   21.0720 H         1 <0>         0.0000
     23 H4         13.2370   -1.4550   22.4340 H         1 <0>         0.0000
     24 H5          5.9410    2.0840   17.2330 H         1 <0>         0.0000
     25 H6          7.2140   -1.7110   17.9120 H         1 <0>         0.0000
     26 H7          7.1790    2.3900   21.6940 H         1 <0>         0.0000
     27 H8          7.7190    0.7470   22.2430 H         1 <0>         0.0000
     28 H9          8.8380    1.7620   21.3270 H         1 <0>         0.0000
     29 H10         8.2560   -4.4140   21.9720 H         1 <0>         0.0000
     30 H11         7.4810   -3.0740   22.8580 H         1 <0>         0.0000
     31 H12         8.6570   -0.9870   21.3260 H         1 <0>         0.0000
     32 H13        11.9530    0.7630   21.6630 H         1 <0>         0.0000
     33 H14        14.4670    1.1100   22.3200 H         1 <0>         0.0000
     34 H15        13.9430    0.6580   23.9980 H         1 <0>         0.0000
     35 N3         11.8920    2.4730   22.8840 N.am      1 <0>         0.0000
     36 O3         13.6240    3.5900   23.9420 O.2       1 <0>         0.0000
     37 C15        12.1330    1.0460   22.7000 C.3       1 <0>         0.0000
     38 C16        13.6980    1.2220   23.0940 C.3       1 <0>         0.0000
     39 C17        13.1490    2.6600   23.2330 C.2       1 <0>         0.0000
     40 H16        11.1550    2.8630   23.4730 H         1 <0>         0.0000
@<TRIPOS>BOND
     1    5   24 1
     2    5   15 ar
     3    6   15 ar
     4    6   25 1
     5    1    5 ar
     6    6    9 ar
     7    1   20 1
     8    1    7 ar
     9    7    9 ar
    10    9   16 1
    11   12   17 2
    12    7   13 1
    13   12   16 am
    14   16   31 1
    15   12   14 1
    16    3   22 1
    17   11   19 1
    18   13   28 1
    19   13   26 1
    20   13   27 1
    21    3   11 ar
    22    3    8 ar
    23   32   37 1
    24    4   11 ar
    25   14   29 1
    26    8   14 1
    27   14   30 1
    28    2    8 ar
    29   33   38 1
    30    4   23 1
    31    4   10 ar
    32   35   37 1
    33   37   38 1
    34   18   37 1
    35    2   10 ar
    36    2   21 1
    37   35   39 am
    38   35   40 1
    39   10   18 1
    40   38   39 1
    41   34   38 1
    42   36   39 2
@<TRIPOS>MOLECULE
*****
   40    42     0     0     0
SMALL
NO_CHARGES

@<TRIPOS>ATOM
      1 C1          5.5520    2.1890   19.1560 C.ar      1 <0>         0.0000
      2 C2         12.5680    1.6220   22.8380 C.ar      1 <0>         0.0000
      3 C3         12.6570   -0.5690   21.9350 C.ar      1 <0>         0.0000
      4 C4         14.6990    0.8280   22.0550 C.ar      1 <0>         0.0000
      5 C5          6.1280    1.8490   17.9380 C.ar      1 <0>         0.0000
      6 C6          7.9860    0.9070   18.9520 C.ar      1 <0>         0.0000
      7 C7          6.2270    1.8090   20.3110 C.ar      1 <0>         0.0000
      8 C8         11.9010    0.4240   22.5180 C.ar      1 <0>         0.0000
      9 C9          7.4830    1.3000   20.2550 C.ar      1 <0>         0.0000
     10 C10        13.9370    1.8450   22.6120 C.ar      1 <0>         0.0000
     11 C11        14.0250   -0.3750   21.7040 C.ar      1 <0>         0.0000
     12 C12         9.5990    1.1020   21.5980 C.2       1 <0>         0.0000
     13 C13         5.5480    1.9670   21.6260 C.3       1 <0>         0.0000
     14 C14        10.3660    0.2550   22.5330 C.3       1 <0>         0.0000
     15 N1          7.3100    1.2290   17.8390 N.ar      1 <0>         0.0000
     16 N2          8.2270    0.8220   21.3650 N.am      1 <0>         0.0000
     17 O1         10.1070    2.0420   21.0130 O.2       1 <0>         0.0000
     18 O2         14.6600    3.0240   22.7900 O.3       1 <0>         0.0000
     19 Cl1        14.9510   -1.6140   20.8260 Cl        1 <0>         0.0000
     20 H1          4.5740    2.6370   19.3000 H         1 <0>         0.0000
     21 H2         12.0530    2.4170   23.3690 H         1 <0>         0.0000
     22 H3         12.2510   -1.5000   21.5660 H         1 <0>         0.0000
     23 H4         15.7690    0.9700   21.9930 H         1 <0>         0.0000
     24 H5          5.5050    2.0960   17.0810 H         1 <0>         0.0000
     25 H6          8.9570    0.4360   18.8270 H         1 <0>         0.0000
     26 H7          6.3000    2.0810   22.4010 H         1 <0>         0.0000
     27 H8          5.0460    2.9370   21.7030 H         1 <0>         0.0000
     28 H9          4.8090    1.1730   21.7720 H         1 <0>         0.0000
     29 H10        10.0860   -0.7970   22.4260 H         1 <0>         0.0000
     30 H11        10.0090    0.5810   23.5160 H         1 <0>         0.0000
     31 H12         7.8050    0.0660   21.9100 H         1 <0>         0.0000
     32 H13        14.5360    6.1050   23.7880 H         1 <0>         0.0000
     33 H14        13.2040    4.1420   23.7780 H         1 <0>         0.0000
     34 H15        13.6420    4.2290   20.6220 H         1 <0>         0.0000
     35 H16        12.1240    4.5360   21.3760 H         1 <0>         0.0000
     36 N3         14.4910    5.5350   22.9440 N.am      1 <0>         0.0000
     37 O3         12.9770    6.9610   22.0780 O.2       1 <0>         0.0000
     38 C15        13.9130    4.1980   22.9430 C.3       1 <0>         0.0000
     39 C16        13.1950    4.6440   21.5280 C.3       1 <0>         0.0000
     40 C17        13.6700    5.9830   21.9830 C.2       1 <0>         0.0000
@<TRIPOS>BOND
     1    5   24 1
     2    5   15 ar
     3    6   15 ar
     4    1    5 ar
     5    6   25 1
     6    6    9 ar
     7    1   20 1
     8    1    7 ar
     9    7    9 ar
    10    9   16 1
    11    7   13 1
    12   34   39 1
    13   11   19 1
    14   12   17 2
    15   12   16 am
    16   16   31 1
    17   35   39 1
    18   39   40 1
    19   38   39 1
    20    3   22 1
    21   12   14 1
    22   13   27 1
    23   13   28 1
    24   13   26 1
    25    3   11 ar
    26    4   11 ar
    27    3    8 ar
    28   37   40 2
    29   36   40 am
    30    4   23 1
    31    4   10 ar
    32   14   29 1
    33    8   14 1
    34    2    8 ar
    35   14   30 1
    36   10   18 1
    37    2   10 ar
    38   18   38 1
    39    2   21 1
    40   36   38 1
    41   33   38 1
    42   32   36 1
@<TRIPOS>MOLECULE
*****
   40    42     0     0     0
SMALL
NO_CHARGES

@<TRIPOS>ATOM
      1 C1          4.4360    0.7130   18.5160 C.ar      1 <0>         0.0000
      2 C2         11.0190    1.7600   22.9320 C.ar      1 <0>         0.0000
      3 C3         11.4070   -0.4150   21.9520 C.ar      1 <0>         0.0000
      4 C4         13.2570    1.0140   22.5980 C.ar      1 <0>         0.0000
      5 C5          5.0700    0.2580   17.4050 C.ar      1 <0>         0.0000
      6 C6          6.9810   -0.2240   18.6440 C.ar      1 <0>         0.0000
      7 C7          5.0730    0.6570   19.7740 C.ar      1 <0>         0.0000
      8 C8         10.5250    0.5360   22.4760 C.ar      1 <0>         0.0000
      9 C9          6.3710    0.2330   19.8000 C.ar      1 <0>         0.0000
     10 C10        12.4490    2.0290   23.0200 C.ar      1 <0>         0.0000
     11 C11        12.7960   -0.1310   21.9900 C.ar      1 <0>         0.0000
     12 C12         8.3750    0.5430   21.2170 C.2       1 <0>         0.0000
     13 C13         4.3030    1.1530   21.0050 C.3       1 <0>         0.0000
     14 C14         9.0660    0.3090   22.5790 C.3       1 <0>         0.0000
     15 N1          6.3410   -0.1450   17.4210 N.ar      1 <0>         0.0000
     16 N2          7.0490    0.1140   21.0250 N.am      1 <0>         0.0000
     17 O1          8.9760    1.0120   20.2410 O.2       1 <0>         0.0000
     18 O2         13.0160    3.1800   23.6000 O.3       1 <0>         0.0000
     19 Cl1        13.9310   -1.1410   21.1990 Cl        1 <0>         0.0000
     20 H1          3.4570    1.1400   18.3280 H         1 <0>         0.0000
     21 H2         10.2650    2.4800   23.2440 H         1 <0>         0.0000
     22 H3         11.0690   -1.3160   21.4500 H         1 <0>         0.0000
     23 H4         14.3220    1.1620   22.7490 H         1 <0>         0.0000
     24 H5          4.6320    0.2220   16.4160 H         1 <0>         0.0000
     25 H6          7.9280   -0.7590   18.6290 H         1 <0>         0.0000
     26 H7          3.3180    1.6220   20.8410 H         1 <0>         0.0000
     27 H8          4.2140    0.3380   21.7330 H         1 <0>         0.0000
     28 H9          4.8410    1.9290   21.5620 H         1 <0>         0.0000
     29 H10         8.9110   -0.6990   22.9780 H         1 <0>         0.0000
     30 H11         8.5430    0.9860   23.2690 H         1 <0>         0.0000
     31 H12         6.4940   -0.2090   21.8180 H         1 <0>         0.0000
     32 H13        12.4820    4.6640   21.3590 H         1 <0>         0.0000
     33 H14        10.9960    5.3090   22.1680 H         1 <0>         0.0000
     34 N3         12.9290    5.4680   24.1990 N.am      1 <0>         0.0000
     35 O3         13.6910    6.8490   22.6060 O.2       1 <0>         0.0000
     36 C15        12.2700    4.3490   23.6580 C.3       1 <0>         0.0000
     37 C16        12.0670    5.1150   22.2720 C.3       1 <0>         0.0000
     38 C17        12.8220    6.1210   23.0200 C.2       1 <0>         0.0000
     39 H15        13.8270    5.4750   24.6770 H         1 <0>         0.0000
     40 H16        11.3350    4.2340   24.2120 H         1 <0>         0.0000
@<TRIPOS>BOND
     1    5   24 1
     2    5   15 ar
     3    1    5 ar
     4    6   15 ar
     5    1   20 1
     6    1    7 ar
     7    6   25 1
     8    6    9 ar
     9    7    9 ar
    10    7   13 1
    11    9   16 1
    12   12   17 2
    13   13   26 1
    14   13   28 1
    15   13   27 1
    16   12   16 am
    17   16   31 1
    18   11   19 1
    19   12   14 1
    20   32   37 1
    21    3   22 1
    22    3   11 ar
    23    3    8 ar
    24    4   11 ar
    25   33   37 1
    26   37   38 1
    27   36   37 1
    28    8   14 1
    29    2    8 ar
    30   14   29 1
    31   14   30 1
    32    4   23 1
    33    4   10 ar
    34   35   38 2
    35    2   10 ar
    36    2   21 1
    37   10   18 1
    38   34   38 am
    39   18   36 1
    40   34   36 1
    41   36   40 1
    42   34   39 1
@<TRIPOS>MOLECULE
*****
   42    44     0     0     0
SMALL
NO_CHARGES

@<TRIPOS>ATOM
      1 C1          6.9590    0.9870   19.7300 C.ar      1 <0>         0.0000
      2 C2         12.0140   -0.3840   24.2040 C.ar      1 <0>         0.0000
      3 C3         12.7530   -1.6300   22.2500 C.ar      1 <0>         0.0000
      4 C4         13.7700    0.4510   22.7230 C.ar      1 <0>         0.0000
      5 C5          6.8650    0.0440   18.6640 C.ar      1 <0>         0.0000
      6 C6          8.1630   -1.4730   19.8290 C.ar      1 <0>         0.0000
      7 C7          7.7800    0.6710   20.8630 C.ar      1 <0>         0.0000
      8 C8         11.8470   -1.4420   23.3350 C.ar      1 <0>         0.0000
      9 C9          8.3920   -0.5990   20.8920 C.ar      1 <0>         0.0000
     10 C10        12.9940    0.5700   23.8760 C.ar      1 <0>         0.0000
     11 C11        13.7220   -0.6580   21.9430 C.ar      1 <0>         0.0000
     12 C12         9.5950   -2.2220   22.4560 C.2       1 <0>         0.0000
     13 C13         7.7820    1.5390   22.1260 C.3       1 <0>         0.0000
     14 C14        10.6740   -2.4090   23.4640 C.3       1 <0>         0.0000
     15 N1          7.4740   -1.1610   18.6900 N.ar      1 <0>         0.0000
     16 N2          9.1440   -0.9400   22.0200 N.am      1 <0>         0.0000
     17 O1          9.2370   -3.2600   21.9950 O.2       1 <0>         0.0000
     18 O2         13.1750    1.6880   24.6680 O.3       1 <0>         0.0000
     19 Cl1        14.8580   -0.8500   20.5700 Cl        1 <0>         0.0000
     20 H1          6.2680    1.8140   19.8200 H         1 <0>         0.0000
     21 H2         11.3500   -0.3120   25.0500 H         1 <0>         0.0000
     22 H3         12.5970   -2.4680   21.5740 H         1 <0>         0.0000
     23 H4         14.5760    1.1790   22.6210 H         1 <0>         0.0000
     24 H5          6.2760    0.1720   17.7600 H         1 <0>         0.0000
     25 H6          8.6440   -2.4440   19.8970 H         1 <0>         0.0000
     26 H7          7.1790    2.4410   21.9540 H         1 <0>         0.0000
     27 H8          7.2300    0.9660   22.8850 H         1 <0>         0.0000
     28 H9          8.7970    1.7210   22.4680 H         1 <0>         0.0000
     29 H10        11.0860   -3.4020   23.2580 H         1 <0>         0.0000
     30 H11        10.2900   -2.4990   24.4780 H         1 <0>         0.0000
     31 H12         9.5540   -0.2130   22.5920 H         1 <0>         0.0000
     32 H13        11.3760    1.9680   25.6460 H         1 <0>         0.0000
     33 H14        11.5650    2.7820   22.7880 H         1 <0>         0.0000
     34 H15        10.1010    3.0680   23.9400 H         1 <0>         0.0000
     35 N3         12.2380    3.9110   25.4560 N.3       1 <0>         0.0000
     36 O3         12.3650    5.2070   23.7080 O.3       1 <0>         0.0000
     37 C15        12.0290    2.4990   24.9450 C.3       1 <0>         0.0000
     38 C16        11.1910    3.0460   23.7810 C.3       1 <0>         0.0000
     39 C17        11.7640    4.3980   24.3190 C.3       1 <0>         0.0000
     40 H16        13.1960    4.2240   25.6270 H         1 <0>         0.0000
     41 H          12.3650    5.2070   23.7080 H         1 <0>         0.0000
     42 H          11.7640    4.3980   24.3190 H         1 <0>         0.0000
@<TRIPOS>BOND
     1    5   24 1
     2    5   15 ar
     3    1    5 ar
     4    6   15 ar
     5    1   20 1
     6    1    7 ar
     7    6   25 1
     8    6    9 ar
     9   11   19 1
    10    7    9 ar
    11    7   13 1
    12    9   16 1
    13    3   22 1
    14    3   11 ar
    15    4   11 ar
    16   13   26 1
    17   12   17 2
    18   12   16 am
    19   16   31 1
    20   13   28 1
    21   13   27 1
    22    3    8 ar
    23   12   14 1
    24    4   23 1
    25    4   10 ar
    26   33   38 1
    27   14   29 1
    28    8   14 1
    29    2    8 ar
    30   14   30 1
    31   36   39 1
    32   34   38 1
    33   38   39 1
    34   37   38 1
    35    2   10 ar
    36   10   18 1
    37    2   21 1
    38   35   39 1
    39   18   37 1
    40   35   37 1
    41   32   37 1
    42   35   40 1
    43   36   41 1
    44   39   42 1
@<TRIPOS>MOLECULE
*****
   40    42     0     0     0
SMALL
NO_CHARGES

@<TRIPOS>ATOM
      1 C1          5.0160    1.5780   18.9680 C.ar      1 <0>         0.0000
      2 C2         12.0390    0.9770   23.0600 C.ar      1 <0>         0.0000
      3 C3         11.9120   -1.1050   21.7100 C.ar      1 <0>         0.0000
      4 C4         14.0150   -0.3200   22.6070 C.ar      1 <0>         0.0000
      5 C5          5.6180    1.4990   17.7520 C.ar      1 <0>         0.0000
      6 C6          7.5800    0.9170   18.7130 C.ar      1 <0>         0.0000
      7 C7          5.6850    1.2720   20.1220 C.ar      1 <0>         0.0000
      8 C8         11.2920   -0.0370   22.4660 C.ar      1 <0>         0.0000
      9 C9          7.0200    1.0170   20.0540 C.ar      1 <0>         0.0000
     10 C10        13.4360    0.8400   23.1350 C.ar      1 <0>         0.0000
     11 C11        13.2580   -1.2530   21.8660 C.ar      1 <0>         0.0000
     12 C12         9.0260    0.8390   21.4690 C.2       1 <0>         0.0000
     13 C13         4.9410    1.4900   21.4290 C.3       1 <0>         0.0000
     14 C14         9.7020   -0.0320   22.5130 C.3       1 <0>         0.0000
     15 N1          6.9250    1.2090   17.5970 N.ar      1 <0>         0.0000
     16 N2          7.7130    0.6960   21.2660 N.am      1 <0>         0.0000
     17 O1          9.6980    1.6560   20.8550 O.2       1 <0>         0.0000
     18 O2         14.2650    1.8110   23.5960 O.3       1 <0>         0.0000
     19 Cl1        14.1240   -2.4840   20.9900 Cl        1 <0>         0.0000
     20 H1          3.9730    1.8700   19.0650 H         1 <0>         0.0000
     21 H2         11.4670    1.7190   23.5980 H         1 <0>         0.0000
     22 H3         11.3270   -1.8840   21.2290 H         1 <0>         0.0000
     23 H4         15.0790   -0.5280   22.6580 H         1 <0>         0.0000
     24 H5          5.0690    1.6370   16.8270 H         1 <0>         0.0000
     25 H6          8.6260    0.6520   18.5910 H         1 <0>         0.0000
     26 H7          4.0450    2.0810   21.1930 H         1 <0>         0.0000
     27 H8          4.6310    0.5160   21.8190 H         1 <0>         0.0000
     28 H9          5.5000    2.0940   22.1520 H         1 <0>         0.0000
     29 H10         9.2350   -1.0250   22.4250 H         1 <0>         0.0000
     30 H11         9.4030    0.5090   23.4220 H         1 <0>         0.0000
     31 H12         7.3180    0.1430   22.0250 H         1 <0>         0.0000
     32 N3         14.7250    4.2890   23.7490 N.am      1 <0>         0.0000
     33 O3         15.3940    5.3500   21.8370 O.2       1 <0>         0.0000
     34 C15        13.8080    3.1840   23.4380 C.3       1 <0>         0.0000
     35 C16        13.6120    3.7180   21.9790 C.3       1 <0>         0.0000
     36 C17        14.6110    4.7400   22.5160 C.2       1 <0>         0.0000
     37 H13        15.6280    4.3060   24.2260 H         1 <0>         0.0000
     38 H14        12.8630    3.3220   23.9720 H         1 <0>         0.0000
     39 H15        13.9380    2.9390   21.2770 H         1 <0>         0.0000
     40 H16        12.5620    4.0150   21.9340 H         1 <0>         0.0000
@<TRIPOS>BOND
     1    5   24 1
     2    5   15 ar
     3    6   15 ar
     4    1    5 ar
     5    6   25 1
     6    6    9 ar
     7    1   20 1
     8    1    7 ar
     9    7    9 ar
    10    9   16 1
    11    7   13 1
    12   12   17 2
    13   11   19 1
    14   13   26 1
    15    3   22 1
    16   12   16 am
    17   16   31 1
    18   35   39 1
    19   13   27 1
    20   13   28 1
    21   12   14 1
    22    3   11 ar
    23    3    8 ar
    24   33   36 2
    25    4   11 ar
    26   35   40 1
    27   35   36 1
    28   34   35 1
    29   14   29 1
    30    8   14 1
    31    2    8 ar
    32   14   30 1
    33   32   36 am
    34    4   23 1
    35    4   10 ar
    36    2   10 ar
    37    2   21 1
    38   10   18 1
    39   18   34 1
    40   32   34 1
    41   34   38 1
    42   32   37 1
@<TRIPOS>MOLECULE
*****
   40    42     0     0     0
SMALL
NO_CHARGES

@<TRIPOS>ATOM
      1 C1          4.3720    0.5830   19.8820 C.ar      1 <0>         0.0000
      2 C2         11.6310    2.1060   22.8870 C.ar      1 <0>         0.0000
      3 C3         11.9250   -0.2760   22.4660 C.ar      1 <0>         0.0000
      4 C4         13.8540    1.1330   22.5620 C.ar      1 <0>         0.0000
      5 C5          4.7740    0.9360   18.5420 C.ar      1 <0>         0.0000
      6 C6          6.9910    0.8100   19.3240 C.ar      1 <0>         0.0000
      7 C7          5.3180    0.3060   20.8610 C.ar      1 <0>         0.0000
      8 C8         11.0820    0.8260   22.8210 C.ar      1 <0>         0.0000
      9 C9          6.6090    0.5580   20.6620 C.ar      1 <0>         0.0000
     10 C10        13.0860    2.2770   22.8100 C.ar      1 <0>         0.0000
     11 C11        13.2980   -0.1340   22.3840 C.ar      1 <0>         0.0000
     12 C12         8.7120    1.0970   22.0080 C.2       1 <0>         0.0000
     13 C13         4.7190   -0.0090   22.1890 C.3       1 <0>         0.0000
     14 C14         9.6300    0.5920   23.1130 C.3       1 <0>         0.0000
     15 N1          6.0950    1.0240   18.2710 N.ar      1 <0>         0.0000
     16 N2          7.5230    0.4170   21.7490 N.am      1 <0>         0.0000
     17 O1          8.9800    2.1140   21.3210 O.2       1 <0>         0.0000
     18 O2         13.7290    3.4990   22.9220 O.3       1 <0>         0.0000
     19 Cl1        14.1950   -1.5070   21.8130 Cl        1 <0>         0.0000
     20 H1          3.3100    0.5390   20.0940 H         1 <0>         0.0000
     21 H2         11.0150    2.9930   23.0360 H         1 <0>         0.0000
     22 H3         11.5220   -1.2740   22.3100 H         1 <0>         0.0000
     23 H4         14.8830    1.2400   22.2320 H         1 <0>         0.0000
     24 H5          4.0850    1.0370   17.7150 H         1 <0>         0.0000
     25 H6          8.0580    0.8410   19.1210 H         1 <0>         0.0000
     26 H7          3.8830   -0.7180   22.1080 H         1 <0>         0.0000
     27 H8          5.4620   -0.5110   22.8200 H         1 <0>         0.0000
     28 H9          4.3660    0.9110   22.6570 H         1 <0>         0.0000
     29 H10         9.4010   -0.4810   23.2040 H         1 <0>         0.0000
     30 H11         9.3620    1.1050   24.0410 H         1 <0>         0.0000
     31 H12         7.1680   -0.0440   22.5890 H         1 <0>         0.0000
     32 H13        12.3860    5.2670   21.1520 H         1 <0>         0.0000
     33 H14        11.1130    5.6120   22.4040 H         1 <0>         0.0000
     34 N3         13.6850    5.8940   23.6250 N.am      1 <0>         0.0000
     35 O3         13.2880    7.6200   22.1550 O.2       1 <0>         0.0000
     36 C15        12.9430    4.6630   23.3140 C.3       1 <0>         0.0000
     37 C16        12.1740    5.4850   22.2070 C.3       1 <0>         0.0000
     38 C17        13.0360    6.5880   22.7300 C.2       1 <0>         0.0000
     39 H15        14.6560    5.9720   23.9260 H         1 <0>         0.0000
     40 H16        12.2510    4.4710   24.1370 H         1 <0>         0.0000
@<TRIPOS>BOND
     1    5   24 1
     2    5   15 ar
     3    6   15 ar
     4    1    5 ar
     5    6   25 1
     6    6    9 ar
     7    1   20 1
     8    1    7 ar
     9    7    9 ar
    10    9   16 1
    11    7   13 1
    12   32   37 1
    13   12   17 2
    14   12   16 am
    15   16   31 1
    16   11   19 1
    17   12   14 1
    18   13   26 1
    19   35   38 2
    20   13   28 1
    21   13   27 1
    22   33   37 1
    23   37   38 1
    24   36   37 1
    25    4   23 1
    26    3   22 1
    27    3   11 ar
    28    4   11 ar
    29    3    8 ar
    30    4   10 ar
    31   34   38 am
    32    2   10 ar
    33   10   18 1
    34    2    8 ar
    35    8   14 1
    36    2   21 1
    37   18   36 1
    38   14   29 1
    39   14   30 1
    40   34   36 1
    41   36   40 1
    42   34   39 1
@<TRIPOS>MOLECULE
*****
   40    42     0     0     0
SMALL
NO_CHARGES

@<TRIPOS>ATOM
      1 C1          4.9140    2.3490   19.0020 C.ar      1 <0>         0.0000
      2 C2         11.4660    3.8860   23.6470 C.ar      1 <0>         0.0000
      3 C3         11.7310    1.6570   22.9420 C.ar      1 <0>         0.0000
      4 C4         13.7380    2.8790   23.3640 C.ar      1 <0>         0.0000
      5 C5          5.5700    1.4300   18.1410 C.ar      1 <0>         0.0000
      6 C6          7.1840    0.9310   19.6370 C.ar      1 <0>         0.0000
      7 C7          5.5200    2.5550   20.2370 C.ar      1 <0>         0.0000
      8 C8         10.8800    2.6740   23.3660 C.ar      1 <0>         0.0000
      9 C9          6.7420    1.9430   20.4980 C.ar      1 <0>         0.0000
     10 C10        12.9000    3.9710   23.7740 C.ar      1 <0>         0.0000
     11 C11        13.0700    1.7580   22.8340 C.ar      1 <0>         0.0000
     12 C12         8.7910    2.3060   21.8550 C.2       1 <0>         0.0000
     13 C13         4.9230    3.5890   21.1530 C.3       1 <0>         0.0000
     14 C14         9.3640    2.5250   23.2940 C.3       1 <0>         0.0000
     15 N1          6.6440    0.7440   18.4290 N.ar      1 <0>         0.0000
     16 N2          7.4350    2.1880   21.6550 N.am      1 <0>         0.0000
     17 O1          9.4810    2.3380   20.8090 O.2       1 <0>         0.0000
     18 O2         13.5720    5.1350   24.2300 O.3       1 <0>         0.0000
     19 Cl1        14.0120    0.3970   22.1980 Cl        1 <0>         0.0000
     20 H1          4.0630    2.8870   18.5860 H         1 <0>         0.0000
     21 H2         10.8890    4.8010   23.6510 H         1 <0>         0.0000
     22 H3         11.3580    0.6920   22.5970 H         1 <0>         0.0000
     23 H4         14.8140    3.0110   23.3430 H         1 <0>         0.0000
     24 H5          5.2240    1.4560   17.1080 H         1 <0>         0.0000
     25 H6          8.0720    0.3870   19.9250 H         1 <0>         0.0000
     26 H7          4.9640    3.2910   22.1950 H         1 <0>         0.0000
     27 H8          5.3090    4.6060   20.9910 H         1 <0>         0.0000
     28 H9          3.8610    3.7530   20.9430 H         1 <0>         0.0000
     29 H10         9.0400    1.6590   23.8810 H         1 <0>         0.0000
     30 H11         8.9250    3.3340   23.8670 H         1 <0>         0.0000
     31 H12         6.8500    2.1580   22.4940 H         1 <0>         0.0000
     32 C15        12.7690    6.2060   24.7150 C.3       1 <0>         0.0000
     33 C16        12.1570    7.1640   23.6180 C.3       1 <0>         0.0000
     34 C17        13.1850    8.0700   24.2020 C.2       1 <0>         0.0000
     35 H13        14.6560    7.1250   25.1990 H         1 <0>         0.0000
     36 H14        12.0500    5.8960   25.4830 H         1 <0>         0.0000
     37 H15        11.1290    7.4800   23.8190 H         1 <0>         0.0000
     38 H16        12.4320    6.9720   22.5680 H         1 <0>         0.0000
     39 N3         13.6500    7.2600   25.1100 N.am      1 <0>         0.0000
     40 O3         13.8850    8.8700   23.5860 O.2       1 <0>         0.0000
@<TRIPOS>BOND
     1    5   24 1
     2    5   15 ar
     3    1    5 ar
     4    6   15 ar
     5    1   20 1
     6    1    7 ar
     7    6   25 1
     8    6    9 ar
     9    7    9 ar
    10    7   13 1
    11    9   16 1
    12   12   17 2
    13   13   28 1
    14   13   27 1
    15   13   26 1
    16   12   16 am
    17   16   31 1
    18   12   14 1
    19   11   19 1
    20   33   38 1
    21    3   22 1
    22    3   11 ar
    23    4   11 ar
    24    3    8 ar
    25    8   14 1
    26   14   30 1
    27   14   29 1
    28    4   23 1
    29    4   10 ar
    30    2    8 ar
    31   34   40 2
    32   33   37 1
    33   33   34 1
    34   32   33 1
    35    2   21 1
    36    2   10 ar
    37   10   18 1
    38   34   39 am
    39   18   32 1
    40   32   39 1
    41   32   36 1
    42   35   39 1
@<TRIPOS>MOLECULE
*****
   40    42     0     0     0
SMALL
NO_CHARGES

@<TRIPOS>ATOM
      1 C1          5.4050    2.1080   18.4770 C.ar      1 <0>         0.0000
      2 C2         10.5660    1.8070   23.3800 C.ar      1 <0>         0.0000
      3 C3         11.0960   -0.4190   22.4780 C.ar      1 <0>         0.0000
      4 C4         12.8130    1.2180   22.6390 C.ar      1 <0>         0.0000
      5 C5          5.4860    1.1660   17.4800 C.ar      1 <0>         0.0000
      6 C6          7.0870    0.1030   18.6890 C.ar      1 <0>         0.0000
      7 C7          6.1270    2.0460   19.7060 C.ar      1 <0>         0.0000
      8 C8         10.1520    0.5180   22.9910 C.ar      1 <0>         0.0000
      9 C9          6.9860    0.9650   19.8170 C.ar      1 <0>         0.0000
     10 C10        11.8940    2.1890   23.1500 C.ar      1 <0>         0.0000
     11 C11        12.3910   -0.0600   22.4230 C.ar      1 <0>         0.0000
     12 C12         8.0620   -0.1120   21.7970 C.2       1 <0>         0.0000
     13 C13         5.7490    3.0110   20.7960 C.3       1 <0>         0.0000
     14 C14         8.6990    0.1000   23.1670 C.3       1 <0>         0.0000
     15 N1          6.3580    0.1790   17.5720 N.ar      1 <0>         0.0000
     16 N2          7.8190    0.9840   20.9820 N.am      1 <0>         0.0000
     17 O1          7.7900   -1.2360   21.3620 O.2       1 <0>         0.0000
     18 O2         12.2520    3.4940   23.4470 O.3       1 <0>         0.0000
     19 Cl1        13.6810   -1.1570   22.0890 Cl        1 <0>         0.0000
     20 H1          4.7200    2.9350   18.3040 H         1 <0>         0.0000
     21 H2          9.8190    2.4960   23.7780 H         1 <0>         0.0000
     22 H3         10.8260   -1.4530   22.3070 H         1 <0>         0.0000
     23 H4         13.8520    1.4890   22.7710 H         1 <0>         0.0000
     24 H5          4.8940    1.2630   16.5670 H         1 <0>         0.0000
     25 H6          7.9170   -0.6040   18.7230 H         1 <0>         0.0000
     26 H7          6.2480    3.9390   20.5070 H         1 <0>         0.0000
     27 H8          4.6710    3.1370   20.9030 H         1 <0>         0.0000
     28 H9          6.0090    2.7170   21.8220 H         1 <0>         0.0000
     29 H10         8.6660   -0.8710   23.6720 H         1 <0>         0.0000
     30 H11         8.1180    0.7500   23.8330 H         1 <0>         0.0000
     31 H12         7.8930    1.9170   21.3900 H         1 <0>         0.0000
     32 H13        11.3630    3.8940   21.6140 H         1 <0>         0.0000
     33 H14        14.0580    5.0220   22.3500 H         1 <0>         0.0000
     34 H15        13.1230    4.8770   20.7520 H         1 <0>         0.0000
     35 N3         11.1990    5.6560   22.7860 N.am      1 <0>         0.0000
     36 O3         12.1630    7.4750   21.8470 O.2       1 <0>         0.0000
     37 C15        11.8940    4.4110   22.4110 C.3       1 <0>         0.0000
     38 C16        13.1120    5.1590   21.8020 C.3       1 <0>         0.0000
     39 C17        12.2430    6.3630   22.2710 C.2       1 <0>         0.0000
     40 H16        10.2320    5.9250   22.5970 H         1 <0>         0.0000
@<TRIPOS>BOND
     1    5   24 1
     2    5   15 ar
     3    1    5 ar
     4    6   15 ar
     5    1   20 1
     6    1    7 ar
     7    6   25 1
     8    6    9 ar
     9    7    9 ar
    10    7   13 1
    11    9   16 1
    12   13   26 1
    13   34   38 1
    14   13   27 1
    15   13   28 1
    16   16   31 1
    17   12   16 am
    18   12   17 2
    19   32   37 1
    20   12   14 1
    21   38   39 1
    22   33   38 1
    23   37   38 1
    24   36   39 2
    25   11   19 1
    26   35   39 am
    27    3   22 1
    28   35   37 1
    29   18   37 1
    30    3   11 ar
    31    4   11 ar
    32    3    8 ar
    33   35   40 1
    34    4   23 1
    35    4   10 ar
    36    8   14 1
    37    2    8 ar
    38    2   10 ar
    39   10   18 1
    40   14   29 1
    41   14   30 1
    42    2   21 1
@<TRIPOS>MOLECULE
*****
   40    42     0     0     0
SMALL
NO_CHARGES

@<TRIPOS>ATOM
      1 C1          4.8420    2.0110   18.4760 C.ar      1 <0>         0.0000
      2 C2         11.6600    3.0180   22.7440 C.ar      1 <0>         0.0000
      3 C3         11.7620    0.7390   22.2620 C.ar      1 <0>         0.0000
      4 C4         13.7590    2.0410   22.1370 C.ar      1 <0>         0.0000
      5 C5          5.4340    1.3230   17.4100 C.ar      1 <0>         0.0000
      6 C6          7.1440    0.7120   18.7380 C.ar      1 <0>         0.0000
      7 C7          5.4070    2.0110   19.7200 C.ar      1 <0>         0.0000
      8 C8         10.9680    1.8260   22.5990 C.ar      1 <0>         0.0000
      9 C9          6.6350    1.4270   19.8750 C.ar      1 <0>         0.0000
     10 C10        13.0710    3.1590   22.5130 C.ar      1 <0>         0.0000
     11 C11        13.0760    0.8310   22.0010 C.ar      1 <0>         0.0000
     12 C12         8.7620    1.5670   21.1960 C.2       1 <0>         0.0000
     13 C13         4.7200    2.7060   20.8620 C.3       1 <0>         0.0000
     14 C14         9.3810    1.6560   22.6140 C.3       1 <0>         0.0000
     15 N1          6.5710    0.6110   17.5450 N.ar      1 <0>         0.0000
     16 N2          7.3980    1.4760   20.9890 N.am      1 <0>         0.0000
     17 O1          9.4910    1.4260   20.2430 O.2       1 <0>         0.0000
     18 O2         13.7600    4.4270   22.5550 O.3       1 <0>         0.0000
     19 Cl1        13.9860   -0.5720   21.6410 Cl        1 <0>         0.0000
     20 H1          3.9340    2.5790   18.3260 H         1 <0>         0.0000
     21 H2         11.1150    3.9210   23.0050 H         1 <0>         0.0000
     22 H3         11.2550   -0.2160   22.1580 H         1 <0>         0.0000
     23 H4         14.8110    2.1310   21.9070 H         1 <0>         0.0000
     24 H5          4.9130    1.2320   16.4710 H         1 <0>         0.0000
     25 H6          8.1210    0.2650   18.8490 H         1 <0>         0.0000
     26 H7          4.6640    3.7850   20.6700 H         1 <0>         0.0000
     27 H8          3.6190    2.6800   20.8860 H         1 <0>         0.0000
     28 H9          5.0730    2.4150   21.8510 H         1 <0>         0.0000
     29 H10         8.9510    0.8360   23.1900 H         1 <0>         0.0000
     30 H11         9.0080    2.5870   23.0560 H         1 <0>         0.0000
     31 H12         6.8840    1.5890   21.8510 H         1 <0>         0.0000
     32 H13        12.6220    5.1080   24.2060 H         1 <0>         0.0000
     33 H14        12.4350    6.4050   21.4570 H         1 <0>         0.0000
     34 H15        11.5090    6.9900   22.8900 H         1 <0>         0.0000
     35 N3         14.1940    6.3990   23.6470 N.am      1 <0>         0.0000
     36 O3         13.6840    8.5400   23.3020 O.2       1 <0>         0.0000
     37 C15        13.2090    5.4130   23.3250 C.3       1 <0>         0.0000
     38 C16        12.4470    6.5670   22.5340 C.3       1 <0>         0.0000
     39 C17        13.5790    7.3910   22.9750 C.2       1 <0>         0.0000
     40 H16        14.6100    6.6630   24.5350 H         1 <0>         0.0000
@<TRIPOS>BOND
     1    5   24 1
     2    5   15 ar
     3    1    5 ar
     4    6   15 ar
     5    1   20 1
     6    1    7 ar
     7    6   25 1
     8    6    9 ar
     9    7    9 ar
    10    7   13 1
    11    9   16 1
    12   12   17 2
    13   13   26 1
    14   13   27 1
    15   13   28 1
    16   12   16 am
    17   16   31 1
    18   12   14 1
    19   33   38 1
    20   11   19 1
    21    4   23 1
    22    4   11 ar
    23    3   11 ar
    24    4   10 ar
    25    3   22 1
    26    3    8 ar
    27   10   18 1
    28    2   10 ar
    29   34   38 1
    30   38   39 1
    31   37   38 1
    32   18   37 1
    33    8   14 1
    34    2    8 ar
    35   14   30 1
    36   14   29 1
    37    2   21 1
    38   36   39 2
    39   35   39 am
    40   35   37 1
    41   32   37 1
    42   35   40 1
@<TRIPOS>MOLECULE
*****
   40    42     0     0     0
SMALL
NO_CHARGES

@<TRIPOS>ATOM
      1 C1          5.5370    1.8950   19.0460 C.ar      1 <0>         0.0000
      2 C2         10.2530   -0.8470   22.7110 C.ar      1 <0>         0.0000
      3 C3         11.0310   -2.5260   21.1440 C.ar      1 <0>         0.0000
      4 C4         12.5770   -0.8580   21.9660 C.ar      1 <0>         0.0000
      5 C5          5.4100    1.4530   17.6390 C.ar      1 <0>         0.0000
      6 C6          6.6980   -0.3970   18.0690 C.ar      1 <0>         0.0000
      7 C7          6.3500    1.1880   19.8750 C.ar      1 <0>         0.0000
      8 C8         10.0080   -1.9130   21.8030 C.ar      1 <0>         0.0000
      9 C9          6.8750    0.0520   19.3940 C.ar      1 <0>         0.0000
     10 C10        11.5570   -0.3040   22.7380 C.ar      1 <0>         0.0000
     11 C11        12.3330   -2.0570   21.2370 C.ar      1 <0>         0.0000
     12 C12         7.7210   -2.0530   20.5440 C.2       1 <0>         0.0000
     13 C13         6.6010    1.7930   21.2480 C.3       1 <0>         0.0000
     14 C14         8.5720   -2.5430   21.7530 C.3       1 <0>         0.0000
     15 N1          5.9330    0.2940   17.2180 N.ar      1 <0>         0.0000
     16 N2          7.6190   -0.7010   20.3200 N.am      1 <0>         0.0000
     17 O1          6.9480   -2.7940   19.9130 O.2       1 <0>         0.0000
     18 O2         11.8230    0.6540   23.7320 O.3       1 <0>         0.0000
     19 Cl1        13.6230   -3.1250   20.8560 Cl        1 <0>         0.0000
     20 H1          4.9270    2.7350   19.3660 H         1 <0>         0.0000
     21 H2          9.4470   -0.4240   23.3030 H         1 <0>         0.0000
     22 H3         10.8960   -3.4080   20.5340 H         1 <0>         0.0000
     23 H4         13.5930   -0.4850   22.0990 H         1 <0>         0.0000
     24 H5          4.7760    2.0270   16.9600 H         1 <0>         0.0000
     25 H6          7.1500   -1.2980   17.6790 H         1 <0>         0.0000
     26 H7          6.5940    2.8880   21.2230 H         1 <0>         0.0000
     27 H8          5.7940    1.5350   21.9430 H         1 <0>         0.0000
     28 H9          7.5250    1.5060   21.7620 H         1 <0>         0.0000
     29 H10         8.6430   -3.6280   21.6310 H         1 <0>         0.0000
     30 H11         8.0630   -2.2030   22.6680 H         1 <0>         0.0000
     31 H12         8.1040   -0.1830   21.0530 H         1 <0>         0.0000
     32 O3         12.7970    4.4190   22.4810 O.2       1 <0>         0.0000
     33 C15        12.9900    1.4250   23.5420 C.3       1 <0>         0.0000
     34 C16        13.1100    2.7360   24.2470 C.3       1 <0>         0.0000
     35 C17        13.1360    3.2800   22.8770 C.2       1 <0>         0.0000
     36 H13        12.1410    2.0160   21.6240 H         1 <0>         0.0000
     37 H14        13.8340    0.7590   23.7320 H         1 <0>         0.0000
     38 H15        14.0850    2.8810   24.7220 H         1 <0>         0.0000
     39 H16        12.2720    3.1210   24.8230 H         1 <0>         0.0000
     40 N3         12.9510    2.1120   22.2370 N.am      1 <0>         0.0000
@<TRIPOS>BOND
     1    5   24 1
     2    5   15 ar
     3    6   15 ar
     4    1    5 ar
     5    6   25 1
     6    6    9 ar
     7    1   20 1
     8    1    7 ar
     9    7    9 ar
    10    9   16 1
    11    7   13 1
    12   12   17 2
    13   12   16 am
    14   16   31 1
    15    3   22 1
    16   12   14 1
    17   11   19 1
    18    3   11 ar
    19    3    8 ar
    20   13   26 1
    21    4   11 ar
    22   13   28 1
    23   13   27 1
    24   36   40 1
    25   14   29 1
    26    8   14 1
    27   14   30 1
    28    2    8 ar
    29    4   23 1
    30    4   10 ar
    31   35   40 am
    32   33   40 1
    33   32   35 2
    34    2   10 ar
    35    2   21 1
    36   10   18 1
    37   34   35 1
    38   18   33 1
    39   33   37 1
    40   33   34 1
    41   34   38 1
    42   34   39 1
@<TRIPOS>MOLECULE
*****
   40    42     0     0     0
SMALL
NO_CHARGES

@<TRIPOS>ATOM
      1 C1          5.8520    2.0310   19.4310 C.ar      1 <0>         0.0000
      2 C2         12.9520    2.2000   23.2170 C.ar      1 <0>         0.0000
      3 C3         13.1310    0.0630   22.2550 C.ar      1 <0>         0.0000
      4 C4         15.1030    1.3410   22.4950 C.ar      1 <0>         0.0000
      5 C5          6.1980    1.3360   18.2860 C.ar      1 <0>         0.0000
      6 C6          8.1780    0.6690   19.2910 C.ar      1 <0>         0.0000
      7 C7          6.6620    1.9970   20.5750 C.ar      1 <0>         0.0000
      8 C8         12.3320    1.0660   22.7980 C.ar      1 <0>         0.0000
      9 C9          7.8320    1.2240   20.5520 C.ar      1 <0>         0.0000
     10 C10        14.3670    2.3330   23.1810 C.ar      1 <0>         0.0000
     11 C11        14.4870    0.1910   21.9500 C.ar      1 <0>         0.0000
     12 C12         9.9190    0.4670   21.8570 C.2       1 <0>         0.0000
     13 C13         6.3290    2.8060   21.8530 C.3       1 <0>         0.0000
     14 C14        10.8110    0.7800   23.0960 C.3       1 <0>         0.0000
     15 N1          7.4570    0.7970   18.1510 N.ar      1 <0>         0.0000
     16 N2          8.6510    1.0490   21.7020 N.am      1 <0>         0.0000
     17 O1         10.3880   -0.1490   20.9210 O.2       1 <0>         0.0000
     18 O2         15.0330    3.4260   23.6850 O.3       1 <0>         0.0000
     19 Cl1        15.4950   -1.0300   21.1620 Cl        1 <0>         0.0000
     20 H1          4.9240    2.5940   19.3590 H         1 <0>         0.0000
     21 H2         12.3220    3.0260   23.5210 H         1 <0>         0.0000
     22 H3         12.6600   -0.8870   22.0190 H         1 <0>         0.0000
     23 H4         16.1470    1.6290   22.3770 H         1 <0>         0.0000
     24 H5          5.5030    1.4230   17.4490 H         1 <0>         0.0000
     25 H6          9.1220    0.1330   19.2430 H         1 <0>         0.0000
     26 H7          6.9000    3.7280   21.7250 H         1 <0>         0.0000
     27 H8          5.2510    2.9890   21.8840 H         1 <0>         0.0000
     28 H9          6.5620    2.2440   22.7660 H         1 <0>         0.0000
     29 H10        10.6830    0.1400   23.9740 H         1 <0>         0.0000
     30 H11        10.3840    1.7190   23.4480 H         1 <0>         0.0000
     31 H12         8.4880    1.6570   22.5070 H         1 <0>         0.0000
     32 H13        13.6350    4.2220   24.9690 H         1 <0>         0.0000
     33 H14        12.6990    5.8100   23.2290 H         1 <0>         0.0000
     34 H15        14.1310    5.3660   22.1720 H         1 <0>         0.0000
     35 N3         15.1660    5.5600   24.7590 N.am      1 <0>         0.0000
     36 O3         15.2610    7.5020   23.5520 O.2       1 <0>         0.0000
     37 C15        14.3340    4.5390   24.1950 C.3       1 <0>         0.0000
     38 C16        13.7700    5.6100   23.1820 C.3       1 <0>         0.0000
     39 C17        14.6520    6.5140   23.9440 C.2       1 <0>         0.0000
     40 H16        16.1900    5.5790   24.7520 H         1 <0>         0.0000
@<TRIPOS>BOND
     1    5   24 1
     2    5   15 ar
     3    6   15 ar
     4    1    5 ar
     5    6   25 1
     6    6    9 ar
     7    1   20 1
     8    1    7 ar
     9    7    9 ar
    10    9   16 1
    11    7   13 1
    12   12   17 2
    13   11   19 1
    14   12   16 am
    15   16   31 1
    16   13   26 1
    17   13   27 1
    18   13   28 1
    19   12   14 1
    20    3   11 ar
    21    4   11 ar
    22    3   22 1
    23   34   38 1
    24    3    8 ar
    25    4   23 1
    26    4   10 ar
    27    8   14 1
    28    2    8 ar
    29   14   30 1
    30   14   29 1
    31    2   10 ar
    32   10   18 1
    33   33   38 1
    34   38   39 1
    35   37   38 1
    36    2   21 1
    37   36   39 2
    38   18   37 1
    39   35   39 am
    40   35   37 1
    41   32   37 1
    42   35   40 1
@<TRIPOS>MOLECULE
*****
   40    42     0     0     0
SMALL
NO_CHARGES

@<TRIPOS>ATOM
      1 C1         10.4570   -4.9780   22.6040 C.ar      1 <0>         0.0000
      2 C2         13.2460    0.8070   24.6780 C.ar      1 <0>         0.0000
      3 C3         13.0090   -1.5360   25.1140 C.ar      1 <0>         0.0000
      4 C4         15.0940   -0.4440   25.5390 C.ar      1 <0>         0.0000
      5 C5          9.1240   -4.8800   22.6810 C.ar      1 <0>         0.0000
      6 C6          9.0780   -2.7110   22.0130 C.ar      1 <0>         0.0000
      7 C7         11.1870   -3.8950   22.1720 C.ar      1 <0>         0.0000
      8 C8         12.4330   -0.3380   24.6860 C.ar      1 <0>         0.0000
      9 C9         10.5030   -2.6860   21.9590 C.ar      1 <0>         0.0000
     10 C10        14.5910    0.7640   25.0780 C.ar      1 <0>         0.0000
     11 C11        14.4010   -1.6170   25.4670 C.ar      1 <0>         0.0000
     12 C12        11.1330   -0.3680   22.4800 C.2       1 <0>         0.0000
     13 C13        12.6930   -3.9940   21.9900 C.3       1 <0>         0.0000
     14 C14        11.0840   -0.4230   23.9930 C.3       1 <0>         0.0000
     15 N1          8.4250   -3.7940   22.4270 N.ar      1 <0>         0.0000
     16 N2         11.1770   -1.4670   21.6060 N.am      1 <0>         0.0000
     17 O1         11.0980    0.7320   21.9230 O.2       1 <0>         0.0000
     18 O2         15.4810    1.7960   24.9360 O.3       1 <0>         0.0000
     19 Cl1        15.0850   -3.1340   25.8670 Cl        1 <0>         0.0000
     20 H1         10.8550   -5.9760   22.7510 H         1 <0>         0.0000
     21 H2         12.7390    1.7230   24.3740 H         1 <0>         0.0000
     22 H3         12.4750   -2.4590   24.9660 H         1 <0>         0.0000
     23 H4         16.0750   -0.4220   26.0090 H         1 <0>         0.0000
     24 H5          8.5520   -5.7170   23.0600 H         1 <0>         0.0000
     25 H6          8.4520   -1.8460   21.8180 H         1 <0>         0.0000
     26 H7         13.0840   -4.1350   23.0090 H         1 <0>         0.0000
     27 H8         12.8260   -4.8860   21.3660 H         1 <0>         0.0000
     28 H9         13.1030   -3.0730   21.5670 H         1 <0>         0.0000
     29 H10        10.5430   -1.3340   24.2870 H         1 <0>         0.0000
     30 H11        10.4830    0.3970   24.3830 H         1 <0>         0.0000
     31 H12        10.9390   -1.0880   20.6920 H         1 <0>         0.0000
     32 C15        14.8920    3.1560   24.9270 C.3       1 <0>         0.0000
     33 C16        14.3160    3.5920   23.5470 C.3       1 <0>         0.0000
     34 C17        15.4580    4.5650   23.5610 C.2       1 <0>         0.0000
     35 H13        16.8860    3.7580   24.6410 H         1 <0>         0.0000
     36 H14        14.3430    3.4670   25.8180 H         1 <0>         0.0000
     37 H15        14.3950    2.9090   22.6950 H         1 <0>         0.0000
     38 H16        13.3540    4.1220   23.6390 H         1 <0>         0.0000
     39 N3         15.9560    4.1560   24.7810 N.am      1 <0>         0.0000
     40 O3         16.1080    4.8940   22.5820 O.2       1 <0>         0.0000
@<TRIPOS>BOND
     1   16   31 1
     2   13   27 1
     3   13   28 1
     4    9   16 1
     5   12   16 am
     6    6   25 1
     7   12   17 2
     8    6    9 ar
     9    7    9 ar
    10    7   13 1
    11   13   26 1
    12    6   15 ar
    13    1    7 ar
    14    5   15 ar
    15   12   14 1
    16   34   40 2
    17    1    5 ar
    18    1   20 1
    19    5   24 1
    20   33   37 1
    21   33   34 1
    22   33   38 1
    23   32   33 1
    24   34   39 am
    25   14   29 1
    26   14   30 1
    27    8   14 1
    28    2   21 1
    29   35   39 1
    30    2    8 ar
    31    2   10 ar
    32    3    8 ar
    33   32   39 1
    34   18   32 1
    35   32   36 1
    36   10   18 1
    37    3   22 1
    38    4   10 ar
    39    3   11 ar
    40    4   11 ar
    41   11   19 1
    42    4   23 1
@<TRIPOS>MOLECULE
*****
   42    44     0     0     0
SMALL
NO_CHARGES

@<TRIPOS>ATOM
      1 C1          5.1040    1.5710   19.3030 C.ar      1 <0>         0.0000
      2 C2         10.8620    1.1260   23.6210 C.ar      1 <0>         0.0000
      3 C3         11.0650   -1.1190   22.8260 C.ar      1 <0>         0.0000
      4 C4         12.9510    0.3910   22.6940 C.ar      1 <0>         0.0000
      5 C5          5.1340    0.4840   18.4610 C.ar      1 <0>         0.0000
      6 C6          6.6710   -0.5290   19.7980 C.ar      1 <0>         0.0000
      7 C7          5.7240    1.5760   20.5300 C.ar      1 <0>         0.0000
      8 C8         10.3080   -0.1500   23.4230 C.ar      1 <0>         0.0000
      9 C9          6.6770    0.5380   20.7530 C.ar      1 <0>         0.0000
     10 C10        12.2430    1.4270   23.3120 C.ar      1 <0>         0.0000
     11 C11        12.3870   -0.8400   22.4290 C.ar      1 <0>         0.0000
     12 C12         7.9440   -0.6090   22.6000 C.2       1 <0>         0.0000
     13 C13         5.5680    2.6700   21.4850 C.3       1 <0>         0.0000
     14 C14         8.8570   -0.4000   23.7600 C.3       1 <0>         0.0000
     15 N1          5.9200   -0.5670   18.7140 N.ar      1 <0>         0.0000
     16 N2          7.5240    0.5270   21.8320 N.am      1 <0>         0.0000
     17 O1          7.7210   -1.7270   22.1450 O.2       1 <0>         0.0000
     18 O2         12.8320    2.6890   23.4260 O.3       1 <0>         0.0000
     19 Cl1        13.2550   -2.0000   21.5770 Cl        1 <0>         0.0000
     20 H1          4.4310    2.3680   19.0060 H         1 <0>         0.0000
     21 H2         10.2570    1.9130   24.0560 H         1 <0>         0.0000
     22 H3         10.5840   -2.0440   22.5370 H         1 <0>         0.0000
     23 H4         13.9940    0.4970   22.4300 H         1 <0>         0.0000
     24 H5          4.5670    0.5200   17.5260 H         1 <0>         0.0000
     25 H6          7.4780   -1.2520   19.9130 H         1 <0>         0.0000
     26 H7          6.5070    3.1450   21.7760 H         1 <0>         0.0000
     27 H8          4.9660    3.4380   20.9970 H         1 <0>         0.0000
     28 H9          5.0030    2.4950   22.4090 H         1 <0>         0.0000
     29 H10         8.8410   -1.3920   24.2260 H         1 <0>         0.0000
     30 H11         8.3620    0.1990   24.5270 H         1 <0>         0.0000
     31 H12         7.5700    1.3730   22.4040 H         1 <0>         0.0000
     32 H13        11.4120    3.6680   24.6660 H         1 <0>         0.0000
     33 H14        10.2950    4.7790   22.9000 H         1 <0>         0.0000
     34 H15        11.5070    4.1700   21.7110 H         1 <0>         0.0000
     35 N3         12.9110    5.0480   23.9460 N.3       1 <0>         0.0000
     36 O3         11.9590    6.9140   23.0950 O.3       1 <0>         0.0000
     37 C15        12.1340    3.7940   23.8510 C.3       1 <0>         0.0000
     38 C16        11.3490    4.5580   22.7150 C.3       1 <0>         0.0000
     39 C17        12.3020    5.7270   23.0160 C.3       1 <0>         0.0000
     40 H16        13.1040    5.6450   24.7470 H         1 <0>         0.0000
     41 H          11.9590    6.9140   23.0950 H         1 <0>         0.0000
     42 H          12.3020    5.7270   23.0160 H         1 <0>         0.0000
@<TRIPOS>BOND
     1    5   24 1
     2    5   15 ar
     3    1    5 ar
     4    6   15 ar
     5    1   20 1
     6    1    7 ar
     7    6   25 1
     8    6    9 ar
     9    7    9 ar
    10    7   13 1
    11    9   16 1
    12   13   27 1
    13   13   26 1
    14   13   28 1
    15   11   19 1
    16   34   38 1
    17   16   31 1
    18   12   16 am
    19   12   17 2
    20    4   11 ar
    21    3   11 ar
    22    4   23 1
    23    3   22 1
    24   12   14 1
    25    4   10 ar
    26   33   38 1
    27   38   39 1
    28   37   38 1
    29    3    8 ar
    30   36   39 1
    31   35   39 1
    32   10   18 1
    33    2   10 ar
    34    2    8 ar
    35    8   14 1
    36   18   37 1
    37    2   21 1
    38   14   29 1
    39   14   30 1
    40   35   37 1
    41   32   37 1
    42   35   40 1
    43   36   41 1
    44   39   42 1
@<TRIPOS>MOLECULE
*****
   40    42     0     0     0
SMALL
NO_CHARGES

@<TRIPOS>ATOM
      1 C1          5.3530    1.5790   19.6960 C.ar      1 <0>         0.0000
      2 C2         12.7330    1.1590   23.5730 C.ar      1 <0>         0.0000
      3 C3         12.5190   -0.7930   22.2040 C.ar      1 <0>         0.0000
      4 C4         14.7250   -0.0680   22.7480 C.ar      1 <0>         0.0000
      5 C5          5.9050    1.4890   18.3870 C.ar      1 <0>         0.0000
      6 C6          7.9080    0.9110   19.2150 C.ar      1 <0>         0.0000
      7 C7          6.1310    1.3070   20.8100 C.ar      1 <0>         0.0000
      8 C8         11.9270    0.2280   22.8920 C.ar      1 <0>         0.0000
      9 C9          7.4750    0.9200   20.5580 C.ar      1 <0>         0.0000
     10 C10        14.1550    0.9650   23.5270 C.ar      1 <0>         0.0000
     11 C11        13.8840   -0.9450   22.0680 C.ar      1 <0>         0.0000
     12 C12         9.6710    0.8010   21.7940 C.2       1 <0>         0.0000
     13 C13         5.5200    1.6610   22.1590 C.3       1 <0>         0.0000
     14 C14        10.4020    0.3200   23.0500 C.3       1 <0>         0.0000
     15 N1          7.1070    1.1860   18.1290 N.ar      1 <0>         0.0000
     16 N2          8.3400    0.6010   21.6710 N.am      1 <0>         0.0000
     17 O1         10.1150    1.6670   21.0440 O.2       1 <0>         0.0000
     18 O2         15.0750    1.7910   24.0870 O.3       1 <0>         0.0000
     19 Cl1        14.5260   -2.2110   21.0810 Cl        1 <0>         0.0000
     20 H1          4.3490    1.9840   19.7170 H         1 <0>         0.0000
     21 H2         12.2780    1.9820   24.1260 H         1 <0>         0.0000
     22 H3         11.9360   -1.6150   21.7980 H         1 <0>         0.0000
     23 H4         15.7920   -0.2680   22.7970 H         1 <0>         0.0000
     24 H5          5.2470    1.7830   17.5810 H         1 <0>         0.0000
     25 H6          8.9250    0.6020   18.9820 H         1 <0>         0.0000
     26 H7          5.9410    2.5580   22.6270 H         1 <0>         0.0000
     27 H8          4.4390    1.8270   22.0230 H         1 <0>         0.0000
     28 H9          5.6960    0.7610   22.7550 H         1 <0>         0.0000
     29 H10         9.9790   -0.6850   23.1290 H         1 <0>         0.0000
     30 H11        10.0400    0.9040   23.9130 H         1 <0>         0.0000
     31 H12         7.8540    0.3360   22.5230 H         1 <0>         0.0000
     32 N3         16.0420    3.9370   23.9660 N.am      1 <0>         0.0000
     33 O3         16.3270    4.8850   21.9100 O.2       1 <0>         0.0000
     34 C15        14.7940    3.1860   24.0460 C.3       1 <0>         0.0000
     35 C16        14.3820    3.7670   22.7400 C.3       1 <0>         0.0000
     36 C17        15.6790    4.5100   22.8440 C.2       1 <0>         0.0000
     37 H13        16.9080    3.4020   24.0550 H         1 <0>         0.0000
     38 H14        14.2150    3.5220   24.9090 H         1 <0>         0.0000
     39 H15        13.4870    4.3890   22.7160 H         1 <0>         0.0000
     40 H16        14.3460    3.1210   21.8540 H         1 <0>         0.0000
@<TRIPOS>BOND
     1    5   24 1
     2    5   15 ar
     3    6   15 ar
     4    1    5 ar
     5    6   25 1
     6    6    9 ar
     7    1   20 1
     8    1    7 ar
     9    7    9 ar
    10    9   16 1
    11    7   13 1
    12   12   17 2
    13   11   19 1
    14   12   16 am
    15   16   31 1
    16   12   14 1
    17    3   22 1
    18   35   40 1
    19   33   36 2
    20   13   27 1
    21    3   11 ar
    22    4   11 ar
    23   13   26 1
    24   13   28 1
    25    3    8 ar
    26   35   39 1
    27   35   36 1
    28   34   35 1
    29    4   23 1
    30    4   10 ar
    31   32   36 am
    32    8   14 1
    33    2    8 ar
    34   14   29 1
    35   14   30 1
    36    2   10 ar
    37   10   18 1
    38    2   21 1
    39   32   34 1
    40   32   37 1
    41   18   34 1
    42   34   38 1
@<TRIPOS>MOLECULE
*****
   40    42     0     0     0
SMALL
NO_CHARGES

@<TRIPOS>ATOM
      1 C1          5.3870    0.8040   19.9410 C.ar      1 <0>         0.0000
      2 C2         12.2720    1.8410   23.8710 C.ar      1 <0>         0.0000
      3 C3         12.6060   -0.5110   23.4430 C.ar      1 <0>         0.0000
      4 C4         14.5260    0.9970   23.6960 C.ar      1 <0>         0.0000
      5 C5          6.0870    0.3840   18.8150 C.ar      1 <0>         0.0000
      6 C6          7.9420   -0.1000   19.9930 C.ar      1 <0>         0.0000
      7 C7          5.9890    0.7280   21.1990 C.ar      1 <0>         0.0000
      8 C8         11.7750    0.5990   23.6880 C.ar      1 <0>         0.0000
      9 C9          7.3580    0.3420   21.2530 C.ar      1 <0>         0.0000
     10 C10        13.6680    2.0890   23.8890 C.ar      1 <0>         0.0000
     11 C11        13.9970   -0.2840   23.4150 C.ar      1 <0>         0.0000
     12 C12         9.4460    0.5940   22.6280 C.2       1 <0>         0.0000
     13 C13         5.2090    1.1570   22.4210 C.3       1 <0>         0.0000
     14 C14        10.2930    0.3380   23.8650 C.3       1 <0>         0.0000
     15 N1          7.3470   -0.0910   18.8530 N.ar      1 <0>         0.0000
     16 N2          8.0830    0.2710   22.4440 N.am      1 <0>         0.0000
     17 O1         10.0140    1.0160   21.6250 O.2       1 <0>         0.0000
     18 O2         14.2810    3.2940   24.1000 O.3       1 <0>         0.0000
     19 Cl1        14.9670   -1.7040   23.2280 Cl        1 <0>         0.0000
     20 H1          4.4040    1.2510   19.8500 H         1 <0>         0.0000
     21 H2         11.5090    2.5890   24.0880 H         1 <0>         0.0000
     22 H3         12.1900   -1.5110   23.3250 H         1 <0>         0.0000
     23 H4         15.5990    1.1150   23.6030 H         1 <0>         0.0000
     24 H5          5.5150    0.2400   17.8970 H         1 <0>         0.0000
     25 H6          8.9350   -0.5030   19.8440 H         1 <0>         0.0000
     26 H7          4.1500    1.1180   22.1680 H         1 <0>         0.0000
     27 H8          5.4120    0.4430   23.2260 H         1 <0>         0.0000
     28 H9          5.5980    2.1360   22.7240 H         1 <0>         0.0000
     29 H10        10.1760   -0.7350   24.0310 H         1 <0>         0.0000
     30 H11         9.9750    0.9550   24.7170 H         1 <0>         0.0000
     31 H12         7.6850   -0.1640   23.2770 H         1 <0>         0.0000
     32 N3         13.7470    5.2330   25.4950 N.am      1 <0>         0.0000
     33 O3         14.1540    7.3660   25.1770 O.2       1 <0>         0.0000
     34 C15        13.5220    4.4740   24.2170 C.3       1 <0>         0.0000
     35 C16        14.2390    5.6680   23.3900 C.3       1 <0>         0.0000
     36 C17        14.2400    6.2290   24.7660 C.2       1 <0>         0.0000
     37 H13        13.0510    5.4590   26.2050 H         1 <0>         0.0000
     38 H14        12.4700    4.4810   23.9430 H         1 <0>         0.0000
     39 H15        15.2300    5.3960   23.0230 H         1 <0>         0.0000
     40 H16        13.6540    6.2150   22.6380 H         1 <0>         0.0000
@<TRIPOS>BOND
     1    5   24 1
     2    5   15 ar
     3    1    5 ar
     4    6   15 ar
     5    6   25 1
     6    1   20 1
     7    1    7 ar
     8    6    9 ar
     9    7    9 ar
    10    7   13 1
    11    9   16 1
    12   12   17 2
    13   13   26 1
    14   13   28 1
    15   13   27 1
    16   12   16 am
    17   16   31 1
    18   12   14 1
    19   35   40 1
    20   35   39 1
    21   11   19 1
    22    3   22 1
    23   34   35 1
    24   35   36 1
    25    3   11 ar
    26    4   11 ar
    27    3    8 ar
    28    4   23 1
    29    8   14 1
    30    2    8 ar
    31    4   10 ar
    32   14   29 1
    33   14   30 1
    34    2   10 ar
    35    2   21 1
    36   10   18 1
    37   34   38 1
    38   18   34 1
    39   32   34 1
    40   33   36 2
    41   32   36 am
    42   32   37 1
@<TRIPOS>MOLECULE
*****
   40    42     0     0     0
SMALL
NO_CHARGES

@<TRIPOS>ATOM
      1 C1          4.4770    1.5480   18.7520 C.ar      1 <0>         0.0000
      2 C2         11.4900    1.8950   22.6160 C.ar      1 <0>         0.0000
      3 C3         11.8210   -0.4160   21.9260 C.ar      1 <0>         0.0000
      4 C4         13.7210    1.0050   22.4900 C.ar      1 <0>         0.0000
      5 C5          5.0990    1.3440   17.5250 C.ar      1 <0>         0.0000
      6 C6          7.1680    1.0780   18.5560 C.ar      1 <0>         0.0000
      7 C7          5.2340    1.3920   19.9630 C.ar      1 <0>         0.0000
      8 C8         10.9630    0.6360   22.2540 C.ar      1 <0>         0.0000
      9 C9          6.6040    1.1550   19.8570 C.ar      1 <0>         0.0000
     10 C10        12.8680    2.0290   22.7880 C.ar      1 <0>         0.0000
     11 C11        13.2350   -0.2270   22.1310 C.ar      1 <0>         0.0000
     12 C12         8.6120    1.1700   21.2420 C.2       1 <0>         0.0000
     13 C13         4.4580    1.6020   21.2700 C.3       1 <0>         0.0000
     14 C14         9.4780    0.3220   22.2310 C.3       1 <0>         0.0000
     15 N1          6.4500    1.1130   17.4230 N.ar      1 <0>         0.0000
     16 N2          7.3190    0.8240   20.9930 N.am      1 <0>         0.0000
     17 O1          9.0470    2.1540   20.6320 O.2       1 <0>         0.0000
     18 O2         13.5140    3.1520   23.1630 O.3       1 <0>         0.0000
     19 Cl1        14.3950   -1.3830   21.6590 Cl        1 <0>         0.0000
     20 H1          3.4330    1.7330   18.9660 H         1 <0>         0.0000
     21 H2         10.7980    2.6950   22.8570 H         1 <0>         0.0000
     22 H3         11.3830   -1.3290   21.5350 H         1 <0>         0.0000
     23 H4         14.7830    1.1670   22.5880 H         1 <0>         0.0000
     24 H5          4.4830    1.4680   16.6450 H         1 <0>         0.0000
     25 H6          8.2160    0.8820   18.3810 H         1 <0>         0.0000
     26 H7          4.0680    2.6200   21.2570 H         1 <0>         0.0000
     27 H8          3.6570    0.8590   21.3080 H         1 <0>         0.0000
     28 H9          5.0840    1.6240   22.1690 H         1 <0>         0.0000
     29 H10         9.4380   -0.7490   22.0050 H         1 <0>         0.0000
     30 H11         9.0630    0.3770   23.2390 H         1 <0>         0.0000
     31 H12         6.8450    0.2040   21.6550 H         1 <0>         0.0000
     32 H13        14.4930    5.3780   23.6170 H         1 <0>         0.0000
     33 H14        12.0220    4.3000   24.3030 H         1 <0>         0.0000
     34 H15        10.9430    5.2070   22.5190 H         1 <0>         0.0000
     35 H16        12.0980    4.4820   21.2910 H         1 <0>         0.0000
     36 N3         13.4850    5.4750   23.6780 N.am      1 <0>         0.0000
     37 O3         13.5900    6.8100   21.7810 O.2       1 <0>         0.0000
     38 C15        12.7100    4.3230   23.4540 C.3       1 <0>         0.0000
     39 C16        11.9780    4.9920   22.2560 C.3       1 <0>         0.0000
     40 C17        12.9920    6.0660   22.5680 C.2       1 <0>         0.0000
@<TRIPOS>BOND
     1    5   24 1
     2    5   15 ar
     3    6   15 ar
     4    1    5 ar
     5    6   25 1
     6    6    9 ar
     7    1   20 1
     8    1    7 ar
     9    7    9 ar
    10    9   16 1
    11    7   13 1
    12   12   17 2
    13   12   16 am
    14   16   31 1
    15   12   14 1
    16   13   26 1
    17   13   27 1
    18   13   28 1
    19   35   39 1
    20    3   22 1
    21   11   19 1
    22   37   40 2
    23    3   11 ar
    24    3    8 ar
    25   14   29 1
    26    4   11 ar
    27    8   14 1
    28   14   30 1
    29    2    8 ar
    30   34   39 1
    31   39   40 1
    32   38   39 1
    33    4   23 1
    34    4   10 ar
    35   36   40 am
    36    2   10 ar
    37    2   21 1
    38   10   18 1
    39   18   38 1
    40   36   38 1
    41   33   38 1
    42   32   36 1
@<TRIPOS>MOLECULE
*****
   40    42     0     0     0
SMALL
NO_CHARGES

@<TRIPOS>ATOM
      1 C1          6.0610    1.7760   19.1120 C.ar      1 <0>         0.0000
      2 C2         11.4360   -1.4130   22.3820 C.ar      1 <0>         0.0000
      3 C3         11.0560   -3.4070   21.0260 C.ar      1 <0>         0.0000
      4 C4         13.2150   -2.3280   20.9770 C.ar      1 <0>         0.0000
      5 C5          6.3740    1.3380   17.8380 C.ar      1 <0>         0.0000
      6 C6          7.4910   -0.5070   18.6990 C.ar      1 <0>         0.0000
      7 C7          6.5760    1.1590   20.2080 C.ar      1 <0>         0.0000
      8 C8         10.5970   -2.4280   21.9600 C.ar      1 <0>         0.0000
      9 C9          7.4320    0.0920   19.9620 C.ar      1 <0>         0.0000
     10 C10        12.7640   -1.3290   21.8890 C.ar      1 <0>         0.0000
     11 C11        12.3690   -3.3860   20.6380 C.ar      1 <0>         0.0000
     12 C12         8.1560   -1.8870   21.2630 C.2       1 <0>         0.0000
     13 C13         6.2630    1.5640   21.5670 C.3       1 <0>         0.0000
     14 C14         9.1360   -2.3310   22.3760 C.3       1 <0>         0.0000
     15 N1          7.0080    0.1920   17.6390 N.ar      1 <0>         0.0000
     16 N2          7.9480   -0.5420   21.1000 N.am      1 <0>         0.0000
     17 O1          7.6310   -2.6930   20.5890 O.2       1 <0>         0.0000
     18 O2         13.7540   -0.4260   22.2340 O.3       1 <0>         0.0000
     19 Cl1        12.8710   -4.7630   19.6410 Cl        1 <0>         0.0000
     20 H1          5.5520    2.7260   19.2580 H         1 <0>         0.0000
     21 H2         11.1500   -0.5750   23.0110 H         1 <0>         0.0000
     22 H3         10.4760   -4.2690   20.7050 H         1 <0>         0.0000
     23 H4         14.2800   -2.3740   20.8040 H         1 <0>         0.0000
     24 H5          6.0400    1.8470   16.9380 H         1 <0>         0.0000
     25 H6          8.0830   -1.3870   18.4830 H         1 <0>         0.0000
     26 H7          6.2550    0.7000   22.2440 H         1 <0>         0.0000
     27 H8          6.8440    2.3860   21.9920 H         1 <0>         0.0000
     28 H9          5.2950    2.0650   21.6890 H         1 <0>         0.0000
     29 H10         8.7570   -3.2220   22.8910 H         1 <0>         0.0000
     30 H11         9.1020   -1.5890   23.1860 H         1 <0>         0.0000
     31 H12         8.3950    0.1030   21.7500 H         1 <0>         0.0000
     32 C15        13.4750    0.4110   23.3370 C.3       1 <0>         0.0000
     33 C16        12.7650    1.7740   22.9970 C.3       1 <0>         0.0000
     34 C17        14.0890    2.2930   23.4640 C.2       1 <0>         0.0000
     35 H13        15.5840    0.9650   23.4580 H         1 <0>         0.0000
     36 H14        12.9200   -0.1520   24.0910 H         1 <0>         0.0000
     37 H15        11.8530    1.9230   23.5880 H         1 <0>         0.0000
     38 H16        12.5590    2.0050   21.9410 H         1 <0>         0.0000
     39 N3         14.6460    1.1190   23.8350 N.am      1 <0>         0.0000
     40 O3         14.6430    3.2910   23.0560 O.2       1 <0>         0.0000
@<TRIPOS>BOND
     1    5   24 1
     2    5   15 ar
     3    6   15 ar
     4    1    5 ar
     5    6   25 1
     6    6    9 ar
     7    1   20 1
     8    1    7 ar
     9   11   19 1
    10    7    9 ar
    11    9   16 1
    12    7   13 1
    13   12   17 2
    14    4   11 ar
    15    3   11 ar
    16    3   22 1
    17    4   23 1
    18    4   10 ar
    19    3    8 ar
    20   12   16 am
    21   16   31 1
    22   12   14 1
    23   13   28 1
    24   13   27 1
    25   13   26 1
    26   10   18 1
    27    2   10 ar
    28   33   38 1
    29    8   14 1
    30    2    8 ar
    31   18   32 1
    32   14   29 1
    33   14   30 1
    34    2   21 1
    35   32   33 1
    36   33   34 1
    37   33   37 1
    38   34   40 2
    39   32   39 1
    40   32   36 1
    41   35   39 1
    42   34   39 am
@<TRIPOS>MOLECULE
*****
   40    42     0     0     0
SMALL
NO_CHARGES

@<TRIPOS>ATOM
      1 C1          4.8690    1.1980   19.2580 C.ar      1 <0>         0.0000
      2 C2         12.2130    1.4560   23.1680 C.ar      1 <0>         0.0000
      3 C3         12.3330   -0.2830   21.4790 C.ar      1 <0>         0.0000
      4 C4         14.2980    0.6970   22.2370 C.ar      1 <0>         0.0000
      5 C5          5.4010    1.0210   17.9660 C.ar      1 <0>         0.0000
      6 C6          7.4070    0.5140   18.9490 C.ar      1 <0>         0.0000
      7 C7          5.6190    1.1710   20.4120 C.ar      1 <0>         0.0000
      8 C8         11.5540    0.4440   22.4260 C.ar      1 <0>         0.0000
      9 C9          6.9290    0.7820   20.2810 C.ar      1 <0>         0.0000
     10 C10        13.5400    1.6610   22.9550 C.ar      1 <0>         0.0000
     11 C11        13.7000   -0.2280   21.3920 C.ar      1 <0>         0.0000
     12 C12         9.2070    0.6970   21.4010 C.2       1 <0>         0.0000
     13 C13         4.9040    1.2510   21.7400 C.3       1 <0>         0.0000
     14 C14        10.0470    0.2740   22.5860 C.3       1 <0>         0.0000
     15 N1          6.7140    0.6240   17.8150 N.ar      1 <0>         0.0000
     16 N2          7.7600    0.6520   21.3800 N.am      1 <0>         0.0000
     17 O1          9.6650    1.2360   20.3670 O.2       1 <0>         0.0000
     18 O2         14.2580    2.7190   23.4160 O.3       1 <0>         0.0000
     19 Cl1        14.6310   -1.4360   20.6250 Cl        1 <0>         0.0000
     20 H1          3.7970    1.3500   19.2200 H         1 <0>         0.0000
     21 H2         11.5720    2.0300   23.8310 H         1 <0>         0.0000
     22 H3         11.7600   -1.0230   20.9440 H         1 <0>         0.0000
     23 H4         15.3760    0.8080   22.3530 H         1 <0>         0.0000
     24 H5          4.7770    1.0650   17.0750 H         1 <0>         0.0000
     25 H6          8.3890    0.0680   18.8900 H         1 <0>         0.0000
     26 H7          5.5820    1.6210   22.5070 H         1 <0>         0.0000
     27 H8          4.0240    1.8600   21.5280 H         1 <0>         0.0000
     28 H9          4.6600    0.2520   22.1080 H         1 <0>         0.0000
     29 H10         9.8520   -0.7640   22.8880 H         1 <0>         0.0000
     30 H11         9.7130    0.6500   23.5580 H         1 <0>         0.0000
     31 H12         7.2900    0.2890   22.2130 H         1 <0>         0.0000
     32 H13        13.0030    4.0030   24.4220 H         1 <0>         0.0000
     33 H14        11.6660    4.6120   22.4160 H         1 <0>         0.0000
     34 H15        12.7970    3.6130   21.3300 H         1 <0>         0.0000
     35 N3         14.2980    5.1420   23.2560 N.am      1 <0>         0.0000
     36 O3         13.3740    6.6290   21.6940 O.2       1 <0>         0.0000
     37 C15        13.5360    3.9390   23.4680 C.3       1 <0>         0.0000
     38 C16        12.6860    4.2840   22.1810 C.3       1 <0>         0.0000
     39 C17        13.6280    5.4790   22.1480 C.2       1 <0>         0.0000
     40 H16        14.4780    5.8620   23.9550 H         1 <0>         0.0000
@<TRIPOS>BOND
     1    5   24 1
     2    5   15 ar
     3    6   15 ar
     4    1    5 ar
     5    6   25 1
     6    6    9 ar
     7    1   20 1
     8    1    7 ar
     9    7    9 ar
    10    9   16 1
    11   12   17 2
    12    7   13 1
    13   11   19 1
    14    3   22 1
    15   34   38 1
    16   12   16 am
    17   16   31 1
    18    3   11 ar
    19    4   11 ar
    20   12   14 1
    21    3    8 ar
    22   13   27 1
    23   36   39 2
    24   13   28 1
    25   13   26 1
    26   38   39 1
    27   35   39 am
    28   33   38 1
    29   37   38 1
    30    4   23 1
    31    4   10 ar
    32    8   14 1
    33    2    8 ar
    34   14   29 1
    35   14   30 1
    36    2   10 ar
    37   10   18 1
    38    2   21 1
    39   35   37 1
    40   35   40 1
    41   18   37 1
    42   32   37 1
@<TRIPOS>MOLECULE
*****
   42    44     0     0     0
SMALL
NO_CHARGES

@<TRIPOS>ATOM
      1 C1          4.7300    1.9810   18.6630 C.ar      1 <0>         0.0000
      2 C2         11.4360    2.2450   22.7910 C.ar      1 <0>         0.0000
      3 C3         11.5400   -0.0880   22.0390 C.ar      1 <0>         0.0000
      4 C4         13.4790    1.1640   22.2040 C.ar      1 <0>         0.0000
      5 C5          5.1810    1.6930   17.4180 C.ar      1 <0>         0.0000
      6 C6          7.1690    0.9390   18.2810 C.ar      1 <0>         0.0000
      7 C7          5.4150    1.6110   19.7990 C.ar      1 <0>         0.0000
      8 C8         10.7720    1.0230   22.5090 C.ar      1 <0>         0.0000
      9 C9          6.7060    1.1080   19.5930 C.ar      1 <0>         0.0000
     10 C10        12.8080    2.3070   22.5380 C.ar      1 <0>         0.0000
     11 C11        12.8790   -0.0190   21.8840 C.ar      1 <0>         0.0000
     12 C12         8.6060    1.4130   21.2470 C.2       1 <0>         0.0000
     13 C13         4.9090    1.9790   21.1990 C.3       1 <0>         0.0000
     14 C14         9.2160    1.0360   22.5860 C.3       1 <0>         0.0000
     15 N1          6.4040    1.2180   17.1770 N.ar      1 <0>         0.0000
     16 N2          7.5080    0.6880   20.7170 N.am      1 <0>         0.0000
     17 O1          8.9520    2.5090   20.7660 O.2       1 <0>         0.0000
     18 O2         13.5970    3.4750   22.6560 O.3       1 <0>         0.0000
     19 Cl1        13.6820   -1.3300   21.2330 Cl        1 <0>         0.0000
     20 H1          3.7270    2.3940   18.7920 H         1 <0>         0.0000
     21 H2         10.8960    3.0880   23.1970 H         1 <0>         0.0000
     22 H3         11.0200   -1.0240   21.8280 H         1 <0>         0.0000
     23 H4         14.5310    1.3320   21.9560 H         1 <0>         0.0000
     24 H5          4.5390    1.9150   16.5640 H         1 <0>         0.0000
     25 H6          8.1540    0.4950   18.1470 H         1 <0>         0.0000
     26 H7          5.2860    2.9880   21.3810 H         1 <0>         0.0000
     27 H8          3.8120    1.9800   21.2490 H         1 <0>         0.0000
     28 H9          5.2550    1.3080   21.9850 H         1 <0>         0.0000
     29 H10         8.8780    0.0880   23.0140 H         1 <0>         0.0000
     30 H11         8.9090    1.7480   23.3600 H         1 <0>         0.0000
     31 H12         7.2180    0.0160   21.4260 H         1 <0>         0.0000
     32 H13        12.6720    4.8340   23.9170 H         1 <0>         0.0000
     33 H14        10.9360    5.2090   22.1480 H         1 <0>         0.0000
     34 H15        12.1120    4.5690   20.8580 H         1 <0>         0.0000
     35 N3         13.7770    5.9070   22.4910 N.3       1 <0>         0.0000
     36 O3         12.4340    7.4900   21.6990 O.3       1 <0>         0.0000
     37 C15        13.0150    4.7180   22.8810 C.3       1 <0>         0.0000
     38 C16        11.9670    5.1250   21.7870 C.3       1 <0>         0.0000
     39 C17        12.8230    6.3320   21.6840 C.3       1 <0>         0.0000
     40 H16        14.1590    6.6510   23.0790 H         1 <0>         0.0000
     41 H          12.4340    7.4900   21.6990 H         1 <0>         0.0000
     42 H          12.8230    6.3320   21.6840 H         1 <0>         0.0000
@<TRIPOS>BOND
     1    5   24 1
     2    5   15 ar
     3    6   15 ar
     4    1    5 ar
     5    6   25 1
     6    6    9 ar
     7    1   20 1
     8    1    7 ar
     9    7    9 ar
    10    9   16 1
    11    7   13 1
    12   12   16 am
    13   16   31 1
    14   12   17 2
    15   34   38 1
    16   13   27 1
    17   13   26 1
    18   13   28 1
    19   11   19 1
    20   12   14 1
    21   36   39 1
    22   38   39 1
    23   35   39 1
    24   33   38 1
    25   37   38 1
    26    3   22 1
    27    3   11 ar
    28    4   11 ar
    29    4   23 1
    30    3    8 ar
    31    4   10 ar
    32   35   37 1
    33   35   40 1
    34    8   14 1
    35    2    8 ar
    36   10   18 1
    37    2   10 ar
    38   14   29 1
    39   14   30 1
    40   18   37 1
    41    2   21 1
    42   32   37 1
    43   36   41 1
    44   39   42 1
@<TRIPOS>MOLECULE
*****
   42    44     0     0     0
SMALL
NO_CHARGES

@<TRIPOS>ATOM
      1 C1          5.2720    0.2230   19.5080 C.ar      1 <0>         0.0000
      2 C2         12.3090    1.2750   23.4440 C.ar      1 <0>         0.0000
      3 C3         12.9250   -0.5830   22.0460 C.ar      1 <0>         0.0000
      4 C4         14.4940    1.1220   22.5030 C.ar      1 <0>         0.0000
      5 C5          5.8470    0.1080   18.2570 C.ar      1 <0>         0.0000
      6 C6          7.9790   -0.1510   19.1190 C.ar      1 <0>         0.0000
      7 C7          6.1160    0.3070   20.6480 C.ar      1 <0>         0.0000
      8 C8         11.9310    0.0930   22.7270 C.ar      1 <0>         0.0000
      9 C9          7.4880    0.1200   20.4410 C.ar      1 <0>         0.0000
     10 C10        13.5730    1.8220   23.2950 C.ar      1 <0>         0.0000
     11 C11        14.1680   -0.1330   21.9690 C.ar      1 <0>         0.0000
     12 C12         9.6900    0.2270   21.6800 C.2       1 <0>         0.0000
     13 C13         5.5240    0.5180   22.0300 C.3       1 <0>         0.0000
     14 C14        10.4580   -0.4310   22.7110 C.3       1 <0>         0.0000
     15 N1          7.1650   -0.0420   18.0660 N.ar      1 <0>         0.0000
     16 N2          8.3400    0.0600   21.5640 N.am      1 <0>         0.0000
     17 O1         10.2780    0.8990   20.7990 O.2       1 <0>         0.0000
     18 O2         13.9770    2.9840   23.8160 O.3       1 <0>         0.0000
     19 Cl1        15.3110   -1.0030   20.9890 Cl        1 <0>         0.0000
     20 H1          4.2010    0.3970   19.5060 H         1 <0>         0.0000
     21 H2         11.5120    1.6340   24.0890 H         1 <0>         0.0000
     22 H3         12.6150   -1.4760   21.5110 H         1 <0>         0.0000
     23 H4         15.4920    1.5060   22.3580 H         1 <0>         0.0000
     24 H5          5.0900    0.0810   17.4740 H         1 <0>         0.0000
     25 H6          9.0250   -0.3850   18.9520 H         1 <0>         0.0000
     26 H7          4.4470    0.6580   21.9580 H         1 <0>         0.0000
     27 H8          5.8210   -0.3610   22.6170 H         1 <0>         0.0000
     28 H9          6.0980    1.3020   22.5240 H         1 <0>         0.0000
     29 H10        10.4310   -1.4970   22.4780 H         1 <0>         0.0000
     30 H11        10.0770   -0.2520   23.7240 H         1 <0>         0.0000
     31 H12         7.8670   -0.1410   22.4480 H         1 <0>         0.0000
     32 C15        12.9810    3.9000   24.1010 C.3       1 <0>         0.0000
     33 C16        12.4660    4.7540   22.9010 C.3       1 <0>         0.0000
     34 C17        13.3790    5.7390   23.4860 C.3       1 <0>         0.0000
     35 H13        13.2890    5.4780   25.4400 H         1 <0>         0.0000
     36 H14        12.2660    3.5380   24.8290 H         1 <0>         0.0000
     37 H15        11.4150    5.0510   22.9810 H         1 <0>         0.0000
     38 H16        12.8140    4.2890   21.9740 H         1 <0>         0.0000
     39 N3         13.7000    5.0500   24.6190 N.3       1 <0>         0.0000
     40 O3         13.0890    6.9470   23.4840 O.3       1 <0>         0.0000
     41 H          13.3790    5.7390   23.4860 H         1 <0>         0.0000
     42 H          13.0890    6.9470   23.4840 H         1 <0>         0.0000
@<TRIPOS>BOND
     1    5   24 1
     2    5   15 ar
     3    6   15 ar
     4    1    5 ar
     5    6   25 1
     6    6    9 ar
     7    1   20 1
     8    1    7 ar
     9    7    9 ar
    10    9   16 1
    11    7   13 1
    12   12   17 2
    13   11   19 1
    14    3   22 1
    15   12   16 am
    16   16   31 1
    17   12   14 1
    18   13   26 1
    19    3   11 ar
    20    4   11 ar
    21   33   38 1
    22   13   28 1
    23   13   27 1
    24    3    8 ar
    25    4   23 1
    26   14   29 1
    27    4   10 ar
    28    8   14 1
    29   14   30 1
    30    2    8 ar
    31   33   37 1
    32   33   34 1
    33   32   33 1
    34    2   10 ar
    35   10   18 1
    36    2   21 1
    37   34   40 1
    38   34   39 1
    39   18   32 1
    40   32   39 1
    41   32   36 1
    42   35   39 1
    43   34   41 1
    44   40   42 1
@<TRIPOS>MOLECULE
*****
   42    44     0     0     0
SMALL
NO_CHARGES

@<TRIPOS>ATOM
      1 C1          4.7270    1.3450   19.6610 C.ar      1 <0>         0.0000
      2 C2         11.9060    1.7710   23.2090 C.ar      1 <0>         0.0000
      3 C3         11.7210   -0.3060   21.9980 C.ar      1 <0>         0.0000
      4 C4         13.8850    0.7240   22.1960 C.ar      1 <0>         0.0000
      5 C5          5.4230    1.0970   18.4960 C.ar      1 <0>         0.0000
      6 C6          7.3300    0.6510   19.6700 C.ar      1 <0>         0.0000
      7 C7          5.3890    1.2730   20.9130 C.ar      1 <0>         0.0000
      8 C8         11.1170    0.6930   22.7740 C.ar      1 <0>         0.0000
      9 C9          6.7250    0.9920   20.8450 C.ar      1 <0>         0.0000
     10 C10        13.3380    1.7720   22.9240 C.ar      1 <0>         0.0000
     11 C11        13.0930   -0.3630   21.7620 C.ar      1 <0>         0.0000
     12 C12         8.6820    1.3000   22.1480 C.2       1 <0>         0.0000
     13 C13         4.6770    1.3790   22.2730 C.3       1 <0>         0.0000
     14 C14         9.5690    0.6300   23.1630 C.3       1 <0>         0.0000
     15 N1          6.7000    0.7480   18.4850 N.ar      1 <0>         0.0000
     16 N2          7.4310    0.8640   22.0500 N.am      1 <0>         0.0000
     17 O1          8.9540    2.2360   21.4880 O.2       1 <0>         0.0000
     18 O2         14.2460    2.7240   23.3960 O.3       1 <0>         0.0000
     19 Cl1        13.7600   -1.7100   20.9450 Cl        1 <0>         0.0000
     20 H1          3.6800    1.6170   19.5470 H         1 <0>         0.0000
     21 H2         11.4410    2.5540   23.8070 H         1 <0>         0.0000
     22 H3         11.1410   -1.1520   21.6470 H         1 <0>         0.0000
     23 H4         14.9660    0.7160   22.0910 H         1 <0>         0.0000
     24 H5          4.9070    1.1390   17.5400 H         1 <0>         0.0000
     25 H6          8.3740    0.3390   19.6730 H         1 <0>         0.0000
     26 H7          4.9790    2.3490   22.6800 H         1 <0>         0.0000
     27 H8          3.6280    1.5750   22.0180 H         1 <0>         0.0000
     28 H9          4.7330    0.5190   22.9420 H         1 <0>         0.0000
     29 H10         9.3970   -0.4490   23.2230 H         1 <0>         0.0000
     30 H11         9.4250    1.1260   24.1200 H         1 <0>         0.0000
     31 H12         7.1340    0.1110   22.6750 H         1 <0>         0.0000
     32 C15        13.7050    3.9010   24.0030 C.3       1 <0>         0.0000
     33 C16        12.6840    4.8180   23.1690 C.3       1 <0>         0.0000
     34 C17        13.8400    5.7510   23.2110 C.3       1 <0>         0.0000
     35 H13        14.9340    5.4760   24.7140 H         1 <0>         0.0000
     36 H14        13.1820    3.6750   24.9350 H         1 <0>         0.0000
     37 H15        12.5180    4.3470   22.1980 H         1 <0>         0.0000
     38 H16        11.7570    5.2210   23.6060 H         1 <0>         0.0000
     39 N3         14.6630    4.9730   23.8810 N.3       1 <0>         0.0000
     40 O3         13.7020    6.9380   23.3860 O.3       1 <0>         0.0000
     41 H          13.8400    5.7510   23.2110 H         1 <0>         0.0000
     42 H          13.7020    6.9380   23.3860 H         1 <0>         0.0000
@<TRIPOS>BOND
     1    5   24 1
     2    5   15 ar
     3    6   15 ar
     4    1    5 ar
     5    1   20 1
     6    1    7 ar
     7    6   25 1
     8    6    9 ar
     9    7    9 ar
    10    9   16 1
    11    7   13 1
    12   11   19 1
    13   12   17 2
    14    3   22 1
    15    3   11 ar
    16    4   11 ar
    17    3    8 ar
    18   13   27 1
    19   12   16 am
    20   16   31 1
    21    4   23 1
    22   12   14 1
    23    4   10 ar
    24   33   37 1
    25   13   26 1
    26   13   28 1
    27    8   14 1
    28    2    8 ar
    29    2   10 ar
    30   10   18 1
    31   14   29 1
    32   14   30 1
    33   33   34 1
    34   33   38 1
    35   32   33 1
    36    2   21 1
    37   34   40 1
    38   34   39 1
    39   18   32 1
    40   32   39 1
    41   35   39 1
    42   32   36 1
    43   34   41 1
    44   40   42 1
@<TRIPOS>MOLECULE
*****
   40    42     0     0     0
SMALL
NO_CHARGES

@<TRIPOS>ATOM
      1 C1          4.8840    1.2660   19.0690 C.ar      1 <0>         0.0000
      2 C2         11.7600    0.7140   22.6160 C.ar      1 <0>         0.0000
      3 C3         12.0750   -1.4730   21.7420 C.ar      1 <0>         0.0000
      4 C4         13.9350    0.0360   21.9540 C.ar      1 <0>         0.0000
      5 C5          5.3610    1.1060   17.7820 C.ar      1 <0>         0.0000
      6 C6          7.1480   -0.1180   18.4710 C.ar      1 <0>         0.0000
      7 C7          5.6070    0.6510   20.1340 C.ar      1 <0>         0.0000
      8 C8         11.1990   -0.5030   22.1620 C.ar      1 <0>         0.0000
      9 C9          6.7570   -0.0280   19.8280 C.ar      1 <0>         0.0000
     10 C10        13.1450    1.0060   22.5840 C.ar      1 <0>         0.0000
     11 C11        13.4350   -1.1950   21.6520 C.ar      1 <0>         0.0000
     12 C12         8.7960   -0.0220   21.2220 C.2       1 <0>         0.0000
     13 C13         4.9570    0.6530   21.4910 C.3       1 <0>         0.0000
     14 C14         9.6390   -0.7200   22.2500 C.3       1 <0>         0.0000
     15 N1          6.4870    0.4740   17.4680 N.ar      1 <0>         0.0000
     16 N2          7.5540   -0.5610   20.8350 N.am      1 <0>         0.0000
     17 O1          9.1700    1.0780   20.8030 O.2       1 <0>         0.0000
     18 O2         13.7960    2.1980   22.8900 O.3       1 <0>         0.0000
     19 Cl1        14.4090   -2.4700   20.8530 Cl        1 <0>         0.0000
     20 H1          3.9800    1.8300   19.2750 H         1 <0>         0.0000
     21 H2         11.0610    1.4890   22.8950 H         1 <0>         0.0000
     22 H3         11.7390   -2.4690   21.4960 H         1 <0>         0.0000
     23 H4         14.9650    0.2290   21.6490 H         1 <0>         0.0000
     24 H5          4.7840    1.5570   16.9880 H         1 <0>         0.0000
     25 H6          7.9830   -0.7730   18.2470 H         1 <0>         0.0000
     26 H7          5.4120   -0.1070   22.1210 H         1 <0>         0.0000
     27 H8          5.0880    1.6270   21.9710 H         1 <0>         0.0000
     28 H9          3.8810    0.4990   21.3630 H         1 <0>         0.0000
     29 H10         9.5210   -1.8070   22.1350 H         1 <0>         0.0000
     30 H11         9.2820   -0.5200   23.2640 H         1 <0>         0.0000
     31 H12         7.2540   -1.4180   21.3100 H         1 <0>         0.0000
     32 H13        13.1830    4.3680   25.1250 H         1 <0>         0.0000
     33 H14        11.9110    3.2050   23.2640 H         1 <0>         0.0000
     34 H15        13.8880    4.6120   21.4130 H         1 <0>         0.0000
     35 H16        12.2580    5.1380   21.9960 H         1 <0>         0.0000
     36 N3         13.6630    4.1340   24.2570 N.am      1 <0>         0.0000
     37 O3         13.9630    6.3030   23.9130 O.2       1 <0>         0.0000
     38 C15        12.9870    3.3910   23.1830 C.3       1 <0>         0.0000
     39 C16        13.2180    4.6880   22.2750 C.3       1 <0>         0.0000
     40 C17        13.9080    5.1780   23.4810 C.2       1 <0>         0.0000
@<TRIPOS>BOND
     1    5   24 1
     2    5   15 ar
     3    6   15 ar
     4    1    5 ar
     5    6   25 1
     6    6    9 ar
     7    1   20 1
     8    1    7 ar
     9    7    9 ar
    10    9   16 1
    11    7   13 1
    12   12   17 2
    13   12   16 am
    14   16   31 1
    15   11   19 1
    16   12   14 1
    17   13   28 1
    18   34   39 1
    19   13   27 1
    20   13   26 1
    21    3   22 1
    22    4   23 1
    23    3   11 ar
    24    4   11 ar
    25    3    8 ar
    26    4   10 ar
    27   35   39 1
    28   14   29 1
    29    8   14 1
    30    2    8 ar
    31   14   30 1
    32   38   39 1
    33   39   40 1
    34    2   10 ar
    35   10   18 1
    36    2   21 1
    37   18   38 1
    38   33   38 1
    39   36   38 1
    40   37   40 2
    41   36   40 am
    42   32   36 1
@<TRIPOS>MOLECULE
*****
   40    42     0     0     0
SMALL
NO_CHARGES

@<TRIPOS>ATOM
      1 C1          4.8610    1.8660   19.1670 C.ar      1 <0>         0.0000
      2 C2         11.9570    1.3160   22.7820 C.ar      1 <0>         0.0000
      3 C3         12.1220   -0.8710   21.7730 C.ar      1 <0>         0.0000
      4 C4         14.1410    0.3960   22.2280 C.ar      1 <0>         0.0000
      5 C5          5.4190    1.6710   17.9300 C.ar      1 <0>         0.0000
      6 C6          7.3120    0.7550   18.7400 C.ar      1 <0>         0.0000
      7 C7          5.6570    1.4680   20.2990 C.ar      1 <0>         0.0000
      8 C8         11.3540    0.1920   22.3190 C.ar      1 <0>         0.0000
      9 C9          6.9080    0.8890   20.1170 C.ar      1 <0>         0.0000
     10 C10        13.3710    1.5000   22.7250 C.ar      1 <0>         0.0000
     11 C11        13.5120   -0.7470   21.6380 C.ar      1 <0>         0.0000
     12 C12         9.0080    0.5850   21.2840 C.2       1 <0>         0.0000
     13 C13         4.9640    1.5680   21.6960 C.3       1 <0>         0.0000
     14 C14         9.9180   -0.0250   22.3930 C.3       1 <0>         0.0000
     15 N1          6.6030    1.1990   17.6680 N.ar      1 <0>         0.0000
     16 N2          7.6500    0.5670   21.2340 N.am      1 <0>         0.0000
     17 O1          9.5720    1.3850   20.5530 O.2       1 <0>         0.0000
     18 O2         14.0570    2.5580   23.3160 O.3       1 <0>         0.0000
     19 Cl1        14.5010   -1.8130   20.5340 Cl        1 <0>         0.0000
     20 H1          3.8560    2.2750   19.2570 H         1 <0>         0.0000
     21 H2         11.3060    2.0170   23.3090 H         1 <0>         0.0000
     22 H3         11.6770   -1.7830   21.3870 H         1 <0>         0.0000
     23 H4         15.2170    0.5520   22.2260 H         1 <0>         0.0000
     24 H5          4.9060    1.9270   17.0090 H         1 <0>         0.0000
     25 H6          8.2690    0.3250   18.4400 H         1 <0>         0.0000
     26 H7          4.8860    0.6000   22.1910 H         1 <0>         0.0000
     27 H8          5.4700    2.2900   22.3530 H         1 <0>         0.0000
     28 H9          3.9080    1.8270   21.5710 H         1 <0>         0.0000
     29 H10         9.7010   -1.0960   22.4140 H         1 <0>         0.0000
     30 H11         9.5320    0.3690   23.3430 H         1 <0>         0.0000
     31 H12         7.1110    0.0600   21.9360 H         1 <0>         0.0000
     32 C15        13.4460    3.8320   23.3650 C.3       1 <0>         0.0000
     33 C16        12.8010    4.4260   22.0720 C.3       1 <0>         0.0000
     34 C17        13.8190    5.4360   22.3100 C.2       1 <0>         0.0000
     35 H13        15.0390    5.2210   24.1020 H         1 <0>         0.0000
     36 H14        12.8290    4.0480   24.2410 H         1 <0>         0.0000
     37 H15        12.9130    3.8290   21.1610 H         1 <0>         0.0000
     38 H16        11.7640    4.7730   22.1610 H         1 <0>         0.0000
     39 N3         14.4810    4.8380   23.3470 N.am      1 <0>         0.0000
     40 O3         13.7860    6.5920   22.0320 O.2       1 <0>         0.0000
@<TRIPOS>BOND
     1    5   24 1
     2    5   15 ar
     3    6   15 ar
     4    1    5 ar
     5    6   25 1
     6    6    9 ar
     7    1   20 1
     8    1    7 ar
     9    7    9 ar
    10    9   16 1
    11    7   13 1
    12   11   19 1
    13   12   17 2
    14   33   37 1
    15   12   16 am
    16   16   31 1
    17   12   14 1
    18    3   22 1
    19   13   28 1
    20    3   11 ar
    21    4   11 ar
    22   13   26 1
    23   13   27 1
    24    3    8 ar
    25   34   40 2
    26   33   38 1
    27   33   34 1
    28   32   33 1
    29    4   23 1
    30    4   10 ar
    31   34   39 am
    32    8   14 1
    33    2    8 ar
    34   14   29 1
    35   14   30 1
    36    2   10 ar
    37   10   18 1
    38    2   21 1
    39   18   32 1
    40   32   39 1
    41   35   39 1
    42   32   36 1
@<TRIPOS>MOLECULE
*****
   40    42     0     0     0
SMALL
NO_CHARGES

@<TRIPOS>ATOM
      1 C1          5.0510    2.1930   18.9070 C.ar      1 <0>         0.0000
      2 C2         12.0120    2.0890   22.8230 C.ar      1 <0>         0.0000
      3 C3         12.2040    0.1120   21.5760 C.ar      1 <0>         0.0000
      4 C4         14.1850    1.4890   22.0050 C.ar      1 <0>         0.0000
      5 C5          5.6570    1.7860   17.6460 C.ar      1 <0>         0.0000
      6 C6          7.5230    1.0320   18.8100 C.ar      1 <0>         0.0000
      7 C7          5.6540    1.8520   20.1000 C.ar      1 <0>         0.0000
      8 C8         11.4160    0.9830   22.2630 C.ar      1 <0>         0.0000
      9 C9          6.9650    1.3290   20.0390 C.ar      1 <0>         0.0000
     10 C10        13.4230    2.4170   22.6530 C.ar      1 <0>         0.0000
     11 C11        13.6100    0.4090   21.3230 C.ar      1 <0>         0.0000
     12 C12         9.1200    1.4330   21.2340 C.2       1 <0>         0.0000
     13 C13         4.8280    2.0810   21.3660 C.3       1 <0>         0.0000
     14 C14         9.9120    0.8180   22.3320 C.3       1 <0>         0.0000
     15 N1          6.8500    1.2270   17.6390 N.ar      1 <0>         0.0000
     16 N2          7.7270    1.2400   21.1650 N.am      1 <0>         0.0000
     17 O1          9.6490    2.1560   20.4870 O.2       1 <0>         0.0000
     18 O2         14.0610    3.4170   23.3340 O.3       1 <0>         0.0000
     19 Cl1        14.5350   -0.6840   20.4660 Cl        1 <0>         0.0000
     20 H1          4.1440    2.7750   18.7590 H         1 <0>         0.0000
     21 H2         11.3060    2.7130   23.3680 H         1 <0>         0.0000
     22 H3         11.7470   -0.7700   21.1480 H         1 <0>         0.0000
     23 H4         15.2370    1.7620   21.9170 H         1 <0>         0.0000
     24 H5          5.2200    2.0680   16.6970 H         1 <0>         0.0000
     25 H6          8.5500    0.6790   18.7320 H         1 <0>         0.0000
     26 H7          5.2720    2.9420   21.8800 H         1 <0>         0.0000
     27 H8          3.8050    2.2170   20.9960 H         1 <0>         0.0000
     28 H9          4.9780    1.2820   22.0900 H         1 <0>         0.0000
     29 H10         9.5400   -0.1920   22.5170 H         1 <0>         0.0000
     30 H11         9.6240    1.3800   23.2250 H         1 <0>         0.0000
     31 H12         7.3360    0.7430   21.9660 H         1 <0>         0.0000
     32 H13        12.1980    4.3150   23.7530 H         1 <0>         0.0000
     33 H14        12.4050    6.0620   22.2800 H         1 <0>         0.0000
     34 H15        14.2230    5.7080   21.8920 H         1 <0>         0.0000
     35 N3         13.6800    5.3880   24.7060 N.am      1 <0>         0.0000
     36 O3         13.7570    7.6820   24.1970 O.2       1 <0>         0.0000
     37 C15        13.2400    4.5930   23.5900 C.3       1 <0>         0.0000
     38 C16        13.4080    5.7930   22.6170 C.3       1 <0>         0.0000
     39 C17        13.7860    6.4640   23.8980 C.2       1 <0>         0.0000
     40 H16        13.0940    5.5420   25.5310 H         1 <0>         0.0000
@<TRIPOS>BOND
     1    5   24 1
     2    5   15 ar
     3    6   15 ar
     4    1    5 ar
     5    6   25 1
     6    1   20 1
     7    6    9 ar
     8    1    7 ar
     9    7    9 ar
    10    9   16 1
    11    7   13 1
    12   11   19 1
    13   12   17 2
    14   13   27 1
    15    3   22 1
    16   12   16 am
    17   16   31 1
    18   12   14 1
    19    3   11 ar
    20    4   11 ar
    21   13   26 1
    22   13   28 1
    23    3    8 ar
    24   34   38 1
    25    4   23 1
    26    4   10 ar
    27    8   14 1
    28    2    8 ar
    29   33   38 1
    30   14   29 1
    31   14   30 1
    32   37   38 1
    33   38   39 1
    34    2   10 ar
    35   10   18 1
    36    2   21 1
    37   18   37 1
    38   32   37 1
    39   35   37 1
    40   36   39 2
    41   35   39 am
    42   35   40 1
@<TRIPOS>MOLECULE
*****
   40    42     0     0     0
SMALL
NO_CHARGES

@<TRIPOS>ATOM
      1 C1          5.0730    0.6170   20.7020 C.ar      1 <0>         0.0000
      2 C2         12.6790    2.0310   22.4490 C.ar      1 <0>         0.0000
      3 C3         12.8560   -0.4490   22.5390 C.ar      1 <0>         0.0000
      4 C4         14.6630    0.8950   21.7890 C.ar      1 <0>         0.0000
      5 C5          5.5830    0.5190   19.3670 C.ar      1 <0>         0.0000
      6 C6          7.8110    0.4900   20.0520 C.ar      1 <0>         0.0000
      7 C7          6.0310    0.6580   21.7480 C.ar      1 <0>         0.0000
      8 C8         12.1400    0.7270   22.7800 C.ar      1 <0>         0.0000
      9 C9          7.3970    0.6680   21.4520 C.ar      1 <0>         0.0000
     10 C10        13.9920    2.1140   22.0180 C.ar      1 <0>         0.0000
     11 C11        14.1240   -0.4300   21.9460 C.ar      1 <0>         0.0000
     12 C12         9.5860    1.0210   22.4010 C.2       1 <0>         0.0000
     13 C13         5.4240    0.8110   23.1040 C.3       1 <0>         0.0000
     14 C14        10.7580    0.6300   23.4380 C.3       1 <0>         0.0000
     15 N1          6.9110    0.3870   19.0520 N.ar      1 <0>         0.0000
     16 N2          8.3080    0.6600   22.4490 N.am      1 <0>         0.0000
     17 O1          9.8380    1.7740   21.4650 O.2       1 <0>         0.0000
     18 O2         14.6410    3.3390   21.7750 O.3       1 <0>         0.0000
     19 Cl1        14.9330   -1.8990   21.5040 Cl        1 <0>         0.0000
     20 H1          4.0320    0.8490   20.8940 H         1 <0>         0.0000
     21 H2         12.0010    2.8750   22.5420 H         1 <0>         0.0000
     22 H3         12.4570   -1.4360   22.7230 H         1 <0>         0.0000
     23 H4         15.6470    0.9940   21.3410 H         1 <0>         0.0000
     24 H5          4.8900    0.5830   18.5300 H         1 <0>         0.0000
     25 H6          8.8460    0.2310   19.8560 H         1 <0>         0.0000
     26 H7          4.4010    1.1920   23.0720 H         1 <0>         0.0000
     27 H8          5.3220   -0.1240   23.6740 H         1 <0>         0.0000
     28 H9          6.0940    1.4840   23.6440 H         1 <0>         0.0000
     29 H10        10.5140   -0.3980   23.7270 H         1 <0>         0.0000
     30 H11        10.8200    1.3410   24.2620 H         1 <0>         0.0000
     31 H12         7.9550    0.5320   23.4030 H         1 <0>         0.0000
     32 H13        13.6630    4.3220   23.3190 H         1 <0>         0.0000
     33 H14        13.3810    4.8150   20.3470 H         1 <0>         0.0000
     34 H15        12.2370    5.5710   21.6130 H         1 <0>         0.0000
     35 N3         15.1070    5.6380   22.3850 N.am      1 <0>         0.0000
     36 O3         14.1180    7.5720   21.5810 O.2       1 <0>         0.0000
     37 C15        14.1220    4.4960   22.3370 C.3       1 <0>         0.0000
     38 C16        13.2490    5.2930   21.3240 C.3       1 <0>         0.0000
     39 C17        14.2800    6.3770   21.5790 C.2       1 <0>         0.0000
     40 H16        15.4410    6.0810   23.2420 H         1 <0>         0.0000
@<TRIPOS>BOND
     1    5   24 1
     2    5   15 ar
     3    6   15 ar
     4    1    5 ar
     5    6   25 1
     6    6    9 ar
     7   33   38 1
     8    1   20 1
     9    1    7 ar
    10   38   39 1
    11   34   38 1
    12   37   38 1
    13    4   23 1
    14    7    9 ar
    15    9   16 1
    16   12   17 2
    17   11   19 1
    18   36   39 2
    19   35   39 am
    20    7   13 1
    21   10   18 1
    22   18   37 1
    23    4   11 ar
    24    4   10 ar
    25    3   11 ar
    26    2   10 ar
    27   35   37 1
    28   32   37 1
    29   35   40 1
    30   12   16 am
    31   12   14 1
    32    2   21 1
    33    2    8 ar
    34   16   31 1
    35    3   22 1
    36    3    8 ar
    37    8   14 1
    38   13   26 1
    39   13   28 1
    40   13   27 1
    41   14   29 1
    42   14   30 1
@<TRIPOS>MOLECULE
*****
   40    42     0     0     0
SMALL
NO_CHARGES

@<TRIPOS>ATOM
      1 C1          5.5090    2.2350   19.5930 C.ar      1 <0>         0.0000
      2 C2          9.4290   -1.2270   23.4790 C.ar      1 <0>         0.0000
      3 C3         10.7770   -2.3110   21.8570 C.ar      1 <0>         0.0000
      4 C4         11.8070   -0.8240   23.5080 C.ar      1 <0>         0.0000
      5 C5          5.4260    1.8100   18.2730 C.ar      1 <0>         0.0000
      6 C6          6.5980   -0.0970   18.7330 C.ar      1 <0>         0.0000
      7 C7          6.2780    1.5230   20.4870 C.ar      1 <0>         0.0000
      8 C8          9.5130   -2.0970   22.4070 C.ar      1 <0>         0.0000
      9 C9          6.7720    0.2400   20.0710 C.ar      1 <0>         0.0000
     10 C10        10.5350   -0.5560   24.0780 C.ar      1 <0>         0.0000
     11 C11        11.8440   -1.6420   22.3640 C.ar      1 <0>         0.0000
     12 C12         7.4210   -2.0290   20.9930 C.2       1 <0>         0.0000
     13 C13         6.5400    2.1110   21.8440 C.3       1 <0>         0.0000
     14 C14         8.2820   -2.8350   21.9780 C.3       1 <0>         0.0000
     15 N1          5.9620    0.6800   17.8210 N.ar      1 <0>         0.0000
     16 N2          7.3500   -0.6340   20.9970 N.am      1 <0>         0.0000
     17 O1          6.8530   -2.6320   20.1060 O.2       1 <0>         0.0000
     18 O2         10.3630    0.3690   25.1680 O.3       1 <0>         0.0000
     19 Cl1        13.4140   -1.7800   21.5670 Cl        1 <0>         0.0000
     20 H1          5.0120    3.1560   19.8800 H         1 <0>         0.0000
     21 H2          8.4400   -1.0230   23.8870 H         1 <0>         0.0000
     22 H3         10.8430   -2.8990   20.9480 H         1 <0>         0.0000
     23 H4         12.7080   -0.3370   23.8580 H         1 <0>         0.0000
     24 H5          4.7880    2.4270   17.6650 H         1 <0>         0.0000
     25 H6          7.0360   -1.0340   18.3950 H         1 <0>         0.0000
     26 H7          6.8150    1.3360   22.5700 H         1 <0>         0.0000
     27 H8          7.3400    2.8600   21.8500 H         1 <0>         0.0000
     28 H9          5.6320    2.5440   22.2760 H         1 <0>         0.0000
     29 H10         8.7190   -3.7580   21.6080 H         1 <0>         0.0000
     30 H11         7.6520   -3.1000   22.8270 H         1 <0>         0.0000
     31 H12         7.7820   -0.2230   21.8230 H         1 <0>         0.0000
     32 C15         9.1640    0.2180   25.9780 C.3       1 <0>         0.0000
     33 C16         7.9150    1.1000   25.4540 C.3       1 <0>         0.0000
     34 C17         8.2650    1.9650   26.5820 C.2       1 <0>         0.0000
     35 H13         9.9940    1.6360   27.3290 H         1 <0>         0.0000
     36 H14         8.9160   -0.8340   26.1660 H         1 <0>         0.0000
     37 H15         8.0270    1.5590   24.4620 H         1 <0>         0.0000
     38 H16         6.9800    0.5360   25.4920 H         1 <0>         0.0000
     39 N3          9.1590    1.0980   27.1020 N.am      1 <0>         0.0000
     40 O3          8.3570    3.1940   26.5700 O.2       1 <0>         0.0000
@<TRIPOS>BOND
     1    5   24 1
     2    5   15 ar
     3    6   15 ar
     4    1    5 ar
     5    6   25 1
     6    6    9 ar
     7    1   20 1
     8    1    7 ar
     9    7    9 ar
    10    9   16 1
    11   12   17 2
    12    7   13 1
    13    3   22 1
    14   12   16 am
    15   12   14 1
    16   16   31 1
    17   11   19 1
    18   14   29 1
    19   13   27 1
    20   13   28 1
    21   13   26 1
    22    3   11 ar
    23    3    8 ar
    24    8   14 1
    25   14   30 1
    26    4   11 ar
    27    2    8 ar
    28    2   21 1
    29    2   10 ar
    30    4   23 1
    31    4   10 ar
    32   10   18 1
    33   33   37 1
    34   18   32 1
    35   33   38 1
    36   32   33 1
    37   33   34 1
    38   32   36 1
    39   32   39 1
    40   34   40 2
    41   34   39 am
    42   35   39 1
@<TRIPOS>MOLECULE
*****
   40    42     0     0     0
SMALL
NO_CHARGES

@<TRIPOS>ATOM
      1 C1          6.0370    0.8810   19.7910 C.ar      1 <0>         0.0000
      2 C2         13.3030    1.6860   23.0100 C.ar      1 <0>         0.0000
      3 C3         13.1550   -0.4460   21.9100 C.ar      1 <0>         0.0000
      4 C4         15.2250    0.7010   22.0410 C.ar      1 <0>         0.0000
      5 C5          6.5020    1.0750   18.5000 C.ar      1 <0>         0.0000
      6 C6          8.6370    0.5710   19.2390 C.ar      1 <0>         0.0000
      7 C7          6.8560    0.5750   20.8570 C.ar      1 <0>         0.0000
      8 C8         12.5200    0.6070   22.6720 C.ar      1 <0>         0.0000
      9 C9          8.1790    0.4750   20.5510 C.ar      1 <0>         0.0000
     10 C10        14.5980    1.7990   22.6670 C.ar      1 <0>         0.0000
     11 C11        14.5350   -0.4700   21.6520 C.ar      1 <0>         0.0000
     12 C12        10.2960    0.7770   21.7380 C.2       1 <0>         0.0000
     13 C13         6.2640    0.3150   22.2430 C.3       1 <0>         0.0000
     14 C14        11.1030    0.5590   23.0140 C.3       1 <0>         0.0000
     15 N1          7.7900    0.8310   18.2090 N.ar      1 <0>         0.0000
     16 N2          9.0770    0.1640   21.5040 N.am      1 <0>         0.0000
     17 O1         10.5380    1.6760   20.9360 O.2       1 <0>         0.0000
     18 O2         15.3140    3.0160   22.8290 O.3       1 <0>         0.0000
     19 Cl1        15.3760   -1.7280   20.7160 Cl        1 <0>         0.0000
     20 H1          4.9640    0.9680   19.9320 H         1 <0>         0.0000
     21 H2         12.7760    2.4900   23.5030 H         1 <0>         0.0000
     22 H3         12.5720   -1.2720   21.5270 H         1 <0>         0.0000
     23 H4         16.2810    0.7710   21.8370 H         1 <0>         0.0000
     24 H5          5.8540    1.4190   17.6980 H         1 <0>         0.0000
     25 H6          9.6550    0.3180   18.9300 H         1 <0>         0.0000
     26 H7          6.0440   -0.7500   22.3430 H         1 <0>         0.0000
     27 H8          6.9900    0.5710   23.0170 H         1 <0>         0.0000
     28 H9          5.4490    1.0200   22.4370 H         1 <0>         0.0000
     29 H10        10.8210   -0.4200   23.4150 H         1 <0>         0.0000
     30 H11        10.8420    1.2690   23.8160 H         1 <0>         0.0000
     31 H12         8.7890   -0.6130   22.0880 H         1 <0>         0.0000
     32 N3         15.6180    5.4400   23.2250 N.am      1 <0>         0.0000
     33 O3         15.1830    7.2250   21.8100 O.2       1 <0>         0.0000
     34 C15        14.7090    4.2930   23.1020 C.3       1 <0>         0.0000
     35 C16        14.2270    4.9260   21.8170 C.3       1 <0>         0.0000
     36 C17        15.1890    6.0250   22.1250 C.2       1 <0>         0.0000
     37 H13        15.8910    5.7850   24.1440 H         1 <0>         0.0000
     38 H14        14.0140    4.2880   23.9530 H         1 <0>         0.0000
     39 H15        13.2110    5.3380   21.7600 H         1 <0>         0.0000
     40 H16        14.5120    4.3670   20.9300 H         1 <0>         0.0000
@<TRIPOS>BOND
     1    5   24 1
     2    5   15 ar
     3    6   15 ar
     4    1    5 ar
     5    6   25 1
     6    6    9 ar
     7    1   20 1
     8    1    7 ar
     9    7    9 ar
    10    9   16 1
    11   11   19 1
    12    7   13 1
    13   35   40 1
    14   12   17 2
    15   12   16 am
    16   16   31 1
    17    3   22 1
    18    3   11 ar
    19    4   11 ar
    20   12   14 1
    21   35   39 1
    22   33   36 2
    23   35   36 1
    24   34   35 1
    25    4   23 1
    26    3    8 ar
    27    4   10 ar
    28   32   36 am
    29   13   26 1
    30   13   28 1
    31   13   27 1
    32   10   18 1
    33    2   10 ar
    34    2    8 ar
    35    8   14 1
    36   18   34 1
    37    2   21 1
    38   14   29 1
    39   14   30 1
    40   32   34 1
    41   34   38 1
    42   32   37 1
@<TRIPOS>MOLECULE
*****
   40    42     0     0     0
SMALL
NO_CHARGES

@<TRIPOS>ATOM
      1 C1          5.3820    1.2430   19.5350 C.ar      1 <0>         0.0000
      2 C2         12.4910    1.4050   22.9950 C.ar      1 <0>         0.0000
      3 C3         12.6300   -0.8480   22.1570 C.ar      1 <0>         0.0000
      4 C4         14.5790    0.5220   22.2380 C.ar      1 <0>         0.0000
      5 C5          5.9590    1.0540   18.2520 C.ar      1 <0>         0.0000
      6 C6          7.9020    0.0450   19.1500 C.ar      1 <0>         0.0000
      7 C7          6.1070    0.8120   20.6710 C.ar      1 <0>         0.0000
      8 C8         11.8300    0.2240   22.6860 C.ar      1 <0>         0.0000
      9 C9          7.4040    0.3380   20.4690 C.ar      1 <0>         0.0000
     10 C10        13.8450    1.6060   22.6930 C.ar      1 <0>         0.0000
     11 C11        13.9780   -0.7010   21.9530 C.ar      1 <0>         0.0000
     12 C12         9.5260    0.4930   21.7670 C.2       1 <0>         0.0000
     13 C13         5.3910    0.9430   22.0480 C.3       1 <0>         0.0000
     14 C14        10.3070   -0.0190   22.9420 C.3       1 <0>         0.0000
     15 N1          7.1340    0.3430   18.0450 N.ar      1 <0>         0.0000
     16 N2          8.2370    0.0350   21.5420 N.am      1 <0>         0.0000
     17 O1         10.0040    1.2940   21.0040 O.2       1 <0>         0.0000
     18 O2         14.5680    2.7140   23.0180 O.3       1 <0>         0.0000
     19 Cl1        14.7780   -1.9510   21.2280 Cl        1 <0>         0.0000
     20 H1          4.4090    1.7250   19.6150 H         1 <0>         0.0000
     21 H2         11.9710    2.1790   23.5540 H         1 <0>         0.0000
     22 H3         12.1230   -1.7890   21.9690 H         1 <0>         0.0000
     23 H4         15.6520    0.6090   22.0610 H         1 <0>         0.0000
     24 H5          5.2650    1.3550   17.4710 H         1 <0>         0.0000
     25 H6          8.7910   -0.5630   18.9960 H         1 <0>         0.0000
     26 H7          5.2510   -0.0340   22.5210 H         1 <0>         0.0000
     27 H8          6.0480    1.6460   22.5700 H         1 <0>         0.0000
     28 H9          4.3420    1.2300   21.9580 H         1 <0>         0.0000
     29 H10        10.1570   -1.1070   22.9380 H         1 <0>         0.0000
     30 H11         9.9260    0.4450   23.8450 H         1 <0>         0.0000
     31 H12         7.8520   -0.3940   22.3930 H         1 <0>         0.0000
     32 H13        14.8280    5.7900   23.8510 H         1 <0>         0.0000
     33 H14        13.4180    3.9830   24.2150 H         1 <0>         0.0000
     34 H15        13.2160    3.7560   21.0770 H         1 <0>         0.0000
     35 H16        11.9020    4.2640   22.0960 H         1 <0>         0.0000
     36 N3         14.6620    5.1710   23.0560 N.am      1 <0>         0.0000
     37 O3         13.1250    6.6600   22.2790 O.2       1 <0>         0.0000
     38 C15        13.8940    3.9570   23.2300 C.3       1 <0>         0.0000
     39 C16        12.9860    4.2990   22.0040 C.3       1 <0>         0.0000
     40 C17        13.7080    5.5690   22.2010 C.2       1 <0>         0.0000
@<TRIPOS>BOND
     1    5   24 1
     2    5   15 ar
     3    6   15 ar
     4    1    5 ar
     5    6   25 1
     6    6    9 ar
     7    1   20 1
     8    1    7 ar
     9    7    9 ar
    10    9   16 1
    11    7   13 1
    12   12   17 2
    13   34   39 1
    14   11   19 1
    15   12   16 am
    16   16   31 1
    17   12   14 1
    18    3   11 ar
    19    4   11 ar
    20   13   28 1
    21    3   22 1
    22   35   39 1
    23   39   40 1
    24   38   39 1
    25   13   26 1
    26   13   27 1
    27    4   23 1
    28    3    8 ar
    29   37   40 2
    30   36   40 am
    31    4   10 ar
    32    8   14 1
    33    2    8 ar
    34    2   10 ar
    35   10   18 1
    36   14   29 1
    37   14   30 1
    38    2   21 1
    39   18   38 1
    40   36   38 1
    41   32   36 1
    42   33   38 1
@<TRIPOS>MOLECULE
*****
   40    42     0     0     0
SMALL
NO_CHARGES

@<TRIPOS>ATOM
      1 C1          6.8050    1.4750   19.8350 C.ar      1 <0>         0.0000
      2 C2         13.2960    0.5580   23.3900 C.ar      1 <0>         0.0000
      3 C3         13.0430   -1.5620   22.2260 C.ar      1 <0>         0.0000
      4 C4         15.1310   -0.2950   22.2030 C.ar      1 <0>         0.0000
      5 C5          6.9800    0.5970   18.6880 C.ar      1 <0>         0.0000
      6 C6          8.5180   -0.5360   19.8330 C.ar      1 <0>         0.0000
      7 C7          7.5730    1.3560   20.9310 C.ar      1 <0>         0.0000
      8 C8         12.5110   -0.5750   23.1130 C.ar      1 <0>         0.0000
      9 C9          8.4790    0.3080   20.9110 C.ar      1 <0>         0.0000
     10 C10        14.6350    0.6650   23.0090 C.ar      1 <0>         0.0000
     11 C11        14.4090   -1.4530   21.8200 C.ar      1 <0>         0.0000
     12 C12        10.0510   -0.9570   22.3850 C.2       1 <0>         0.0000
     13 C13         7.4250    2.3080   22.1440 C.3       1 <0>         0.0000
     14 C14        11.0280   -0.7810   23.5510 C.3       1 <0>         0.0000
     15 N1          7.7670   -0.4340   18.7020 N.ar      1 <0>         0.0000
     16 N2          9.3550    0.1630   21.9720 N.am      1 <0>         0.0000
     17 O1          9.8950   -2.0510   21.9890 O.2       1 <0>         0.0000
     18 O2         15.5000    1.7280   23.2520 O.3       1 <0>         0.0000
     19 Cl1        15.0490   -2.6320   20.7900 Cl        1 <0>         0.0000
     20 H1          5.9960    2.2000   19.7920 H         1 <0>         0.0000
     21 H2         12.7940    1.3730   23.9070 H         1 <0>         0.0000
     22 H3         12.3690   -2.3200   21.8300 H         1 <0>         0.0000
     23 H4         16.1450   -0.0910   21.8510 H         1 <0>         0.0000
     24 H5          6.2690    0.6480   17.8740 H         1 <0>         0.0000
     25 H6          9.1900   -1.3810   19.8450 H         1 <0>         0.0000
     26 H7          6.6120    3.0300   21.9870 H         1 <0>         0.0000
     27 H8          7.1140    1.5860   22.8970 H         1 <0>         0.0000
     28 H9          8.2510    2.9480   22.4780 H         1 <0>         0.0000
     29 H10        10.8860   -1.6000   24.2730 H         1 <0>         0.0000
     30 H11        10.7860    0.1250   24.1300 H         1 <0>         0.0000
     31 H12         9.5810    1.0540   22.4160 H         1 <0>         0.0000
     32 H13        16.8990    3.8300   22.9360 H         1 <0>         0.0000
     33 H14        14.7820    3.0150   24.7230 H         1 <0>         0.0000
     34 H15        13.3460    4.2230   23.6810 H         1 <0>         0.0000
     35 H16        13.4820    3.3020   22.1090 H         1 <0>         0.0000
     36 N3         16.0240    4.0750   23.4020 N.am      1 <0>         0.0000
     37 O3         15.4200    5.2260   21.5960 O.2       1 <0>         0.0000
     38 C15        15.0750    2.9970   23.6710 C.3       1 <0>         0.0000
     39 C16        14.0160    3.7800   22.9340 C.3       1 <0>         0.0000
     40 C17        15.1410    4.6650   22.6300 C.2       1 <0>         0.0000
@<TRIPOS>BOND
     1    5   24 1
     2    5   15 ar
     3    1    5 ar
     4    6   15 ar
     5    1   20 1
     6    6   25 1
     7    6    9 ar
     8    1    7 ar
     9   11   19 1
    10    7    9 ar
    11    9   16 1
    12    7   13 1
    13   37   40 2
    14    4   11 ar
    15    3   11 ar
    16    3   22 1
    17    4   23 1
    18   12   16 am
    19   16   31 1
    20   13   26 1
    21   12   17 2
    22   35   39 1
    23   13   28 1
    24   13   27 1
    25    4   10 ar
    26    3    8 ar
    27   12   14 1
    28   39   40 1
    29   36   40 am
    30   38   39 1
    31   34   39 1
    32   32   36 1
    33   10   18 1
    34    2   10 ar
    35    2    8 ar
    36    8   14 1
    37   18   38 1
    38    2   21 1
    39   36   38 1
    40   14   30 1
    41   14   29 1
    42   33   38 1
@<TRIPOS>MOLECULE
*****
   40    42     0     0     0
SMALL
NO_CHARGES

@<TRIPOS>ATOM
      1 C1          4.1150    1.6630   18.0160 C.ar      1 <0>         0.0000
      2 C2          9.9780    1.1620   23.1970 C.ar      1 <0>         0.0000
      3 C3         10.4530   -0.9830   22.2300 C.ar      1 <0>         0.0000
      4 C4         12.2600    0.4230   22.9850 C.ar      1 <0>         0.0000
      5 C5          4.9870    1.3370   16.9090 C.ar      1 <0>         0.0000
      6 C6          6.4990    0.3810   18.2810 C.ar      1 <0>         0.0000
      7 C7          4.4700    1.2150   19.2770 C.ar      1 <0>         0.0000
      8 C8          9.5500   -0.0100   22.6520 C.ar      1 <0>         0.0000
      9 C9          5.7420    0.6610   19.4680 C.ar      1 <0>         0.0000
     10 C10        11.3670    1.3620   23.3420 C.ar      1 <0>         0.0000
     11 C11        11.8530   -0.7740   22.4100 C.ar      1 <0>         0.0000
     12 C12         7.6090    0.4170   21.1050 C.2       1 <0>         0.0000
     13 C13         3.5250    1.5710   20.4550 C.3       1 <0>         0.0000
     14 C14         8.0640   -0.2410   22.4110 C.3       1 <0>         0.0000
     15 N1          6.1500    0.7560   17.0530 N.ar      1 <0>         0.0000
     16 N2          6.2490    0.4130   20.7740 N.am      1 <0>         0.0000
     17 O1          8.4330    0.7850   20.2610 O.2       1 <0>         0.0000
     18 O2         11.8390    2.5780   23.8400 O.3       1 <0>         0.0000
     19 Cl1        13.0530   -1.9230   21.8730 Cl        1 <0>         0.0000
     20 H1          3.2200    2.2670   17.8680 H         1 <0>         0.0000
     21 H2          9.3900    2.0520   23.3950 H         1 <0>         0.0000
     22 H3         10.2110   -1.8960   21.7160 H         1 <0>         0.0000
     23 H4         13.3350    0.4800   23.1090 H         1 <0>         0.0000
     24 H5          4.7250    1.5980   15.8910 H         1 <0>         0.0000
     25 H6          7.3710   -0.2510   18.4620 H         1 <0>         0.0000
     26 H7          3.9230    2.3490   21.1190 H         1 <0>         0.0000
     27 H8          2.5540    1.9040   20.0720 H         1 <0>         0.0000
     28 H9          3.3470    0.6580   21.0330 H         1 <0>         0.0000
     29 H10         7.8540   -1.3090   22.3350 H         1 <0>         0.0000
     30 H11         7.4770    0.0800   23.2780 H         1 <0>         0.0000
     31 H12         5.6510    0.4890   21.6080 H         1 <0>         0.0000
     32 H13        11.4660    5.4700   24.3260 H         1 <0>         0.0000
     33 H14        10.7970    3.8380   22.5000 H         1 <0>         0.0000
     34 H15        12.6770    4.3270   21.1270 H         1 <0>         0.0000
     35 H16        13.8100    3.3740   22.1950 H         1 <0>         0.0000
     36 N3         12.0910    4.8610   23.7900 N.am      1 <0>         0.0000
     37 O3         13.5750    6.3110   22.8170 O.2       1 <0>         0.0000
     38 C15        11.7420    3.7310   23.0510 C.3       1 <0>         0.0000
     39 C16        12.9510    4.0580   22.1470 C.3       1 <0>         0.0000
     40 C17        13.0760    5.2130   23.0290 C.2       1 <0>         0.0000
@<TRIPOS>BOND
     1    5   24 1
     2    5   15 ar
     3    1    5 ar
     4    6   15 ar
     5    1   20 1
     6    1    7 ar
     7    6   25 1
     8    6    9 ar
     9    7    9 ar
    10    7   13 1
    11    9   16 1
    12   13   27 1
    13   12   17 2
    14   13   28 1
    15   13   26 1
    16   12   16 am
    17   16   31 1
    18   12   14 1
    19   34   39 1
    20    3   22 1
    21   11   19 1
    22   35   39 1
    23   39   40 1
    24   38   39 1
    25    3   11 ar
    26    3    8 ar
    27   14   29 1
    28    4   11 ar
    29    8   14 1
    30   14   30 1
    31   33   38 1
    32    2    8 ar
    33   37   40 2
    34    4   23 1
    35    4   10 ar
    36   36   40 am
    37   36   38 1
    38   18   38 1
    39    2   10 ar
    40    2   21 1
    41   10   18 1
    42   32   36 1
@<TRIPOS>MOLECULE
*****
   40    42     0     0     0
SMALL
NO_CHARGES

@<TRIPOS>ATOM
      1 C1          4.2570    1.5720   19.5570 C.ar      1 <0>         0.0000
      2 C2         11.3600    1.4680   23.4420 C.ar      1 <0>         0.0000
      3 C3         11.6350   -0.7760   22.6470 C.ar      1 <0>         0.0000
      4 C4         13.5680    0.5400   23.1510 C.ar      1 <0>         0.0000
      5 C5          4.8340    1.3960   18.2990 C.ar      1 <0>         0.0000
      6 C6          6.8230    0.7300   19.1980 C.ar      1 <0>         0.0000
      7 C7          5.0280    1.3530   20.6990 C.ar      1 <0>         0.0000
      8 C8         10.7420    0.2840   23.0260 C.ar      1 <0>         0.0000
      9 C9          6.3280    0.8320   20.5130 C.ar      1 <0>         0.0000
     10 C10        12.7700    1.6620   23.3560 C.ar      1 <0>         0.0000
     11 C11        12.9720   -0.7260   22.8270 C.ar      1 <0>         0.0000
     12 C12         8.4250    0.6270   21.8560 C.2       1 <0>         0.0000
     13 C13         4.3420    1.5770   22.0370 C.3       1 <0>         0.0000
     14 C14         9.2550    0.1340   23.0990 C.3       1 <0>         0.0000
     15 N1          6.1050    1.0690   18.1150 N.ar      1 <0>         0.0000
     16 N2          7.0970    0.3440   21.6490 N.am      1 <0>         0.0000
     17 O1          8.9570    1.3720   21.0630 O.2       1 <0>         0.0000
     18 O2         13.4580    2.8750   23.5860 O.3       1 <0>         0.0000
     19 Cl1        13.9950   -2.0780   22.3600 Cl        1 <0>         0.0000
     20 H1          3.2030    1.8150   19.6670 H         1 <0>         0.0000
     21 H2         10.7650    2.2630   23.8980 H         1 <0>         0.0000
     22 H3         11.3050   -1.6910   22.1710 H         1 <0>         0.0000
     23 H4         14.6500    0.6610   23.2320 H         1 <0>         0.0000
     24 H5          4.2480    1.6600   17.4220 H         1 <0>         0.0000
     25 H6          7.7490    0.2230   18.9720 H         1 <0>         0.0000
     26 H7          4.2720    0.6670   22.6440 H         1 <0>         0.0000
     27 H8          4.9310    2.2880   22.6360 H         1 <0>         0.0000
     28 H9          3.3090    1.8510   21.8030 H         1 <0>         0.0000
     29 H10         8.9800   -0.9190   23.1810 H         1 <0>         0.0000
     30 H11         8.8990    0.6560   23.9910 H         1 <0>         0.0000
     31 H12         6.7120   -0.0980   22.4880 H         1 <0>         0.0000
     32 H13        13.4600    5.7620   24.8890 H         1 <0>         0.0000
     33 H14        11.9690    3.7000   24.8200 H         1 <0>         0.0000
     34 H15        10.6570    4.6760   22.9890 H         1 <0>         0.0000
     35 H16        11.9920    4.2190   21.7690 H         1 <0>         0.0000
     36 N3         13.3080    5.2730   24.0060 N.am      1 <0>         0.0000
     37 O3         12.1730    6.9600   23.1130 O.2       1 <0>         0.0000
     38 C15        12.5650    3.9860   23.9490 C.3       1 <0>         0.0000
     39 C16        11.7250    4.6110   22.7650 C.3       1 <0>         0.0000
     40 C17        12.5510    5.8070   23.0820 C.2       1 <0>         0.0000
@<TRIPOS>BOND
     1    5   24 1
     2    5   15 ar
     3    6   15 ar
     4    1    5 ar
     5    6   25 1
     6    6    9 ar
     7    1   20 1
     8    1    7 ar
     9    7    9 ar
    10    9   16 1
    11    7   13 1
    12   12   17 2
    13   12   16 am
    14   16   31 1
    15   35   39 1
    16   13   28 1
    17   12   14 1
    18   13   27 1
    19   13   26 1
    20    3   22 1
    21   11   19 1
    22    3   11 ar
    23    3    8 ar
    24   34   39 1
    25   39   40 1
    26   38   39 1
    27    4   11 ar
    28    8   14 1
    29    2    8 ar
    30   37   40 2
    31   36   40 am
    32   14   29 1
    33   14   30 1
    34    4   23 1
    35    4   10 ar
    36    2   10 ar
    37   10   18 1
    38    2   21 1
    39   18   38 1
    40   36   38 1
    41   33   38 1
    42   32   36 1
@<TRIPOS>MOLECULE
*****
   40    42     0     0     0
SMALL
NO_CHARGES

@<TRIPOS>ATOM
      1 C1          5.4480    1.3970   20.2450 C.ar      1 <0>         0.0000
      2 C2         12.7250    0.7490   23.2760 C.ar      1 <0>         0.0000
      3 C3         13.0280   -1.3600   22.2450 C.ar      1 <0>         0.0000
      4 C4         14.9600    0.1000   22.5660 C.ar      1 <0>         0.0000
      5 C5          5.7790    1.0500   18.9980 C.ar      1 <0>         0.0000
      6 C6          7.9380    0.3420   19.5510 C.ar      1 <0>         0.0000
      7 C7          6.3170    1.0690   21.3120 C.ar      1 <0>         0.0000
      8 C8         12.1900   -0.4360   22.8430 C.ar      1 <0>         0.0000
      9 C9          7.5960    0.5220   20.9610 C.ar      1 <0>         0.0000
     10 C10        14.1880    1.0170   23.1550 C.ar      1 <0>         0.0000
     11 C11        14.3380   -1.1110   22.0850 C.ar      1 <0>         0.0000
     12 C12         9.8530    0.0950   21.9340 C.2       1 <0>         0.0000
     13 C13         5.9440    1.3140   22.7330 C.3       1 <0>         0.0000
     14 C14        10.6910   -0.7060   22.9020 C.3       1 <0>         0.0000
     15 N1          7.0360    0.6270   18.5930 N.ar      1 <0>         0.0000
     16 N2          8.4590    0.1120   21.9710 N.am      1 <0>         0.0000
     17 O1         10.4370    0.7180   21.0180 O.2       1 <0>         0.0000
     18 O2         14.7640    2.2340   23.5310 O.3       1 <0>         0.0000
     19 Cl1        15.3040   -2.2320   21.3220 Cl        1 <0>         0.0000
     20 H1          4.5240    1.9450   20.3870 H         1 <0>         0.0000
     21 H2         12.0780    1.5340   23.6420 H         1 <0>         0.0000
     22 H3         12.7150   -2.3280   21.8590 H         1 <0>         0.0000
     23 H4         16.0340    0.2320   22.4900 H         1 <0>         0.0000
     24 H5          5.1410    1.1240   18.1230 H         1 <0>         0.0000
     25 H6          8.8820   -0.1210   19.2890 H         1 <0>         0.0000
     26 H7          4.8630    1.4220   22.8860 H         1 <0>         0.0000
     27 H8          6.0140    0.3690   23.2780 H         1 <0>         0.0000
     28 H9          6.5680    2.1310   23.1130 H         1 <0>         0.0000
     29 H10        10.3850   -1.7430   22.7640 H         1 <0>         0.0000
     30 H11        10.4130   -0.3510   23.8980 H         1 <0>         0.0000
     31 H12         8.0770   -0.2250   22.8540 H         1 <0>         0.0000
     32 N3         14.7450    4.4710   24.2040 N.am      1 <0>         0.0000
     33 O3         14.5310    6.2170   22.6210 O.2       1 <0>         0.0000
     34 C15        13.9290    3.3230   23.9210 C.3       1 <0>         0.0000
     35 C16        13.1730    4.0660   22.7000 C.3       1 <0>         0.0000
     36 C17        14.1890    5.1190   23.1810 C.2       1 <0>         0.0000
     37 H13        15.7100    4.4040   24.5260 H         1 <0>         0.0000
     38 H14        13.1820    3.0740   24.6840 H         1 <0>         0.0000
     39 H15        13.4700    3.6420   21.7420 H         1 <0>         0.0000
     40 H16        12.1480    4.4400   22.7910 H         1 <0>         0.0000
@<TRIPOS>BOND
     1    5   24 1
     2    5   15 ar
     3    6   15 ar
     4    1    5 ar
     5    6   25 1
     6    6    9 ar
     7    1   20 1
     8    1    7 ar
     9    7    9 ar
    10    9   16 1
    11   12   17 2
    12    7   13 1
    13   11   19 1
    14   35   39 1
    15    3   22 1
    16   12   16 am
    17   12   14 1
    18   16   31 1
    19    3   11 ar
    20    4   11 ar
    21    3    8 ar
    22    4   23 1
    23    4   10 ar
    24   33   36 2
    25   35   40 1
    26   35   36 1
    27   34   35 1
    28   13   26 1
    29   13   28 1
    30   13   27 1
    31   14   29 1
    32    8   14 1
    33    2    8 ar
    34   14   30 1
    35    2   10 ar
    36   10   18 1
    37   32   36 am
    38    2   21 1
    39   18   34 1
    40   32   34 1
    41   34   38 1
    42   32   37 1
@<TRIPOS>MOLECULE
*****
   40    42     0     0     0
SMALL
NO_CHARGES

@<TRIPOS>ATOM
      1 C1          6.6210    1.6920   19.6920 C.ar      1 <0>         0.0000
      2 C2          9.6630   -2.0270   23.1590 C.ar      1 <0>         0.0000
      3 C3         11.1880   -3.2350   21.7580 C.ar      1 <0>         0.0000
      4 C4         12.1100   -1.8890   23.4810 C.ar      1 <0>         0.0000
      5 C5          6.1390    1.3010   18.4410 C.ar      1 <0>         0.0000
      6 C6          6.8910   -0.7600   18.6580 C.ar      1 <0>         0.0000
      7 C7          7.3350    0.7500   20.4640 C.ar      1 <0>         0.0000
      8 C8          9.8720   -2.9430   22.0810 C.ar      1 <0>         0.0000
      9 C9          7.3720   -0.5500   19.9990 C.ar      1 <0>         0.0000
     10 C10        10.8170   -1.5300   23.8180 C.ar      1 <0>         0.0000
     11 C11        12.2600   -2.7400   22.4350 C.ar      1 <0>         0.0000
     12 C12         7.8810   -2.9500   20.6100 C.2       1 <0>         0.0000
     13 C13         8.0280    1.1630   21.7040 C.3       1 <0>         0.0000
     14 C14         8.7310   -3.7610   21.5240 C.3       1 <0>         0.0000
     15 N1          6.2760    0.1260   17.8460 N.ar      1 <0>         0.0000
     16 N2          7.8150   -1.5730   20.8270 N.am      1 <0>         0.0000
     17 O1          6.9600   -3.4960   19.8550 O.2       1 <0>         0.0000
     18 O2         10.5440   -0.5410   24.7680 O.3       1 <0>         0.0000
     19 Cl1        13.8890   -2.9640   21.9060 Cl        1 <0>         0.0000
     20 H1          6.2510    2.6440   20.0550 H         1 <0>         0.0000
     21 H2          8.6660   -1.8750   23.5750 H         1 <0>         0.0000
     22 H3         11.3430   -3.9950   20.9980 H         1 <0>         0.0000
     23 H4         13.0300   -1.4810   23.8870 H         1 <0>         0.0000
     24 H5          5.5530    2.0850   17.9750 H         1 <0>         0.0000
     25 H6          6.9700   -1.7170   18.1440 H         1 <0>         0.0000
     26 H7          8.8830    1.7670   21.3770 H         1 <0>         0.0000
     27 H8          7.4950    1.7460   22.4610 H         1 <0>         0.0000
     28 H9          8.4320    0.3380   22.3020 H         1 <0>         0.0000
     29 H10         9.1020   -4.7240   21.1710 H         1 <0>         0.0000
     30 H11         8.1810   -4.0880   22.4090 H         1 <0>         0.0000
     31 H12         8.2290   -1.2960   21.7190 H         1 <0>         0.0000
     32 N3         11.2060    0.5080   26.7860 N.am      1 <0>         0.0000
     33 O3         11.5930   -0.4440   28.8180 O.2       1 <0>         0.0000
     34 C15        11.6030   -0.4250   25.7430 C.3       1 <0>         0.0000
     35 C16        11.7670   -1.5980   26.7130 C.3       1 <0>         0.0000
     36 C17        11.3380   -0.4710   27.6260 C.2       1 <0>         0.0000
     37 H13        11.5290    1.4470   26.9910 H         1 <0>         0.0000
     38 H14        12.5400   -0.0440   25.3160 H         1 <0>         0.0000
     39 H15        11.0450   -2.3770   26.4730 H         1 <0>         0.0000
     40 H16        12.8140   -1.9140   26.7610 H         1 <0>         0.0000
@<TRIPOS>BOND
     1    5   15 ar
     2    6   15 ar
     3    5   24 1
     4    6   25 1
     5    1    5 ar
     6    6    9 ar
     7    1   20 1
     8    1    7 ar
     9   12   17 2
    10    7    9 ar
    11    9   16 1
    12    7   13 1
    13   12   16 am
    14   12   14 1
    15   16   31 1
    16    3   22 1
    17   14   29 1
    18   13   26 1
    19    8   14 1
    20   14   30 1
    21   13   28 1
    22   13   27 1
    23    3    8 ar
    24    3   11 ar
    25   11   19 1
    26    2    8 ar
    27    4   11 ar
    28    2   21 1
    29    2   10 ar
    30    4   10 ar
    31    4   23 1
    32   10   18 1
    33   18   34 1
    34   34   38 1
    35   34   35 1
    36   32   34 1
    37   35   39 1
    38   35   40 1
    39   35   36 1
    40   32   37 1
    41   32   36 am
    42   33   36 2
@<TRIPOS>MOLECULE
*****
   40    42     0     0     0
SMALL
NO_CHARGES

@<TRIPOS>ATOM
      1 C1          5.1100    1.4020   18.6210 C.ar      1 <0>         0.0000
      2 C2         11.2710    2.4430   23.6850 C.ar      1 <0>         0.0000
      3 C3         11.0220   -0.0110   23.5200 C.ar      1 <0>         0.0000
      4 C4         13.2300    1.0060   23.5450 C.ar      1 <0>         0.0000
      5 C5          5.7900    0.6730   17.6610 C.ar      1 <0>         0.0000
      6 C6          7.4530    0.1290   19.2620 C.ar      1 <0>         0.0000
      7 C7          5.5870    1.5400   19.9650 C.ar      1 <0>         0.0000
      8 C8         10.4420    1.3100   23.5300 C.ar      1 <0>         0.0000
      9 C9          6.7610    0.8630   20.2340 C.ar      1 <0>         0.0000
     10 C10        12.6810    2.2770   23.6390 C.ar      1 <0>         0.0000
     11 C11        12.4300   -0.1540   23.5120 C.ar      1 <0>         0.0000
     12 C12         8.5800    1.1380   21.8950 C.2       1 <0>         0.0000
     13 C13         4.8170    2.3680   20.9810 C.3       1 <0>         0.0000
     14 C14         8.9870    1.4570   23.3200 C.3       1 <0>         0.0000
     15 N1          6.9490    0.0220   17.9710 N.ar      1 <0>         0.0000
     16 N2          7.2500    0.9240   21.5040 N.am      1 <0>         0.0000
     17 O1          9.4190    1.1840   21.0310 O.2       1 <0>         0.0000
     18 O2         13.4240    3.4140   23.6770 O.3       1 <0>         0.0000
     19 Cl1        13.1940   -1.7600   23.5460 Cl        1 <0>         0.0000
     20 H1          4.3200    2.0160   18.2250 H         1 <0>         0.0000
     21 H2         10.9080    3.4530   23.7980 H         1 <0>         0.0000
     22 H3         10.3610   -0.8650   23.4730 H         1 <0>         0.0000
     23 H4         14.3120    1.0870   23.6160 H         1 <0>         0.0000
     24 H5          5.4830    0.6080   16.6200 H         1 <0>         0.0000
     25 H6          8.3080   -0.5080   19.4710 H         1 <0>         0.0000
     26 H7          4.7330    1.7380   21.8710 H         1 <0>         0.0000
     27 H8          5.4420    3.2390   21.1780 H         1 <0>         0.0000
     28 H9          3.8780    2.7150   20.5240 H         1 <0>         0.0000
     29 H10         8.4640    0.6380   23.8270 H         1 <0>         0.0000
     30 H11         8.6820    2.4910   23.5100 H         1 <0>         0.0000
     31 H12         6.5890    0.7030   22.2520 H         1 <0>         0.0000
     32 C15        13.3070    4.2670   22.5290 C.3       1 <0>         0.0000
     33 C16        13.8250    3.6320   21.1870 C.3       1 <0>         0.0000
     34 C17        14.9480    4.6290   21.4420 C.2       1 <0>         0.0000
     35 H13        15.0270    5.5380   23.1810 H         1 <0>         0.0000
     36 H14        12.3370    4.7290   22.3090 H         1 <0>         0.0000
     37 H15        13.3340    3.8430   20.2380 H         1 <0>         0.0000
     38 H16        14.0090    2.5540   21.2990 H         1 <0>         0.0000
     39 N3         14.3650    5.2310   22.4720 N.am      1 <0>         0.0000
     40 O3         16.1370    4.5920   21.1250 O.2       1 <0>         0.0000
@<TRIPOS>BOND
     1    5   24 1
     2    5   15 ar
     3    1    5 ar
     4    6   15 ar
     5    1   20 1
     6    1    7 ar
     7    6   25 1
     8    6    9 ar
     9    7    9 ar
    10    7   13 1
    11    9   16 1
    12   33   37 1
    13   13   28 1
    14   13   27 1
    15   13   26 1
    16   12   17 2
    17   34   40 2
    18   33   38 1
    19   33   34 1
    20   32   33 1
    21   34   39 am
    22   12   16 am
    23   16   31 1
    24   12   14 1
    25   32   36 1
    26   32   39 1
    27   35   39 1
    28   18   32 1
    29   14   30 1
    30    8   14 1
    31   14   29 1
    32    3   22 1
    33    3   11 ar
    34    4   11 ar
    35   11   19 1
    36    3    8 ar
    37    2    8 ar
    38    4   23 1
    39    4   10 ar
    40   10   18 1
    41    2   10 ar
    42    2   21 1
@<TRIPOS>MOLECULE
*****
   40    42     0     0     0
SMALL
NO_CHARGES

@<TRIPOS>ATOM
      1 C1          5.7010    1.0860   20.1060 C.ar      1 <0>         0.0000
      2 C2         12.8920    1.0250   23.1220 C.ar      1 <0>         0.0000
      3 C3         12.6890   -1.1690   22.1600 C.ar      1 <0>         0.0000
      4 C4         14.8100    0.0310   22.1700 C.ar      1 <0>         0.0000
      5 C5          6.0240    0.4650   18.9170 C.ar      1 <0>         0.0000
      6 C6          7.8870   -0.4640   19.8660 C.ar      1 <0>         0.0000
      7 C7          6.5400    1.1220   21.1760 C.ar      1 <0>         0.0000
      8 C8         12.1030   -0.1400   22.8590 C.ar      1 <0>         0.0000
      9 C9          7.6510    0.3160   21.0940 C.ar      1 <0>         0.0000
     10 C10        14.2870    1.1130   22.7940 C.ar      1 <0>         0.0000
     11 C11        14.0620   -1.1220   21.8800 C.ar      1 <0>         0.0000
     12 C12         9.6330   -0.5550   22.4090 C.2       1 <0>         0.0000
     13 C13         6.1880    1.9840   22.2710 C.3       1 <0>         0.0000
     14 C14        10.6920   -0.2460   23.4040 C.3       1 <0>         0.0000
     15 N1          7.1340   -0.3230   18.7730 N.ar      1 <0>         0.0000
     16 N2          8.6510    0.3890   22.1530 N.am      1 <0>         0.0000
     17 O1          9.6350   -1.6640   21.8220 O.2       1 <0>         0.0000
     18 O2         15.0490    2.2770   22.9300 O.3       1 <0>         0.0000
     19 Cl1        14.7780   -2.4400   20.9790 Cl        1 <0>         0.0000
     20 H1          4.8210    1.7070   20.1810 H         1 <0>         0.0000
     21 H2         12.3780    1.8590   23.5840 H         1 <0>         0.0000
     22 H3         12.1910   -2.0370   21.7420 H         1 <0>         0.0000
     23 H4         15.7990    0.2040   21.7570 H         1 <0>         0.0000
     24 H5          5.4040    0.5710   18.0270 H         1 <0>         0.0000
     25 H6          8.7210   -1.1510   19.7410 H         1 <0>         0.0000
     26 H7          6.9540    2.7560   22.4100 H         1 <0>         0.0000
     27 H8          5.1860    2.3970   22.1130 H         1 <0>         0.0000
     28 H9          6.0620    1.2670   23.0930 H         1 <0>         0.0000
     29 H10        10.7380   -1.0400   24.1540 H         1 <0>         0.0000
     30 H11        10.2830    0.6130   23.9500 H         1 <0>         0.0000
     31 H12         8.6810    1.3030   22.6070 H         1 <0>         0.0000
     32 N3         15.0610    4.7140   23.1810 N.am      1 <0>         0.0000
     33 O3         14.0160    6.3170   21.9720 O.2       1 <0>         0.0000
     34 C15        14.3110    3.4840   23.2960 C.3       1 <0>         0.0000
     35 C16        13.3260    4.1040   22.2440 C.3       1 <0>         0.0000
     36 C17        14.2470    5.2000   22.2830 C.2       1 <0>         0.0000
     37 H13        15.3100    5.3200   23.9670 H         1 <0>         0.0000
     38 H14        13.7710    3.4540   24.2510 H         1 <0>         0.0000
     39 H15        12.3630    4.2680   22.7420 H         1 <0>         0.0000
     40 H16        13.2990    3.5310   21.3170 H         1 <0>         0.0000
@<TRIPOS>BOND
     1    5   24 1
     2    5   15 ar
     3    6   15 ar
     4    1    5 ar
     5    6   25 1
     6    6    9 ar
     7    1   20 1
     8    1    7 ar
     9   11   19 1
    10    7    9 ar
    11    9   16 1
    12    7   13 1
    13   35   40 1
    14    3   22 1
    15    4   23 1
    16   12   17 2
    17    3   11 ar
    18    4   11 ar
    19   33   36 2
    20   13   27 1
    21   12   16 am
    22   16   31 1
    23    3    8 ar
    24    4   10 ar
    25   35   36 1
    26   35   39 1
    27   34   35 1
    28   13   26 1
    29   13   28 1
    30   32   36 am
    31   12   14 1
    32   10   18 1
    33    2   10 ar
    34    2    8 ar
    35    8   14 1
    36   18   34 1
    37    2   21 1
    38   32   34 1
    39   32   37 1
    40   34   38 1
    41   14   30 1
    42   14   29 1
@<TRIPOS>MOLECULE
*****
   40    42     0     0     0
SMALL
NO_CHARGES

@<TRIPOS>ATOM
      1 C1          4.5190    0.7730   19.0920 C.ar      1 <0>         0.0000
      2 C2         11.2890    0.9320   23.4610 C.ar      1 <0>         0.0000
      3 C3         11.3320   -1.2950   22.4550 C.ar      1 <0>         0.0000
      4 C4         13.3680   -0.0270   22.8710 C.ar      1 <0>         0.0000
      5 C5          5.1110    0.5170   17.8320 C.ar      1 <0>         0.0000
      6 C6          7.1170    0.0790   18.9340 C.ar      1 <0>         0.0000
      7 C7          5.2010    0.5970   20.2890 C.ar      1 <0>         0.0000
      8 C8         10.6240   -0.1910   23.0170 C.ar      1 <0>         0.0000
      9 C9          6.5250    0.1800   20.2040 C.ar      1 <0>         0.0000
     10 C10        12.6720    1.0590   23.4230 C.ar      1 <0>         0.0000
     11 C11        12.6970   -1.1520   22.3820 C.ar      1 <0>         0.0000
     12 C12         8.5400    0.2000   21.6730 C.2       1 <0>         0.0000
     13 C13         4.4730    0.8580   21.6090 C.3       1 <0>         0.0000
     14 C14         9.1150   -0.2200   23.0630 C.3       1 <0>         0.0000
     15 N1          6.4190    0.2480   17.7190 N.ar      1 <0>         0.0000
     16 N2          7.1960   -0.0370   21.4000 N.am      1 <0>         0.0000
     17 O1          9.1870    0.9640   20.9890 O.2       1 <0>         0.0000
     18 O2         13.3570    2.0980   23.9860 O.3       1 <0>         0.0000
     19 Cl1        13.6700   -2.3800   21.4990 Cl        1 <0>         0.0000
     20 H1          3.4920    1.1200   19.1040 H         1 <0>         0.0000
     21 H2         10.7750    1.8210   23.7980 H         1 <0>         0.0000
     22 H3         10.8980   -2.2160   22.1020 H         1 <0>         0.0000
     23 H4         14.4550    0.0100   22.8830 H         1 <0>         0.0000
     24 H5          4.5970    0.8530   16.9330 H         1 <0>         0.0000
     25 H6          8.1350   -0.2770   18.9160 H         1 <0>         0.0000
     26 H7          5.2080    1.3200   22.2650 H         1 <0>         0.0000
     27 H8          3.5640    1.4360   21.3980 H         1 <0>         0.0000
     28 H9          4.1070   -0.0870   22.0090 H         1 <0>         0.0000
     29 H10         8.7890   -1.2540   23.2430 H         1 <0>         0.0000
     30 H11         8.6720    0.5230   23.7300 H         1 <0>         0.0000
     31 H12         6.6540   -0.5730   22.0820 H         1 <0>         0.0000
     32 N3         13.8890    4.3930   23.8470 N.am      1 <0>         0.0000
     33 O3         14.1760    5.0130   21.6670 O.2       1 <0>         0.0000
     34 C15        12.7990    3.3920   23.9160 C.3       1 <0>         0.0000
     35 C16        12.2560    3.8910   22.5970 C.3       1 <0>         0.0000
     36 C17        13.4930    4.6780   22.6000 C.2       1 <0>         0.0000
     37 H13        14.8520    4.0680   23.8700 H         1 <0>         0.0000
     38 H14        12.1080    3.5670   24.7460 H         1 <0>         0.0000
     39 H15        12.2540    3.1560   21.7750 H         1 <0>         0.0000
     40 H16        11.3300    4.4550   22.7110 H         1 <0>         0.0000
@<TRIPOS>BOND
     1    5   24 1
     2    5   15 ar
     3    6   15 ar
     4    1    5 ar
     5    6   25 1
     6    6    9 ar
     7    1   20 1
     8    1    7 ar
     9    7    9 ar
    10    9   16 1
    11    7   13 1
    12   12   17 2
    13   13   27 1
    14   12   16 am
    15   16   31 1
    16   11   19 1
    17   13   28 1
    18   13   26 1
    19   33   36 2
    20   12   14 1
    21   35   39 1
    22    3   22 1
    23    3   11 ar
    24    4   11 ar
    25    3    8 ar
    26   35   36 1
    27   35   40 1
    28   34   35 1
    29   32   36 am
    30    4   23 1
    31    4   10 ar
    32    8   14 1
    33    2    8 ar
    34   14   29 1
    35   14   30 1
    36    2   10 ar
    37   10   18 1
    38    2   21 1
    39   32   37 1
    40   32   34 1
    41   18   34 1
    42   34   38 1
@<TRIPOS>MOLECULE
*****
   40    42     0     0     0
SMALL
NO_CHARGES

@<TRIPOS>ATOM
      1 C1          5.2450    1.2520   18.2690 C.ar      1 <0>         0.0000
      2 C2          9.1510   -2.1110   22.7840 C.ar      1 <0>         0.0000
      3 C3          8.0690   -4.1940   23.2200 C.ar      1 <0>         0.0000
      4 C4         10.3050   -4.1560   22.4720 C.ar      1 <0>         0.0000
      5 C5          6.2060    0.5950   17.4810 C.ar      1 <0>         0.0000
      6 C6          6.9840   -0.6210   19.2680 C.ar      1 <0>         0.0000
      7 C7          5.2130    0.9820   19.6520 C.ar      1 <0>         0.0000
      8 C8          7.9880   -2.7960   23.0910 C.ar      1 <0>         0.0000
      9 C9          6.0770   -0.0430   20.1730 C.ar      1 <0>         0.0000
     10 C10        10.3480   -2.7380   22.4380 C.ar      1 <0>         0.0000
     11 C11         9.1920   -4.8620   22.9810 C.ar      1 <0>         0.0000
     12 C12         6.0970   -1.7520   21.8910 C.2       1 <0>         0.0000
     13 C13         4.2530    1.7820   20.5320 C.3       1 <0>         0.0000
     14 C14         6.6890   -2.1130   23.2620 C.3       1 <0>         0.0000
     15 N1          7.0760   -0.3330   17.9400 N.ar      1 <0>         0.0000
     16 N2          5.9120   -0.4570   21.5110 N.am      1 <0>         0.0000
     17 O1          5.8170   -2.6430   21.1220 O.2       1 <0>         0.0000
     18 O2         11.4440   -1.9270   22.0930 O.3       1 <0>         0.0000
     19 Cl1         9.2770   -6.5930   23.1760 Cl        1 <0>         0.0000
     20 H1          4.5670    2.0060   17.8870 H         1 <0>         0.0000
     21 H2          9.0680   -1.0280   22.7360 H         1 <0>         0.0000
     22 H3          7.1420   -4.7030   23.4790 H         1 <0>         0.0000
     23 H4         11.2130   -4.7280   22.2510 H         1 <0>         0.0000
     24 H5          6.3210    0.9190   16.4560 H         1 <0>         0.0000
     25 H6          7.7340   -1.3210   19.6010 H         1 <0>         0.0000
     26 H7          4.0250    1.2130   21.4360 H         1 <0>         0.0000
     27 H8          4.6770    2.7580   20.8040 H         1 <0>         0.0000
     28 H9          3.2860    1.9280   20.0330 H         1 <0>         0.0000
     29 H10         5.9120   -2.7150   23.7500 H         1 <0>         0.0000
     30 H11         6.8150   -1.1710   23.7970 H         1 <0>         0.0000
     31 H12         5.9010    0.3000   22.1890 H         1 <0>         0.0000
     32 H13        12.8130   -3.5280   22.3550 H         1 <0>         0.0000
     33 H14        14.4850   -2.2660   23.4490 H         1 <0>         0.0000
     34 H15        13.6040   -0.7060   23.0900 H         1 <0>         0.0000
     35 N3         13.4010   -2.2670   20.7220 N.am      1 <0>         0.0000
     36 O3         15.0460   -0.7590   20.8000 O.2       1 <0>         0.0000
     37 C15        12.7310   -2.4980   22.0020 C.3       1 <0>         0.0000
     38 C16        13.8960   -1.6970   22.7360 C.3       1 <0>         0.0000
     39 C17        14.4520   -1.6660   21.3630 C.2       1 <0>         0.0000
     40 H16        13.0300   -1.7050   19.9480 H         1 <0>         0.0000
@<TRIPOS>BOND
     1    5   24 1
     2    5   15 ar
     3    1    5 ar
     4    1   20 1
     5    6   15 ar
     6    1    7 ar
     7    6   25 1
     8    6    9 ar
     9    7    9 ar
    10    7   13 1
    11   35   40 1
    12   13   28 1
    13    9   16 1
    14   13   27 1
    15   13   26 1
    16   35   39 am
    17   35   37 1
    18   36   39 2
    19   12   17 2
    20   38   39 1
    21   12   16 am
    22   16   31 1
    23   12   14 1
    24   18   37 1
    25   32   37 1
    26   37   38 1
    27   10   18 1
    28    4   23 1
    29    4   10 ar
    30    2   10 ar
    31    4   11 ar
    32    2   21 1
    33   34   38 1
    34   33   38 1
    35    2    8 ar
    36   11   19 1
    37    3   11 ar
    38    3    8 ar
    39    8   14 1
    40    3   22 1
    41   14   29 1
    42   14   30 1
@<TRIPOS>MOLECULE
*****
   42    44     0     0     0
SMALL
NO_CHARGES

@<TRIPOS>ATOM
      1 C1          5.3830    1.3880   19.2820 C.ar      1 <0>         0.0000
      2 C2         12.3700    2.2810   22.6930 C.ar      1 <0>         0.0000
      3 C3         12.3690   -0.1240   22.7840 C.ar      1 <0>         0.0000
      4 C4         14.4250    1.1490   22.6840 C.ar      1 <0>         0.0000
      5 C5          5.7430    0.6940   18.1490 C.ar      1 <0>         0.0000
      6 C6          7.6240   -0.0560   19.1800 C.ar      1 <0>         0.0000
      7 C7          6.0770    1.3270   20.4100 C.ar      1 <0>         0.0000
      8 C8         11.6560    1.0470   22.8000 C.ar      1 <0>         0.0000
      9 C9          7.2410    0.5910   20.3780 C.ar      1 <0>         0.0000
     10 C10        13.7480    2.3730   22.6360 C.ar      1 <0>         0.0000
     11 C11        13.7690   -0.1030   22.7430 C.ar      1 <0>         0.0000
     12 C12         9.4420    0.5240   21.6180 C.2       1 <0>         0.0000
     13 C13         5.7910    2.2040   21.6420 C.3       1 <0>         0.0000
     14 C14        10.1450    1.0260   22.8800 C.3       1 <0>         0.0000
     15 N1          6.8990   -0.0070   18.0350 N.ar      1 <0>         0.0000
     16 N2          8.1030    0.5850   21.5190 N.am      1 <0>         0.0000
     17 O1         10.0910    0.0640   20.6970 O.2       1 <0>         0.0000
     18 O2         14.3930    3.5900   22.4190 O.3       1 <0>         0.0000
     19 Cl1        14.8500   -1.4170   22.4460 Cl        1 <0>         0.0000
     20 H1          4.4440    1.9370   19.2320 H         1 <0>         0.0000
     21 H2         11.8780    3.2510   22.6310 H         1 <0>         0.0000
     22 H3         11.9340   -1.1120   22.8330 H         1 <0>         0.0000
     23 H4         15.4940    1.0090   22.5450 H         1 <0>         0.0000
     24 H5          5.0790    0.6150   17.2970 H         1 <0>         0.0000
     25 H6          8.5150   -0.6720   19.1480 H         1 <0>         0.0000
     26 H7          5.6280    1.6820   22.5840 H         1 <0>         0.0000
     27 H8          6.6250    2.9090   21.6800 H         1 <0>         0.0000
     28 H9          4.8550    2.7520   21.4770 H         1 <0>         0.0000
     29 H10         9.7870    0.4150   23.7130 H         1 <0>         0.0000
     30 H11         9.7140    1.9980   23.1270 H         1 <0>         0.0000
     31 H12         7.7330    0.9710   22.3970 H         1 <0>         0.0000
     32 C15        15.8850    3.5710   22.4090 C.3       1 <0>         0.0000
     33 C16        16.5380    4.9280   22.0180 C.3       1 <0>         0.0000
     34 C17        17.1610    4.1600   20.9020 C.3       1 <0>         0.0000
     35 H13        17.0200    2.1840   21.3790 H         1 <0>         0.0000
     36 H14        16.2100    3.1380   23.3560 H         1 <0>         0.0000
     37 H15        15.8210    5.6960   21.6920 H         1 <0>         0.0000
     38 H16        17.2710    5.3050   22.7370 H         1 <0>         0.0000
     39 N3         16.5000    3.0460   21.2000 N.3       1 <0>         0.0000
     40 O3         18.3010    4.1460   20.5540 O.3       1 <0>         0.0000
     41 H          17.1610    4.1600   20.9020 H         1 <0>         0.0000
     42 H          18.3010    4.1460   20.5540 H         1 <0>         0.0000
@<TRIPOS>BOND
     1    5   24 1
     2    5   15 ar
     3    6   15 ar
     4    1    5 ar
     5    6   25 1
     6    6    9 ar
     7    1   20 1
     8    1    7 ar
     9    7    9 ar
    10    9   16 1
    11    7   13 1
    12   34   40 1
    13   12   17 2
    14   34   39 1
    15   33   34 1
    16   35   39 1
    17   32   39 1
    18   13   28 1
    19   12   16 am
    20   16   31 1
    21   12   14 1
    22   13   27 1
    23   13   26 1
    24   33   37 1
    25   32   33 1
    26   33   38 1
    27   18   32 1
    28   32   36 1
    29   10   18 1
    30   11   19 1
    31    4   23 1
    32    2   21 1
    33    4   10 ar
    34    2   10 ar
    35    4   11 ar
    36    2    8 ar
    37    3   11 ar
    38    3    8 ar
    39    3   22 1
    40    8   14 1
    41   14   30 1
    42   14   29 1
    43   34   41 1
    44   40   42 1
@<TRIPOS>MOLECULE
*****
   40    42     0     0     0
SMALL
NO_CHARGES

@<TRIPOS>ATOM
      1 C1          5.7160    1.9380   19.8880 C.ar      1 <0>         0.0000
      2 C2         12.8880    1.6140   23.2410 C.ar      1 <0>         0.0000
      3 C3         13.0590   -0.5840   22.1900 C.ar      1 <0>         0.0000
      4 C4         15.0230    0.9440   22.2480 C.ar      1 <0>         0.0000
      5 C5          6.1710    1.5420   18.5980 C.ar      1 <0>         0.0000
      6 C6          8.1470    0.6820   19.4850 C.ar      1 <0>         0.0000
      7 C7          6.4500    1.5250   21.0260 C.ar      1 <0>         0.0000
      8 C8         12.2600    0.4320   22.8040 C.ar      1 <0>         0.0000
      9 C9          7.6850    0.8450   20.7640 C.ar      1 <0>         0.0000
     10 C10        14.2910    1.9320   22.9740 C.ar      1 <0>         0.0000
     11 C11        14.4330   -0.2460   21.8650 C.ar      1 <0>         0.0000
     12 C12         9.7990    0.8020   22.0030 C.2       1 <0>         0.0000
     13 C13         5.8950    1.6320   22.4760 C.3       1 <0>         0.0000
     14 C14        10.7990    0.1630   22.9820 C.3       1 <0>         0.0000
     15 N1          7.3890    0.9830   18.3650 N.ar      1 <0>         0.0000
     16 N2          8.4790    0.3880   21.8350 N.am      1 <0>         0.0000
     17 O1         10.1260    1.7840   21.3470 O.2       1 <0>         0.0000
     18 O2         14.9590    3.0950   23.4240 O.3       1 <0>         0.0000
     19 Cl1        15.3610   -1.4790   20.9330 Cl        1 <0>         0.0000
     20 H1          4.7590    2.4410   19.9610 H         1 <0>         0.0000
     21 H2         12.1680    2.2090   23.7900 H         1 <0>         0.0000
     22 H3         12.6880   -1.5100   21.7730 H         1 <0>         0.0000
     23 H4         16.0880    1.0490   22.0730 H         1 <0>         0.0000
     24 H5          5.6620    1.8700   17.6930 H         1 <0>         0.0000
     25 H6          9.1390    0.3070   19.2770 H         1 <0>         0.0000
     26 H7          5.7540    2.7120   22.5640 H         1 <0>         0.0000
     27 H8          5.0150    1.0240   22.6930 H         1 <0>         0.0000
     28 H9          6.7100    1.3830   23.1600 H         1 <0>         0.0000
     29 H10        10.6290   -0.9170   22.9080 H         1 <0>         0.0000
     30 H11        10.5210    0.3370   24.0220 H         1 <0>         0.0000
     31 H12         8.1890   -0.3830   22.4350 H         1 <0>         0.0000
     32 C15        14.2720    4.1850   24.0020 C.3       1 <0>         0.0000
     33 C16        13.0090    4.7650   23.1430 C.3       1 <0>         0.0000
     34 C17        13.8840    6.0170   23.2490 C.2       1 <0>         0.0000
     35 H13        15.4780    5.9840   24.5130 H         1 <0>         0.0000
     36 H14        14.0130    3.9690   25.0480 H         1 <0>         0.0000
     37 H15        12.9190    4.3220   22.1530 H         1 <0>         0.0000
     38 H16        12.0120    4.7310   23.5850 H         1 <0>         0.0000
     39 N3         14.9100    5.4470   23.8460 N.am      1 <0>         0.0000
     40 O3         13.4970    7.1710   23.2110 O.2       1 <0>         0.0000
@<TRIPOS>BOND
     1    5   24 1
     2    5   15 ar
     3    6   15 ar
     4    1    5 ar
     5    6   25 1
     6    6    9 ar
     7    1   20 1
     8    1    7 ar
     9    7    9 ar
    10    9   16 1
    11   11   19 1
    12    7   13 1
    13   12   17 2
    14    3   22 1
    15   12   16 am
    16   16   31 1
    17    3   11 ar
    18    4   11 ar
    19   12   14 1
    20    4   23 1
    21   33   37 1
    22    3    8 ar
    23    4   10 ar
    24   13   26 1
    25   13   27 1
    26   13   28 1
    27    8   14 1
    28    2    8 ar
    29   14   29 1
    30    2   10 ar
    31   10   18 1
    32   14   30 1
    33   33   34 1
    34   33   38 1
    35   32   33 1
    36   34   40 2
    37    2   21 1
    38   34   39 am
    39   18   32 1
    40   32   39 1
    41   35   39 1
    42   32   36 1
@<TRIPOS>MOLECULE
*****
   40    42     0     0     0
SMALL
NO_CHARGES

@<TRIPOS>ATOM
      1 C1          4.8850    1.9500   20.0090 C.ar      1 <0>         0.0000
      2 C2          9.5260   -1.7660   22.6400 C.ar      1 <0>         0.0000
      3 C3          9.5680   -3.8450   21.3920 C.ar      1 <0>         0.0000
      4 C4         11.5220   -2.3790   21.4760 C.ar      1 <0>         0.0000
      5 C5          5.1070    1.7170   18.6390 C.ar      1 <0>         0.0000
      6 C6          5.8440   -0.4060   19.1720 C.ar      1 <0>         0.0000
      7 C7          5.1490    0.9880   20.9680 C.ar      1 <0>         0.0000
      8 C8          8.8710   -2.8950   22.1970 C.ar      1 <0>         0.0000
      9 C9          5.7400   -0.1760   20.5150 C.ar      1 <0>         0.0000
     10 C10        10.9460   -1.4870   22.3310 C.ar      1 <0>         0.0000
     11 C11        10.9090   -3.5490   21.0040 C.ar      1 <0>         0.0000
     12 C12         6.5240   -2.3930   21.4320 C.2       1 <0>         0.0000
     13 C13         4.8740    1.3010   22.4700 C.3       1 <0>         0.0000
     14 C14         7.3980   -3.0810   22.4480 C.3       1 <0>         0.0000
     15 N1          5.4750    0.4810   18.2830 N.ar      1 <0>         0.0000
     16 N2          6.3150   -0.9690   21.5020 N.am      1 <0>         0.0000
     17 O1          5.9480   -3.0710   20.6190 O.2       1 <0>         0.0000
     18 O2         11.5140   -0.3520   22.9150 O.3       1 <0>         0.0000
     19 Cl1        11.7240   -4.6350   19.9170 Cl        1 <0>         0.0000
     20 H1          4.5070    2.9400   20.2590 H         1 <0>         0.0000
     21 H2          9.0050   -1.0660   23.2730 H         1 <0>         0.0000
     22 H3          9.0740   -4.7390   21.0280 H         1 <0>         0.0000
     23 H4         12.5400   -2.2840   21.0910 H         1 <0>         0.0000
     24 H5          4.7950    2.5090   17.9630 H         1 <0>         0.0000
     25 H6          6.4420   -1.2820   18.9280 H         1 <0>         0.0000
     26 H7          5.7970    1.6880   22.9260 H         1 <0>         0.0000
     27 H8          4.0800    2.0570   22.5180 H         1 <0>         0.0000
     28 H9          4.6370    0.3990   23.0310 H         1 <0>         0.0000
     29 H10         7.1740   -4.1440   22.2970 H         1 <0>         0.0000
     30 H11         7.2490   -2.8000   23.4880 H         1 <0>         0.0000
     31 H12         6.6140   -0.4790   22.3460 H         1 <0>         0.0000
     32 H13        13.4640   -0.7710   22.3890 H         1 <0>         0.0000
     33 H14        12.2430   -1.6520   25.0800 H         1 <0>         0.0000
     34 H15        13.7990   -2.1860   24.3230 H         1 <0>         0.0000
     35 N3         13.5460    0.6670   23.9290 N.am      1 <0>         0.0000
     36 O3         13.9090    0.4080   26.1200 O.2       1 <0>         0.0000
     37 C15        12.8900   -0.4560   23.2550 C.3       1 <0>         0.0000
     38 C16        13.1530   -1.3350   24.5650 C.3       1 <0>         0.0000
     39 C17        13.8240   -0.0560   24.9760 C.2       1 <0>         0.0000
     40 H16        13.1020    1.5640   24.0910 H         1 <0>         0.0000
@<TRIPOS>BOND
     1    5   24 1
     2    5   15 ar
     3    6   15 ar
     4    1    5 ar
     5    6   25 1
     6    6    9 ar
     7   11   19 1
     8    1   20 1
     9    1    7 ar
    10    7    9 ar
    11    9   16 1
    12   12   17 2
    13    7   13 1
    14    3   11 ar
    15    4   11 ar
    16    3   22 1
    17    4   23 1
    18    3    8 ar
    19   12   16 am
    20   12   14 1
    21    4   10 ar
    22   16   31 1
    23    8   14 1
    24    2    8 ar
    25   14   29 1
    26    2   10 ar
    27   10   18 1
    28   32   37 1
    29   14   30 1
    30   13   27 1
    31   13   26 1
    32   13   28 1
    33    2   21 1
    34   18   37 1
    35   35   37 1
    36   37   38 1
    37   35   40 1
    38   35   39 am
    39   34   38 1
    40   38   39 1
    41   33   38 1
    42   36   39 2
@<TRIPOS>MOLECULE
*****
   40    42     0     0     0
SMALL
NO_CHARGES

@<TRIPOS>ATOM
      1 C1          5.4720    1.7270   20.2920 C.ar      1 <0>         0.0000
      2 C2         12.6050    1.3020   24.2050 C.ar      1 <0>         0.0000
      3 C3         12.5360   -0.3830   22.5260 C.ar      1 <0>         0.0000
      4 C4         14.6170    0.8250   22.8300 C.ar      1 <0>         0.0000
      5 C5          6.1050    1.6390   19.0540 C.ar      1 <0>         0.0000
      6 C6          7.8920    0.6410   20.0560 C.ar      1 <0>         0.0000
      7 C7          6.1590    1.5310   21.4780 C.ar      1 <0>         0.0000
      8 C8         11.8960    0.3330   23.5350 C.ar      1 <0>         0.0000
      9 C9          7.3840    0.8190   21.3590 C.ar      1 <0>         0.0000
     10 C10        13.9620    1.5690   23.9050 C.ar      1 <0>         0.0000
     11 C11        13.8820   -0.2060   22.2240 C.ar      1 <0>         0.0000
     12 C12         9.5610    0.7540   22.6170 C.2       1 <0>         0.0000
     13 C13         5.4860    1.6680   22.7670 C.3       1 <0>         0.0000
     14 C14        10.3510    0.1840   23.7420 C.3       1 <0>         0.0000
     15 N1          7.3450    1.1500   18.9540 N.ar      1 <0>         0.0000
     16 N2          8.1670    0.5350   22.5030 N.am      1 <0>         0.0000
     17 O1         10.0680    1.6110   21.8820 O.2       1 <0>         0.0000
     18 O2         14.5700    2.5150   24.7180 O.3       1 <0>         0.0000
     19 Cl1        14.6780   -1.0690   20.9440 Cl        1 <0>         0.0000
     20 H1          4.4710    2.1650   20.2920 H         1 <0>         0.0000
     21 H2         12.1310    1.7960   25.0330 H         1 <0>         0.0000
     22 H3         11.9760   -1.1570   21.9930 H         1 <0>         0.0000
     23 H4         15.6780    0.9720   22.6730 H         1 <0>         0.0000
     24 H5          5.5830    1.8570   18.1260 H         1 <0>         0.0000
     25 H6          8.8920    0.2430   19.9410 H         1 <0>         0.0000
     26 H7          4.5860    2.2580   22.5790 H         1 <0>         0.0000
     27 H8          5.2040    0.7020   23.1940 H         1 <0>         0.0000
     28 H9          6.1850    2.2600   23.3850 H         1 <0>         0.0000
     29 H10        10.1470   -0.8930   23.7430 H         1 <0>         0.0000
     30 H11        10.1200    0.7440   24.6490 H         1 <0>         0.0000
     31 H12         7.7510    0.2150   23.3730 H         1 <0>         0.0000
     32 H13        16.0060    3.8270   22.7900 H         1 <0>         0.0000
     33 H14        14.6940    4.8770   22.2770 H         1 <0>         0.0000
     34 N3         14.6760    4.9280   25.2220 N.am      1 <0>         0.0000
     35 O3         16.6740    5.9280   24.4670 O.2       1 <0>         0.0000
     36 C15        14.2720    3.8720   24.2800 C.3       1 <0>         0.0000
     37 C16        15.1980    4.4550   23.1530 C.3       1 <0>         0.0000
     38 C17        15.5290    5.3780   24.3140 C.2       1 <0>         0.0000
     39 H15        14.8110    4.8610   26.2340 H         1 <0>         0.0000
     40 H16        13.1850    3.8600   24.1060 H         1 <0>         0.0000
@<TRIPOS>BOND
     1    5   24 1
     2    5   15 ar
     3    6   15 ar
     4    1    5 ar
     5    6   25 1
     6    6    9 ar
     7    1   20 1
     8    1    7 ar
     9   11   19 1
    10    7    9 ar
    11    9   16 1
    12    7   13 1
    13   12   17 2
    14    3   22 1
    15    3   11 ar
    16    4   11 ar
    17   33   37 1
    18   12   16 am
    19   16   31 1
    20    3    8 ar
    21   13   26 1
    22   12   14 1
    23    4   23 1
    24   13   27 1
    25   13   28 1
    26   32   37 1
    27    4   10 ar
    28   36   37 1
    29   37   38 1
    30    8   14 1
    31    2    8 ar
    32   14   29 1
    33   14   30 1
    34    2   10 ar
    35   10   18 1
    36   36   40 1
    37    2   21 1
    38   18   36 1
    39   34   36 1
    40   35   38 2
    41   34   38 am
    42   34   39 1
@<TRIPOS>MOLECULE
*****
   42    44     0     0     0
SMALL
NO_CHARGES

@<TRIPOS>ATOM
      1 C1          4.6810    1.3490   19.4020 C.ar      1 <0>         0.0000
      2 C2         11.5680    1.7100   23.5670 C.ar      1 <0>         0.0000
      3 C3         11.7950   -0.6210   22.7760 C.ar      1 <0>         0.0000
      4 C4         13.7490    0.8450   23.0710 C.ar      1 <0>         0.0000
      5 C5          5.2760    1.2620   18.1190 C.ar      1 <0>         0.0000
      6 C6          7.2060    0.6680   19.1600 C.ar      1 <0>         0.0000
      7 C7          5.3110    1.0480   20.6190 C.ar      1 <0>         0.0000
      8 C8         11.0040    0.5180   23.1610 C.ar      1 <0>         0.0000
      9 C9          6.6950    0.7670   20.4910 C.ar      1 <0>         0.0000
     10 C10        12.9540    1.9430   23.4490 C.ar      1 <0>         0.0000
     11 C11        13.1800   -0.3720   22.6210 C.ar      1 <0>         0.0000
     12 C12         8.8050    0.6840   21.8450 C.2       1 <0>         0.0000
     13 C13         4.7000    1.1060   22.0200 C.3       1 <0>         0.0000
     14 C14         9.4760    0.4210   23.1880 C.3       1 <0>         0.0000
     15 N1          6.5080    0.8490   18.0320 N.ar      1 <0>         0.0000
     16 N2          7.4610    0.6360   21.6610 N.am      1 <0>         0.0000
     17 O1          9.4280    1.0840   20.9210 O.2       1 <0>         0.0000
     18 O2         13.6060    3.0670   23.7360 O.3       1 <0>         0.0000
     19 Cl1        14.2070   -1.5600   21.8610 Cl        1 <0>         0.0000
     20 H1          3.6290    1.6200   19.3580 H         1 <0>         0.0000
     21 H2         10.9020    2.4700   23.9780 H         1 <0>         0.0000
     22 H3         11.2930   -1.5280   22.4310 H         1 <0>         0.0000
     23 H4         14.8290    0.8950   23.0270 H         1 <0>         0.0000
     24 H5          4.6780    1.5810   17.2710 H         1 <0>         0.0000
     25 H6          8.2490    0.3780   19.0740 H         1 <0>         0.0000
     26 H7          5.2090    1.8030   22.6880 H         1 <0>         0.0000
     27 H8          3.6630    1.4100   21.8270 H         1 <0>         0.0000
     28 H9          4.6150    0.1140   22.4650 H         1 <0>         0.0000
     29 H10         9.2000   -0.5540   23.5990 H         1 <0>         0.0000
     30 H11         9.0630    1.1300   23.9140 H         1 <0>         0.0000
     31 H12         6.8920    0.3380   22.4650 H         1 <0>         0.0000
     32 H13        15.1490    5.2230   23.9050 H         1 <0>         0.0000
     33 N3         12.3510    4.9520   24.5790 N.3       1 <0>         0.0000
     34 O3         13.8300    5.8580   26.0410 O.3       1 <0>         0.0000
     35 C15        13.1130    4.3510   23.4160 C.3       1 <0>         0.0000
     36 C16        14.1320    5.5450   23.6650 C.3       1 <0>         0.0000
     37 C17        13.3120    5.8150   24.9220 C.3       1 <0>         0.0000
     38 H14        12.0450    4.3760   25.3650 H         1 <0>         0.0000
     39 H15        12.5570    4.3430   22.4760 H         1 <0>         0.0000
     40 H16        14.1160    6.3810   22.9540 H         1 <0>         0.0000
     41 H          13.8300    5.8580   26.0410 H         1 <0>         0.0000
     42 H          13.3120    5.8150   24.9220 H         1 <0>         0.0000
@<TRIPOS>BOND
     1    5   24 1
     2    5   15 ar
     3    6   15 ar
     4    1    5 ar
     5    6   25 1
     6    6    9 ar
     7    1   20 1
     8    1    7 ar
     9    7    9 ar
    10    9   16 1
    11    7   13 1
    12   12   17 2
    13   12   16 am
    14   16   31 1
    15   13   27 1
    16   12   14 1
    17   11   19 1
    18   13   28 1
    19   13   26 1
    20    3   22 1
    21   35   39 1
    22    3   11 ar
    23    4   11 ar
    24    3    8 ar
    25   36   40 1
    26    4   23 1
    27    4   10 ar
    28    8   14 1
    29    2    8 ar
    30   14   29 1
    31   14   30 1
    32   35   36 1
    33   18   35 1
    34   33   35 1
    35    2   10 ar
    36   10   18 1
    37    2   21 1
    38   32   36 1
    39   36   37 1
    40   33   37 1
    41   33   38 1
    42   34   37 1
    43   34   41 1
    44   37   42 1
@<TRIPOS>MOLECULE
*****
   40    42     0     0     0
SMALL
NO_CHARGES

@<TRIPOS>ATOM
      1 C1          4.9510    1.5630   18.8660 C.ar      1 <0>         0.0000
      2 C2         11.5670    0.9280   22.9260 C.ar      1 <0>         0.0000
      3 C3         12.0180   -1.0570   21.6470 C.ar      1 <0>         0.0000
      4 C4         13.8440    0.2740   22.3940 C.ar      1 <0>         0.0000
      5 C5          5.3970    1.4500   17.4880 C.ar      1 <0>         0.0000
      6 C6          7.3920    0.6120   18.2770 C.ar      1 <0>         0.0000
      7 C7          5.7150    1.1000   19.9090 C.ar      1 <0>         0.0000
      8 C8         11.0880   -0.1900   22.2660 C.ar      1 <0>         0.0000
      9 C9          6.9650    0.5940   19.6060 C.ar      1 <0>         0.0000
     10 C10        12.9530    1.2450   22.9560 C.ar      1 <0>         0.0000
     11 C11        13.3560   -0.8480   21.7370 C.ar      1 <0>         0.0000
     12 C12         8.8690    0.3550   21.1340 C.2       1 <0>         0.0000
     13 C13         5.2260    1.1710   21.3010 C.3       1 <0>         0.0000
     14 C14         9.5130   -0.5040   22.2100 C.3       1 <0>         0.0000
     15 N1          6.6770    1.1100   17.2200 N.ar      1 <0>         0.0000
     16 N2          7.7170   -0.0260   20.6200 N.am      1 <0>         0.0000
     17 O1          9.3060    1.4150   20.7720 O.2       1 <0>         0.0000
     18 O2         13.5050    2.4130   23.5440 O.3       1 <0>         0.0000
     19 Cl1        14.4570   -1.9510   20.9750 Cl        1 <0>         0.0000
     20 H1          3.9470    1.9410   19.0360 H         1 <0>         0.0000
     21 H2         10.8550    1.6140   23.3750 H         1 <0>         0.0000
     22 H3         11.7140   -1.9910   21.1940 H         1 <0>         0.0000
     23 H4         14.9120    0.4280   22.5220 H         1 <0>         0.0000
     24 H5          4.7100    1.7350   16.6960 H         1 <0>         0.0000
     25 H6          8.4060    0.2180   18.2120 H         1 <0>         0.0000
     26 H7          4.4860    1.9800   21.3080 H         1 <0>         0.0000
     27 H8          4.6270    0.2670   21.4910 H         1 <0>         0.0000
     28 H9          5.9990    1.4090   22.0410 H         1 <0>         0.0000
     29 H10         9.3920   -1.5650   21.9830 H         1 <0>         0.0000
     30 H11         8.9950   -0.3120   23.1510 H         1 <0>         0.0000
     31 H12         7.2720   -0.5790   21.3570 H         1 <0>         0.0000
     32 H13        12.0990    3.5230   24.7080 H         1 <0>         0.0000
     33 H14        10.8920    4.4970   22.8750 H         1 <0>         0.0000
     34 H15        11.9520    3.7140   21.5840 H         1 <0>         0.0000
     35 N3         13.5460    4.7350   23.7930 N.am      1 <0>         0.0000
     36 O3         12.6910    6.4720   22.5530 O.2       1 <0>         0.0000
     37 C15        12.6970    3.6020   23.7950 C.3       1 <0>         0.0000
     38 C16        11.8920    4.1790   22.5710 C.3       1 <0>         0.0000
     39 C17        12.8940    5.2790   22.7590 C.2       1 <0>         0.0000
     40 H16        13.5850    5.3740   24.5880 H         1 <0>         0.0000
@<TRIPOS>BOND
     1    5   24 1
     2    5   15 ar
     3    6   15 ar
     4    1    5 ar
     5    6   25 1
     6    6    9 ar
     7    1   20 1
     8    1    7 ar
     9    7    9 ar
    10    9   16 1
    11    7   13 1
    12   12   16 am
    13   16   31 1
    14   12   17 2
    15   11   19 1
    16   12   14 1
    17    3   22 1
    18   13   26 1
    19   13   27 1
    20   13   28 1
    21   34   38 1
    22    3   11 ar
    23    3    8 ar
    24    4   11 ar
    25   14   29 1
    26    8   14 1
    27   14   30 1
    28    2    8 ar
    29    4   23 1
    30    4   10 ar
    31   36   39 2
    32   38   39 1
    33   33   38 1
    34   37   38 1
    35   35   39 am
    36    2   10 ar
    37    2   21 1
    38   10   18 1
    39   18   37 1
    40   35   37 1
    41   35   40 1
    42   32   37 1
@<TRIPOS>MOLECULE
*****
   42    44     0     0     0
SMALL
NO_CHARGES

@<TRIPOS>ATOM
      1 C1          4.9860    1.5600   19.2140 C.ar      1 <0>         0.0000
      2 C2         11.9230    1.5470   22.9230 C.ar      1 <0>         0.0000
      3 C3         12.4190   -0.6040   21.9360 C.ar      1 <0>         0.0000
      4 C4         14.1820    0.9440   22.4340 C.ar      1 <0>         0.0000
      5 C5          5.5710    1.6230   17.9720 C.ar      1 <0>         0.0000
      6 C6          7.4620    0.6340   18.6800 C.ar      1 <0>         0.0000
      7 C7          5.6680    0.9800   20.2500 C.ar      1 <0>         0.0000
      8 C8         11.4330    0.2840   22.4090 C.ar      1 <0>         0.0000
      9 C9          6.9780    0.6190   20.0100 C.ar      1 <0>         0.0000
     10 C10        13.2790    1.8800   22.8360 C.ar      1 <0>         0.0000
     11 C11        13.8240   -0.3050   21.9350 C.ar      1 <0>         0.0000
     12 C12         9.1290    0.4960   21.1340 C.2       1 <0>         0.0000
     13 C13         4.9770    0.7720   21.5540 C.3       1 <0>         0.0000
     14 C14         9.9530   -0.1000   22.2610 C.3       1 <0>         0.0000
     15 N1          6.7420    1.0810   17.6530 N.ar      1 <0>         0.0000
     16 N2          7.8500    0.0860   20.9760 N.am      1 <0>         0.0000
     17 O1          9.6270    1.4770   20.5490 O.2       1 <0>         0.0000
     18 O2         13.6780    3.1570   23.0740 O.3       1 <0>         0.0000
     19 Cl1        14.9900   -1.3580   21.1970 Cl        1 <0>         0.0000
     20 H1          3.9750    1.9050   19.3800 H         1 <0>         0.0000
     21 H2         11.1180    2.2300   23.1790 H         1 <0>         0.0000
     22 H3         12.1360   -1.5240   21.4260 H         1 <0>         0.0000
     23 H4         15.2420    1.1940   22.4390 H         1 <0>         0.0000
     24 H5          4.9150    2.1540   17.2860 H         1 <0>         0.0000
     25 H6          8.4740    0.3490   18.4170 H         1 <0>         0.0000
     26 H7          5.1480   -0.2340   21.9450 H         1 <0>         0.0000
     27 H8          5.4310    1.4460   22.2760 H         1 <0>         0.0000
     28 H9          3.8910    0.8020   21.4480 H         1 <0>         0.0000
     29 H10         9.9080   -1.1890   22.1870 H         1 <0>         0.0000
     30 H11         9.5000    0.2250   23.1990 H         1 <0>         0.0000
     31 H12         7.4370   -0.6680   21.5390 H         1 <0>         0.0000
     32 H13        11.8820    3.7440   22.0660 H         1 <0>         0.0000
     33 H14        14.5300    5.3280   22.0620 H         1 <0>         0.0000
     34 H15        13.1690    5.8330   21.0270 H         1 <0>         0.0000
     35 N3         12.1960    5.0710   23.7350 N.3       1 <0>         0.0000
     36 O3         12.2100    7.2090   23.0090 O.3       1 <0>         0.0000
     37 C15        12.7030    4.1140   22.6800 C.3       1 <0>         0.0000
     38 C16        13.4500    5.4080   22.0020 C.3       1 <0>         0.0000
     39 C17        12.7840    6.1120   23.1500 C.3       1 <0>         0.0000
     40 H16        11.2070    5.0860   23.9790 H         1 <0>         0.0000
     41 H          12.2100    7.2090   23.0090 H         1 <0>         0.0000
     42 H          12.7840    6.1120   23.1500 H         1 <0>         0.0000
@<TRIPOS>BOND
     1    5   24 1
     2    5   15 ar
     3    6   15 ar
     4    1    5 ar
     5    6   25 1
     6    6    9 ar
     7    1   20 1
     8    1    7 ar
     9    7    9 ar
    10    9   16 1
    11    7   13 1
    12   12   17 2
    13   12   16 am
    14   16   31 1
    15   34   38 1
    16   12   14 1
    17   11   19 1
    18    3   22 1
    19   13   28 1
    20   13   26 1
    21   13   27 1
    22    3   11 ar
    23    4   11 ar
    24    3    8 ar
    25   33   38 1
    26   37   38 1
    27   38   39 1
    28   32   37 1
    29   14   29 1
    30    8   14 1
    31   14   30 1
    32    2    8 ar
    33    4   23 1
    34    4   10 ar
    35   18   37 1
    36   35   37 1
    37    2   10 ar
    38   10   18 1
    39    2   21 1
    40   36   39 1
    41   35   39 1
    42   35   40 1
    43   36   41 1
    44   39   42 1
@<TRIPOS>MOLECULE
*****
   40    42     0     0     0
SMALL
NO_CHARGES

@<TRIPOS>ATOM
      1 C1          4.9000    0.2460   19.7720 C.ar      1 <0>         0.0000
      2 C2         12.3460    1.4340   23.3340 C.ar      1 <0>         0.0000
      3 C3         12.4640   -0.5600   22.0200 C.ar      1 <0>         0.0000
      4 C4         14.4940    0.6860   22.4230 C.ar      1 <0>         0.0000
      5 C5          5.4520    0.3010   18.4910 C.ar      1 <0>         0.0000
      6 C6          7.5040    0.2550   19.3300 C.ar      1 <0>         0.0000
      7 C7          5.7180    0.3100   20.8990 C.ar      1 <0>         0.0000
      8 C8         11.6570    0.3870   22.7080 C.ar      1 <0>         0.0000
      9 C9          7.0510    0.3030   20.6730 C.ar      1 <0>         0.0000
     10 C10        13.7750    1.6650   23.1300 C.ar      1 <0>         0.0000
     11 C11        13.8270   -0.4340   21.8460 C.ar      1 <0>         0.0000
     12 C12         9.2300    0.6340   21.9100 C.2       1 <0>         0.0000
     13 C13         5.0710    0.3050   22.2510 C.3       1 <0>         0.0000
     14 C14        10.2030   -0.0020   22.8930 C.3       1 <0>         0.0000
     15 N1          6.7080    0.3410   18.2380 N.ar      1 <0>         0.0000
     16 N2          7.9500    0.1170   21.7620 N.am      1 <0>         0.0000
     17 O1          9.5450    1.6310   21.2080 O.2       1 <0>         0.0000
     18 O2         14.4600    2.8070   23.6100 O.3       1 <0>         0.0000
     19 Cl1        14.6420   -1.5400   20.7360 Cl        1 <0>         0.0000
     20 H1          3.8390    0.0330   19.9070 H         1 <0>         0.0000
     21 H2         11.8340    2.1410   23.9820 H         1 <0>         0.0000
     22 H3         12.1020   -1.4320   21.4840 H         1 <0>         0.0000
     23 H4         15.5290    0.7370   22.1020 H         1 <0>         0.0000
     24 H5          4.7740    0.2490   17.6480 H         1 <0>         0.0000
     25 H6          8.5640    0.1940   19.0970 H         1 <0>         0.0000
     26 H7          4.1430    0.8860   22.1820 H         1 <0>         0.0000
     27 H8          4.8450   -0.7140   22.5840 H         1 <0>         0.0000
     28 H9          5.7730    0.7830   22.9410 H         1 <0>         0.0000
     29 H10        10.1210   -1.0930   22.8330 H         1 <0>         0.0000
     30 H11        10.0360    0.4370   23.8840 H         1 <0>         0.0000
     31 H12         7.7410   -0.5750   22.4840 H         1 <0>         0.0000
     32 H13        12.2770    5.0580   22.3940 H         1 <0>         0.0000
     33 H14        13.9560    4.6280   21.6920 H         1 <0>         0.0000
     34 N3         14.3010    5.0620   24.4780 N.am      1 <0>         0.0000
     35 O3         14.4160    7.0020   23.3330 O.2       1 <0>         0.0000
     36 C15        13.6570    3.9290   23.8320 C.3       1 <0>         0.0000
     37 C16        13.3360    4.8720   22.5600 C.3       1 <0>         0.0000
     38 C17        13.9810    5.8780   23.4820 C.2       1 <0>         0.0000
     39 H15        15.2750    4.9110   24.7760 H         1 <0>         0.0000
     40 H16        12.8160    3.6780   24.4880 H         1 <0>         0.0000
@<TRIPOS>BOND
     1    5   24 1
     2    5   15 ar
     3    6   15 ar
     4    1    5 ar
     5    6   25 1
     6    6    9 ar
     7    1   20 1
     8    1    7 ar
     9    7    9 ar
    10    9   16 1
    11   11   19 1
    12    7   13 1
    13   12   17 2
    14    3   22 1
    15   33   37 1
    16   12   16 am
    17   16   31 1
    18    3   11 ar
    19    4   11 ar
    20   12   14 1
    21    3    8 ar
    22    4   23 1
    23   13   26 1
    24   13   27 1
    25   13   28 1
    26   32   37 1
    27    4   10 ar
    28   37   38 1
    29   36   37 1
    30    8   14 1
    31    2    8 ar
    32   14   29 1
    33   14   30 1
    34    2   10 ar
    35   10   18 1
    36   35   38 2
    37    2   21 1
    38   34   38 am
    39   18   36 1
    40   34   36 1
    41   36   40 1
    42   34   39 1
@<TRIPOS>MOLECULE
*****
   40    42     0     0     0
SMALL
NO_CHARGES

@<TRIPOS>ATOM
      1 C1          4.1350    2.1360   19.7630 C.ar      1 <0>         0.0000
      2 C2         11.1200    1.2380   23.9950 C.ar      1 <0>         0.0000
      3 C3         11.0340   -0.8740   22.8400 C.ar      1 <0>         0.0000
      4 C4         13.1610    0.0720   23.5450 C.ar      1 <0>         0.0000
      5 C5          4.6060    1.9340   18.4900 C.ar      1 <0>         0.0000
      6 C6          6.5060    0.9780   19.4870 C.ar      1 <0>         0.0000
      7 C7          4.8040    1.8180   20.9090 C.ar      1 <0>         0.0000
      8 C8         10.3430    0.2120   23.4250 C.ar      1 <0>         0.0000
      9 C9          6.0590    1.1890   20.7770 C.ar      1 <0>         0.0000
     10 C10        12.5560    1.1380   24.1650 C.ar      1 <0>         0.0000
     11 C11        12.4270   -0.9440   22.9320 C.ar      1 <0>         0.0000
     12 C12         8.1210    0.7610   22.0500 C.2       1 <0>         0.0000
     13 C13         4.2320    2.1390   22.3070 C.3       1 <0>         0.0000
     14 C14         8.7990    0.3120   23.3730 C.3       1 <0>         0.0000
     15 N1          5.8510    1.3360   18.3380 N.ar      1 <0>         0.0000
     16 N2          6.7530    0.9120   21.9400 N.am      1 <0>         0.0000
     17 O1          8.8310    1.3770   21.2590 O.2       1 <0>         0.0000
     18 O2         13.2510    2.0930   24.8850 O.3       1 <0>         0.0000
     19 Cl1        13.2930   -2.3800   22.3230 Cl        1 <0>         0.0000
     20 H1          3.1940    2.6650   19.8480 H         1 <0>         0.0000
     21 H2         10.7280    2.1050   24.5190 H         1 <0>         0.0000
     22 H3         10.4420   -1.6610   22.3910 H         1 <0>         0.0000
     23 H4         14.2230   -0.1090   23.6710 H         1 <0>         0.0000
     24 H5          3.9890    2.2400   17.6510 H         1 <0>         0.0000
     25 H6          7.3780    0.3700   19.2910 H         1 <0>         0.0000
     26 H7          3.4660    2.9190   22.1990 H         1 <0>         0.0000
     27 H8          3.8140    1.2360   22.7530 H         1 <0>         0.0000
     28 H9          4.9380    2.5540   23.0430 H         1 <0>         0.0000
     29 H10         8.3280   -0.6400   23.6340 H         1 <0>         0.0000
     30 H11         8.5300    1.0370   24.1560 H         1 <0>         0.0000
     31 H12         6.2170    0.5860   22.7470 H         1 <0>         0.0000
     32 H13        15.6890    1.7620   23.5340 H         1 <0>         0.0000
     33 H14        15.5060    3.0310   22.2610 H         1 <0>         0.0000
     34 N3         14.6180    4.0940   24.7150 N.am      1 <0>         0.0000
     35 O3         16.9190    3.7250   24.7000 O.2       1 <0>         0.0000
     36 C15        13.8590    3.1290   23.9990 C.3       1 <0>         0.0000
     37 C16        15.2280    2.7240   23.2750 C.3       1 <0>         0.0000
     38 C17        15.7790    3.6980   24.1990 C.2       1 <0>         0.0000
     39 H15        14.4630    4.3080   25.6970 H         1 <0>         0.0000
     40 H16        13.1240    3.5440   23.3100 H         1 <0>         0.0000
@<TRIPOS>BOND
     1    5   24 1
     2    5   15 ar
     3    6   15 ar
     4    1    5 ar
     5    6   25 1
     6    6    9 ar
     7    1   20 1
     8    1    7 ar
     9    7    9 ar
    10    9   16 1
    11    7   13 1
    12   12   17 2
    13   12   16 am
    14   16   31 1
    15   12   14 1
    16   13   26 1
    17   33   37 1
    18   13   27 1
    19   13   28 1
    20   11   19 1
    21    3   22 1
    22    3   11 ar
    23    3    8 ar
    24    4   11 ar
    25   32   37 1
    26   36   37 1
    27   37   38 1
    28   36   40 1
    29    8   14 1
    30   14   29 1
    31   14   30 1
    32    2    8 ar
    33    4   23 1
    34    4   10 ar
    35    2   10 ar
    36    2   21 1
    37   34   36 1
    38   18   36 1
    39   10   18 1
    40   35   38 2
    41   34   38 am
    42   34   39 1
@<TRIPOS>MOLECULE
*****
   40    42     0     0     0
SMALL
NO_CHARGES

@<TRIPOS>ATOM
      1 C1          4.6730    1.7680   18.1270 C.ar      1 <0>         0.0000
      2 C2         11.1440    1.4260   22.9560 C.ar      1 <0>         0.0000
      3 C3         11.2890   -0.7930   21.9920 C.ar      1 <0>         0.0000
      4 C4         13.3250    0.3550   22.5880 C.ar      1 <0>         0.0000
      5 C5          5.3950    1.3990   17.0500 C.ar      1 <0>         0.0000
      6 C6          7.1270    0.6360   18.2850 C.ar      1 <0>         0.0000
      7 C7          5.2330    1.5510   19.4280 C.ar      1 <0>         0.0000
      8 C8         10.5520    0.2840   22.4370 C.ar      1 <0>         0.0000
      9 C9          6.5390    1.0420   19.4960 C.ar      1 <0>         0.0000
     10 C10        12.5510    1.5050   23.0600 C.ar      1 <0>         0.0000
     11 C11        12.6500   -0.7500   22.0300 C.ar      1 <0>         0.0000
     12 C12         8.4630    0.8280   21.0120 C.2       1 <0>         0.0000
     13 C13         4.5490    1.8520   20.7210 C.3       1 <0>         0.0000
     14 C14         9.0570    0.2240   22.2530 C.3       1 <0>         0.0000
     15 N1          6.5560    0.8130   17.0890 N.ar      1 <0>         0.0000
     16 N2          7.0930    0.6360   20.6960 N.am      1 <0>         0.0000
     17 O1          9.2430    1.5060   20.3530 O.2       1 <0>         0.0000
     18 O2         13.2300    2.5180   23.6310 O.3       1 <0>         0.0000
     19 Cl1        13.4890   -2.1360   21.4680 Cl        1 <0>         0.0000
     20 H1          3.6620    2.1420   18.0240 H         1 <0>         0.0000
     21 H2         10.5480    2.2600   23.2990 H         1 <0>         0.0000
     22 H3         10.9010   -1.7440   21.6590 H         1 <0>         0.0000
     23 H4         14.4020    0.2980   22.7170 H         1 <0>         0.0000
     24 H5          4.9180    1.6210   16.0970 H         1 <0>         0.0000
     25 H6          8.0560    0.0810   18.4190 H         1 <0>         0.0000
     26 H7          3.4960    2.0790   20.5540 H         1 <0>         0.0000
     27 H8          4.6360    1.0110   21.4220 H         1 <0>         0.0000
     28 H9          5.1140    2.7010   21.1180 H         1 <0>         0.0000
     29 H10         8.7370   -0.8110   22.1670 H         1 <0>         0.0000
     30 H11         8.5580    0.6770   23.1240 H         1 <0>         0.0000
     31 H12         6.5340    0.3080   21.4840 H         1 <0>         0.0000
     32 H13        11.6620    4.8470   21.8230 H         1 <0>         0.0000
     33 H14        12.7760    3.6060   21.0740 H         1 <0>         0.0000
     34 N3         13.9310    4.7470   23.5490 N.am      1 <0>         0.0000
     35 O3         14.7990    5.4190   21.5920 O.2       1 <0>         0.0000
     36 C15        12.8100    3.8200   23.3700 C.3       1 <0>         0.0000
     37 C16        12.6130    4.3100   21.8920 C.3       1 <0>         0.0000
     38 C17        13.8300    5.1330   22.2500 C.2       1 <0>         0.0000
     39 H15        14.9190    4.5980   23.7330 H         1 <0>         0.0000
     40 H16        11.9440    4.1070   23.9860 H         1 <0>         0.0000
@<TRIPOS>BOND
     1    5   24 1
     2    5   15 ar
     3    1    5 ar
     4    6   15 ar
     5    1   20 1
     6    1    7 ar
     7    6   25 1
     8    6    9 ar
     9    7    9 ar
    10    7   13 1
    11    9   16 1
    12   12   17 2
    13   13   26 1
    14   12   16 am
    15   16   31 1
    16   13   28 1
    17   13   27 1
    18   12   14 1
    19   33   37 1
    20   11   19 1
    21   35   38 2
    22    3   22 1
    23   32   37 1
    24   37   38 1
    25   36   37 1
    26    3   11 ar
    27    3    8 ar
    28    4   11 ar
    29   14   29 1
    30   34   38 am
    31    8   14 1
    32   14   30 1
    33    2    8 ar
    34    4   23 1
    35    4   10 ar
    36    2   10 ar
    37    2   21 1
    38   10   18 1
    39   34   36 1
    40   18   36 1
    41   36   40 1
    42   34   39 1
@<TRIPOS>MOLECULE
*****
   40    42     0     0     0
SMALL
NO_CHARGES

@<TRIPOS>ATOM
      1 C1          7.0890   -2.7070   21.5140 C.ar      1 <0>         0.0000
      2 C2         12.8220    1.6420   23.9600 C.ar      1 <0>         0.0000
      3 C3         12.7050   -0.8470   23.9440 C.ar      1 <0>         0.0000
      4 C4         14.5210    0.3350   22.9280 C.ar      1 <0>         0.0000
      5 C5          7.2320   -3.9040   22.1130 C.ar      1 <0>         0.0000
      6 C6          8.5630   -3.0290   23.7140 C.ar      1 <0>         0.0000
      7 C7          7.7020   -1.5870   22.0090 C.ar      1 <0>         0.0000
      8 C8         12.1240    0.4400   24.3510 C.ar      1 <0>         0.0000
      9 C9          8.5700   -1.7340   23.1500 C.ar      1 <0>         0.0000
     10 C10        14.0490    1.5910   23.2520 C.ar      1 <0>         0.0000
     11 C11        13.9550   -0.8990   23.3540 C.ar      1 <0>         0.0000
     12 C12         9.8820   -0.6110   24.9500 C.2       1 <0>         0.0000
     13 C13         7.5650   -0.2620   21.2190 C.3       1 <0>         0.0000
     14 C14        10.9540    0.4010   25.2550 C.3       1 <0>         0.0000
     15 N1          7.9300   -4.0900   23.2070 N.ar      1 <0>         0.0000
     16 N2          9.3820   -0.6730   23.6800 N.am      1 <0>         0.0000
     17 O1          9.4620   -1.3230   25.8620 O.2       1 <0>         0.0000
     18 O2         14.8050    2.7120   22.8150 O.3       1 <0>         0.0000
     19 Cl1        14.7130   -2.3810   22.8270 Cl        1 <0>         0.0000
     20 H1          6.4680   -2.6710   20.6260 H         1 <0>         0.0000
     21 H2         12.5260    2.6100   24.3520 H         1 <0>         0.0000
     22 H3         12.3020   -1.8440   24.1270 H         1 <0>         0.0000
     23 H4         15.3930    0.2380   22.2870 H         1 <0>         0.0000
     24 H5          6.6950   -4.7350   21.6600 H         1 <0>         0.0000
     25 H6          9.1020   -3.2570   24.6320 H         1 <0>         0.0000
     26 H7          7.0200    0.4660   21.8240 H         1 <0>         0.0000
     27 H8          8.6140    0.0210   21.0820 H         1 <0>         0.0000
     28 H9          7.1450   -0.3010   20.2150 H         1 <0>         0.0000
     29 H10        11.3440    0.2230   26.2640 H         1 <0>         0.0000
     30 H11        10.4320    1.3540   25.1870 H         1 <0>         0.0000
     31 H12         9.6320    0.0650   23.0210 H         1 <0>         0.0000
     32 H13        15.8150    5.6150   23.5540 H         1 <0>         0.0000
     33 H14        14.1230    3.9160   24.3170 H         1 <0>         0.0000
     34 H15        12.8180    3.9850   21.5940 H         1 <0>         0.0000
     35 H16        12.4500    5.1090   22.9610 H         1 <0>         0.0000
     36 N3         15.2920    5.0220   22.9070 N.am      1 <0>         0.0000
     37 O3         14.3320    6.7880   21.8910 O.2       1 <0>         0.0000
     38 C15        14.3850    3.9620   23.2560 C.3       1 <0>         0.0000
     39 C16        13.2240    4.5870   22.4030 C.3       1 <0>         0.0000
     40 C17        14.3660    5.5830   22.1260 C.2       1 <0>         0.0000
@<TRIPOS>BOND
     1   13   28 1
     2    1   20 1
     3   13   27 1
     4   13   26 1
     5    7   13 1
     6    1    7 ar
     7    1    5 ar
     8   34   39 1
     9    5   24 1
    10   37   40 2
    11    7    9 ar
    12    5   15 ar
    13   39   40 1
    14   36   40 am
    15    4   23 1
    16   35   39 1
    17   38   39 1
    18   10   18 1
    19   18   38 1
    20   11   19 1
    21   36   38 1
    22   32   36 1
    23    4   10 ar
    24    4   11 ar
    25   16   31 1
    26    9   16 1
    27    6    9 ar
    28    6   15 ar
    29    2   10 ar
    30   33   38 1
    31    3   11 ar
    32   12   16 am
    33    6   25 1
    34    3   22 1
    35    3    8 ar
    36    2    8 ar
    37    2   21 1
    38    8   14 1
    39   12   14 1
    40   12   17 2
    41   14   30 1
    42   14   29 1
@<TRIPOS>MOLECULE
*****
   40    42     0     0     0
SMALL
NO_CHARGES

@<TRIPOS>ATOM
      1 C1          5.4210    1.0690   19.8130 C.ar      1 <0>         0.0000
      2 C2         12.6760    0.8260   23.9810 C.ar      1 <0>         0.0000
      3 C3         12.4750   -1.1370   22.6200 C.ar      1 <0>         0.0000
      4 C4         14.6090   -0.2390   23.1050 C.ar      1 <0>         0.0000
      5 C5          6.0230    0.7260   18.5390 C.ar      1 <0>         0.0000
      6 C6          7.9800    0.0970   19.5680 C.ar      1 <0>         0.0000
      7 C7          6.1640    0.8440   21.0100 C.ar      1 <0>         0.0000
      8 C8         11.8950   -0.0810   23.3100 C.ar      1 <0>         0.0000
      9 C9          7.4990    0.3380   20.8980 C.ar      1 <0>         0.0000
     10 C10        14.0710    0.8430   23.8410 C.ar      1 <0>         0.0000
     11 C11        13.8490   -1.1540   22.4550 C.ar      1 <0>         0.0000
     12 C12         9.6580    0.4100   22.1890 C.2       1 <0>         0.0000
     13 C13         5.5280    1.1180   22.3750 C.3       1 <0>         0.0000
     14 C14        10.3630   -0.0750   23.4250 C.3       1 <0>         0.0000
     15 N1          7.3010    0.2610   18.5100 N.ar      1 <0>         0.0000
     16 N2          8.3050    0.1620   22.0630 N.am      1 <0>         0.0000
     17 O1         10.2170    0.8810   21.2360 O.2       1 <0>         0.0000
     18 O2         14.8450    1.7940   24.4760 O.3       1 <0>         0.0000
     19 Cl1        14.5910   -2.4640   21.4830 Cl        1 <0>         0.0000
     20 H1          4.4280    1.5100   19.8160 H         1 <0>         0.0000
     21 H2         12.2640    1.5380   24.6820 H         1 <0>         0.0000
     22 H3         11.8840   -1.8930   22.1080 H         1 <0>         0.0000
     23 H4         15.6900   -0.2840   22.9600 H         1 <0>         0.0000
     24 H5          5.4350    0.9660   17.6650 H         1 <0>         0.0000
     25 H6          9.0110   -0.0930   19.3030 H         1 <0>         0.0000
     26 H7          5.5840    0.2510   23.0360 H         1 <0>         0.0000
     27 H8          6.0320    1.9490   22.8700 H         1 <0>         0.0000
     28 H9          4.4580    1.3450   22.2780 H         1 <0>         0.0000
     29 H10         9.9430   -0.9790   23.8630 H         1 <0>         0.0000
     30 H11        10.2380    0.6500   24.2350 H         1 <0>         0.0000
     31 H12         7.7380    0.0910   22.9100 H         1 <0>         0.0000
     32 H13        12.9820    4.0550   23.0110 H         1 <0>         0.0000
     33 H14        14.2630    2.9340   22.2220 H         1 <0>         0.0000
     34 N3         15.5980    4.0660   24.4210 N.am      1 <0>         0.0000
     35 O3         15.8360    5.0860   22.3830 O.2       1 <0>         0.0000
     36 C15        14.4580    3.1840   24.4180 C.3       1 <0>         0.0000
     37 C16        14.0220    3.6900   22.9790 C.3       1 <0>         0.0000
     38 C17        15.1470    4.5970   23.2160 C.2       1 <0>         0.0000
     39 H15        16.5380    3.6900   24.3730 H         1 <0>         0.0000
     40 H16        13.7260    3.5190   25.1600 H         1 <0>         0.0000
@<TRIPOS>BOND
     1    5   24 1
     2    5   15 ar
     3    6   15 ar
     4    1    5 ar
     5    6   25 1
     6    6    9 ar
     7    1   20 1
     8    1    7 ar
     9    7    9 ar
    10    9   16 1
    11    7   13 1
    12   12   17 2
    13   11   19 1
    14   12   16 am
    15   16   31 1
    16    3   22 1
    17   12   14 1
    18   33   37 1
    19   13   28 1
    20   13   27 1
    21   13   26 1
    22   35   38 2
    23    3   11 ar
    24    4   11 ar
    25    3    8 ar
    26    4   23 1
    27   32   37 1
    28   37   38 1
    29   36   37 1
    30    4   10 ar
    31   34   38 am
    32    8   14 1
    33    2    8 ar
    34   14   29 1
    35   14   30 1
    36    2   10 ar
    37   10   18 1
    38    2   21 1
    39   34   39 1
    40   34   36 1
    41   18   36 1
    42   36   40 1
@<TRIPOS>MOLECULE
*****
   40    42     0     0     0
SMALL
NO_CHARGES

@<TRIPOS>ATOM
      1 C1          5.7100    1.6120   19.0670 C.ar      1 <0>         0.0000
      2 C2          9.1480   -1.7080   23.6790 C.ar      1 <0>         0.0000
      3 C3         11.0020   -1.3560   22.1310 C.ar      1 <0>         0.0000
      4 C4         10.9460   -0.1490   24.1730 C.ar      1 <0>         0.0000
      5 C5          5.6150    1.0840   17.7920 C.ar      1 <0>         0.0000
      6 C6          6.9230   -0.7020   18.2560 C.ar      1 <0>         0.0000
      7 C7          6.5370    0.9340   19.9750 C.ar      1 <0>         0.0000
      8 C8          9.7790   -2.0430   22.4810 C.ar      1 <0>         0.0000
      9 C9          7.1490   -0.2490   19.6030 C.ar      1 <0>         0.0000
     10 C10         9.6910   -0.7200   24.5350 C.ar      1 <0>         0.0000
     11 C11        11.6010   -0.3680   22.9390 C.ar      1 <0>         0.0000
     12 C12         8.1280   -2.2740   20.6000 C.2       1 <0>         0.0000
     13 C13         6.7520    1.4780   21.3710 C.3       1 <0>         0.0000
     14 C14         9.0580   -3.0500   21.5160 C.3       1 <0>         0.0000
     15 N1          6.1950   -0.0250   17.4090 N.ar      1 <0>         0.0000
     16 N2          8.0210   -0.9350   20.4210 N.am      1 <0>         0.0000
     17 O1          7.3630   -2.9160   19.8550 O.2       1 <0>         0.0000
     18 O2          9.1440   -0.3320   25.7360 O.3       1 <0>         0.0000
     19 Cl1        13.0580    0.4450   22.4130 Cl        1 <0>         0.0000
     20 H1          5.3090    2.5830   19.3300 H         1 <0>         0.0000
     21 H2          8.1590   -2.1330   23.8120 H         1 <0>         0.0000
     22 H3         11.3510   -1.6710   21.1580 H         1 <0>         0.0000
     23 H4         11.3380    0.6900   24.7290 H         1 <0>         0.0000
     24 H5          5.0040    1.5890   17.0580 H         1 <0>         0.0000
     25 H6          7.3970   -1.6040   17.8830 H         1 <0>         0.0000
     26 H7          6.5630    2.5520   21.3850 H         1 <0>         0.0000
     27 H8          6.1100    0.9970   22.1190 H         1 <0>         0.0000
     28 H9          7.8270    1.3430   21.5560 H         1 <0>         0.0000
     29 H10         9.8700   -3.4890   20.9260 H         1 <0>         0.0000
     30 H11         8.5510   -3.9300   21.9490 H         1 <0>         0.0000
     31 H12         8.4460   -0.4140   21.1950 H         1 <0>         0.0000
     32 C15         7.7390   -0.3060   25.8450 C.3       1 <0>         0.0000
     33 C16         7.0680    0.9000   25.1800 C.3       1 <0>         0.0000
     34 C17         6.5470    1.0960   26.5340 C.2       1 <0>         0.0000
     35 H13         6.7030   -0.4980   27.7620 H         1 <0>         0.0000
     36 H14         7.2610   -1.2180   25.4730 H         1 <0>         0.0000
     37 H15         6.3460    0.8110   24.3620 H         1 <0>         0.0000
     38 H16         7.7180    1.7360   24.8960 H         1 <0>         0.0000
     39 N3          7.2270    0.1290   27.1370 N.am      1 <0>         0.0000
     40 O3          5.4340    1.5690   26.7960 O.2       1 <0>         0.0000
@<TRIPOS>BOND
     1    5   24 1
     2    5   15 ar
     3    6   15 ar
     4    1    5 ar
     5    6   25 1
     6    6    9 ar
     7    1   20 1
     8    1    7 ar
     9    7    9 ar
    10    9   16 1
    11   12   17 2
    12    7   13 1
    13   12   16 am
    14   16   31 1
    15   12   14 1
    16   14   29 1
    17    3   22 1
    18   13   26 1
    19   13   28 1
    20   13   27 1
    21   14   30 1
    22    8   14 1
    23    3    8 ar
    24    3   11 ar
    25   11   19 1
    26    2    8 ar
    27    4   11 ar
    28    2   21 1
    29    2   10 ar
    30    4   10 ar
    31    4   23 1
    32   33   37 1
    33   10   18 1
    34   33   38 1
    35   32   33 1
    36   33   34 1
    37   32   36 1
    38   18   32 1
    39   32   39 1
    40   34   40 2
    41   34   39 am
    42   35   39 1
@<TRIPOS>MOLECULE
*****
   42    44     0     0     0
SMALL
NO_CHARGES

@<TRIPOS>ATOM
      1 C1          4.7030    2.1780   20.5830 C.ar      1 <0>         0.0000
      2 C2         12.1970    1.6380   23.6290 C.ar      1 <0>         0.0000
      3 C3         12.0200   -0.6710   22.8500 C.ar      1 <0>         0.0000
      4 C4         14.1210    0.4830   22.9270 C.ar      1 <0>         0.0000
      5 C5          5.0560    1.8230   19.2850 C.ar      1 <0>         0.0000
      6 C6          7.0080    1.0270   20.0670 C.ar      1 <0>         0.0000
      7 C7          5.5840    1.8920   21.6500 C.ar      1 <0>         0.0000
      8 C8         11.4170    0.4780   23.3860 C.ar      1 <0>         0.0000
      9 C9          6.8060    1.3970   21.3770 C.ar      1 <0>         0.0000
     10 C10        13.5820    1.6650   23.4080 C.ar      1 <0>         0.0000
     11 C11        13.3780   -0.7060   22.6470 C.ar      1 <0>         0.0000
     12 C12         9.0820    1.0490   22.3880 C.2       1 <0>         0.0000
     13 C13         5.1060    2.0270   23.1020 C.3       1 <0>         0.0000
     14 C14         9.8720    0.5580   23.6110 C.3       1 <0>         0.0000
     15 N1          6.1810    1.1450   19.0170 N.ar      1 <0>         0.0000
     16 N2          7.7080    1.1510   22.3900 N.am      1 <0>         0.0000
     17 O1          9.6510    1.3220   21.3310 O.2       1 <0>         0.0000
     18 O2         14.3760    2.7990   23.5690 O.3       1 <0>         0.0000
     19 Cl1        14.0910   -2.1380   21.9080 Cl        1 <0>         0.0000
     20 H1          3.7110    2.5260   20.8410 H         1 <0>         0.0000
     21 H2         11.7260    2.5310   24.0070 H         1 <0>         0.0000
     22 H3         11.4930   -1.5520   22.5230 H         1 <0>         0.0000
     23 H4         15.1960    0.3490   22.8620 H         1 <0>         0.0000
     24 H5          4.4290    1.9740   18.4130 H         1 <0>         0.0000
     25 H6          7.8930    0.4380   19.8000 H         1 <0>         0.0000
     26 H7          5.1500    1.1300   23.7250 H         1 <0>         0.0000
     27 H8          5.6420    2.8510   23.5910 H         1 <0>         0.0000
     28 H9          4.0960    2.4540   23.1530 H         1 <0>         0.0000
     29 H10         9.4000   -0.3680   23.9300 H         1 <0>         0.0000
     30 H11         9.6880    1.3780   24.3120 H         1 <0>         0.0000
     31 H12         7.3270    1.2970   23.3310 H         1 <0>         0.0000
     32 O3         13.7630    6.8700   22.4650 O.3       1 <0>         0.0000
     33 C15        13.7260    4.1070   23.7390 C.3       1 <0>         0.0000
     34 C16        13.0230    4.6050   22.4210 C.3       1 <0>         0.0000
     35 C17        14.0640    5.6980   22.5440 C.3       1 <0>         0.0000
     36 H13        14.8230    5.8220   24.3930 H         1 <0>         0.0000
     37 H14        13.1450    4.1320   24.6710 H         1 <0>         0.0000
     38 H15        13.1890    3.9590   21.5500 H         1 <0>         0.0000
     39 H16        11.9890    4.9730   22.5220 H         1 <0>         0.0000
     40 N3         14.7320    5.1770   23.6100 N.3       1 <0>         0.0000
     41 H          13.7630    6.8700   22.4650 H         1 <0>         0.0000
     42 H          14.0640    5.6980   22.5440 H         1 <0>         0.0000
@<TRIPOS>BOND
     1    5   24 1
     2    5   15 ar
     3    6   15 ar
     4    1    5 ar
     5    6   25 1
     6    6    9 ar
     7    1   20 1
     8    1    7 ar
     9   12   17 2
    10    7    9 ar
    11    9   16 1
    12   34   38 1
    13    7   13 1
    14   11   19 1
    15   12   16 am
    16   12   14 1
    17   16   31 1
    18   34   39 1
    19   34   35 1
    20   33   34 1
    21   32   35 1
    22    3   22 1
    23   35   40 1
    24    3   11 ar
    25    4   11 ar
    26    3    8 ar
    27    4   23 1
    28    4   10 ar
    29   13   28 1
    30   13   27 1
    31   13   26 1
    32    8   14 1
    33    2    8 ar
    34   10   18 1
    35    2   10 ar
    36   18   33 1
    37   33   40 1
    38   36   40 1
    39   14   29 1
    40   14   30 1
    41    2   21 1
    42   33   37 1
    43   32   41 1
    44   35   42 1
@<TRIPOS>MOLECULE
*****
   40    42     0     0     0
SMALL
NO_CHARGES

@<TRIPOS>ATOM
      1 C1          5.9910    2.1070   19.1210 C.ar      1 <0>         0.0000
      2 C2          9.7160   -1.2710   23.2200 C.ar      1 <0>         0.0000
      3 C3         11.5330   -1.3440   21.7270 C.ar      1 <0>         0.0000
      4 C4         11.8020   -0.3380   23.9440 C.ar      1 <0>         0.0000
      5 C5          5.5980    1.5810   17.8760 C.ar      1 <0>         0.0000
      6 C6          6.9380   -0.2470   18.0660 C.ar      1 <0>         0.0000
      7 C7          6.9520    1.4390   19.8260 C.ar      1 <0>         0.0000
      8 C8         10.2570   -1.6900   22.0350 C.ar      1 <0>         0.0000
      9 C9          7.4300    0.2010   19.3660 C.ar      1 <0>         0.0000
     10 C10        10.4710   -0.5900   24.2210 C.ar      1 <0>         0.0000
     11 C11        12.3430   -0.7730   22.6790 C.ar      1 <0>         0.0000
     12 C12         8.3970   -1.9320   20.2430 C.2       1 <0>         0.0000
     13 C13         7.6100    2.1320   21.0900 C.3       1 <0>         0.0000
     14 C14         9.4800   -2.6050   21.1360 C.3       1 <0>         0.0000
     15 N1          6.1050    0.4240   17.3240 N.ar      1 <0>         0.0000
     16 N2          8.3160   -0.5570   20.1880 N.am      1 <0>         0.0000
     17 O1          7.6280   -2.5590   19.5410 O.2       1 <0>         0.0000
     18 O2          9.8330   -0.0450   25.3660 O.3       1 <0>         0.0000
     19 Cl1        14.0300   -0.3310   22.2510 Cl        1 <0>         0.0000
     20 H1          5.6170    3.0640   19.4720 H         1 <0>         0.0000
     21 H2          8.6500   -1.3860   23.4000 H         1 <0>         0.0000
     22 H3         11.9780   -1.6780   20.7900 H         1 <0>         0.0000
     23 H4         12.4090    0.3220   24.5650 H         1 <0>         0.0000
     24 H5          4.9220    2.1710   17.2630 H         1 <0>         0.0000
     25 H6          7.2460   -1.2180   17.7110 H         1 <0>         0.0000
     26 H7          8.5530    2.5320   20.7010 H         1 <0>         0.0000
     27 H8          6.9770    2.9500   21.4440 H         1 <0>         0.0000
     28 H9          7.6850    1.4190   21.9230 H         1 <0>         0.0000
     29 H10        10.1160   -3.0700   20.3750 H         1 <0>         0.0000
     30 H11         8.9910   -3.4240   21.6740 H         1 <0>         0.0000
     31 H12         8.7840   -0.1260   20.9770 H         1 <0>         0.0000
     32 H13        11.5710   -0.4090   26.3650 H         1 <0>         0.0000
     33 H14         9.0870   -2.0570   26.6810 H         1 <0>         0.0000
     34 H15        10.6160   -2.2890   27.6200 H         1 <0>         0.0000
     35 N3         10.0550    0.5430   27.5790 N.am      1 <0>         0.0000
     36 O3          8.3310   -0.4950   28.6670 O.2       1 <0>         0.0000
     37 C15        10.4960   -0.3000   26.5420 C.3       1 <0>         0.0000
     38 C16         9.9010   -1.5650   27.2260 C.3       1 <0>         0.0000
     39 C17         9.4480   -0.4910   28.1850 C.2       1 <0>         0.0000
     40 H16         9.4080    1.2840   27.3260 H         1 <0>         0.0000
@<TRIPOS>BOND
     1    5   24 1
     2    5   15 ar
     3    6   15 ar
     4    6   25 1
     5    1    5 ar
     6    6    9 ar
     7    1   20 1
     8    1    7 ar
     9    7    9 ar
    10    9   16 1
    11   12   17 2
    12    7   13 1
    13   12   16 am
    14   16   31 1
    15   12   14 1
    16   14   29 1
    17   13   26 1
    18    3   22 1
    19   13   27 1
    20   13   28 1
    21   14   30 1
    22    8   14 1
    23    3    8 ar
    24    3   11 ar
    25    2    8 ar
    26   11   19 1
    27    4   11 ar
    28    2   21 1
    29    2   10 ar
    30    4   10 ar
    31    4   23 1
    32   10   18 1
    33   18   37 1
    34   32   37 1
    35   37   38 1
    36   35   37 1
    37   33   38 1
    38   34   38 1
    39   38   39 1
    40   35   40 1
    41   35   39 am
    42   36   39 2
@<TRIPOS>MOLECULE
*****
   40    42     0     0     0
SMALL
NO_CHARGES

@<TRIPOS>ATOM
      1 C1          7.6800    1.8330   24.8770 C.ar      1 <0>         0.0000
      2 C2         12.9420   -0.0490   23.5880 C.ar      1 <0>         0.0000
      3 C3         13.4130   -2.3580   24.0180 C.ar      1 <0>         0.0000
      4 C4         14.5910   -0.6460   25.2510 C.ar      1 <0>         0.0000
      5 C5          6.6640    1.8380   23.8660 C.ar      1 <0>         0.0000
      6 C6          7.7600    0.2740   22.7020 C.ar      1 <0>         0.0000
      7 C7          8.7360    0.9580   24.8050 C.ar      1 <0>         0.0000
      8 C8         12.6700   -1.3870   23.2540 C.ar      1 <0>         0.0000
      9 C9          8.7870    0.1340   23.6730 C.ar      1 <0>         0.0000
     10 C10        13.8880    0.3680   24.5440 C.ar      1 <0>         0.0000
     11 C11        14.3370   -1.9740   25.0440 C.ar      1 <0>         0.0000
     12 C12        10.5210   -0.8550   22.2110 C.2       1 <0>         0.0000
     13 C13         9.8860    1.0620   25.7870 C.3       1 <0>         0.0000
     14 C14        11.7340   -1.7550   22.1580 C.3       1 <0>         0.0000
     15 N1          6.6810    1.0610   22.7800 N.ar      1 <0>         0.0000
     16 N2          9.8650   -0.7200   23.4120 N.am      1 <0>         0.0000
     17 O1         10.1780   -0.2860   21.2030 O.2       1 <0>         0.0000
     18 O2         14.1050    1.6750   24.8070 O.3       1 <0>         0.0000
     19 Cl1        15.2470   -3.2970   25.7700 Cl        1 <0>         0.0000
     20 H1          7.6000    2.5620   25.6760 H         1 <0>         0.0000
     21 H2         12.3310    0.6480   23.0260 H         1 <0>         0.0000
     22 H3         13.2530   -3.3740   23.6680 H         1 <0>         0.0000
     23 H4         15.3820   -0.2980   25.9050 H         1 <0>         0.0000
     24 H5          5.8900    2.6050   23.9070 H         1 <0>         0.0000
     25 H6          7.7250   -0.3820   21.8380 H         1 <0>         0.0000
     26 H7         10.4930    1.9510   25.5890 H         1 <0>         0.0000
     27 H8          9.4640    1.1340   26.7990 H         1 <0>         0.0000
     28 H9         10.4810    0.1550   25.7090 H         1 <0>         0.0000
     29 H10        12.2800   -1.6120   21.2280 H         1 <0>         0.0000
     30 H11        11.4250   -2.8040   22.2930 H         1 <0>         0.0000
     31 H12        10.3520   -1.1390   24.2020 H         1 <0>         0.0000
     32 N3         14.0860    4.0780   24.4230 N.am      1 <0>         0.0000
     33 O3         15.7800    4.8230   23.0500 O.2       1 <0>         0.0000
     34 C15        13.5960    2.7220   24.0390 C.3       1 <0>         0.0000
     35 C16        14.3010    2.8610   22.6530 C.3       1 <0>         0.0000
     36 C17        14.8240    4.1320   23.3000 C.2       1 <0>         0.0000
     37 H13        14.4480    4.3190   25.3370 H         1 <0>         0.0000
     38 H14        12.5050    2.6650   23.9860 H         1 <0>         0.0000
     39 H15        13.5080    2.9940   21.9140 H         1 <0>         0.0000
     40 H16        15.0530    2.1090   22.4230 H         1 <0>         0.0000
@<TRIPOS>BOND
     1   12   17 2
     2   14   29 1
     3    6   25 1
     4   35   39 1
     5   12   14 1
     6   14   30 1
     7    8   14 1
     8   12   16 am
     9   35   40 1
    10   35   36 1
    11   34   35 1
    12    6   15 ar
    13    6    9 ar
    14    5   15 ar
    15    2   21 1
    16   33   36 2
    17    2    8 ar
    18    3    8 ar
    19   32   36 am
    20    9   16 1
    21   16   31 1
    22    2   10 ar
    23    3   22 1
    24    7    9 ar
    25    5   24 1
    26    1    5 ar
    27   34   38 1
    28    3   11 ar
    29   32   34 1
    30   18   34 1
    31   32   37 1
    32   10   18 1
    33    4   10 ar
    34    1    7 ar
    35    7   13 1
    36    1   20 1
    37    4   11 ar
    38   11   19 1
    39    4   23 1
    40   13   26 1
    41   13   28 1
    42   13   27 1
@<TRIPOS>MOLECULE
*****
   40    42     0     0     0
SMALL
NO_CHARGES

@<TRIPOS>ATOM
      1 C1          5.9450    2.4100   18.9270 C.ar      1 <0>         0.0000
      2 C2         10.2130   -0.8760   22.2880 C.ar      1 <0>         0.0000
      3 C3         10.7220   -3.0650   21.5060 C.ar      1 <0>         0.0000
      4 C4         12.5090   -1.5520   21.9640 C.ar      1 <0>         0.0000
      5 C5          6.0630    2.1110   17.5850 C.ar      1 <0>         0.0000
      6 C6          7.1390    0.1360   17.9590 C.ar      1 <0>         0.0000
      7 C7          6.4630    1.5430   19.8690 C.ar      1 <0>         0.0000
      8 C8          9.7880   -2.1590   21.9680 C.ar      1 <0>         0.0000
      9 C9          7.1040    0.3910   19.3670 C.ar      1 <0>         0.0000
     10 C10        11.5890   -0.5530   22.3110 C.ar      1 <0>         0.0000
     11 C11        12.0840   -2.7800   21.5500 C.ar      1 <0>         0.0000
     12 C12         7.7580   -1.7600   20.4440 C.2       1 <0>         0.0000
     13 C13         6.3290    1.7720   21.3940 C.3       1 <0>         0.0000
     14 C14         8.2810   -2.3900   21.7140 C.3       1 <0>         0.0000
     15 N1          6.6820    1.0420   17.0980 N.ar      1 <0>         0.0000
     16 N2          7.8210   -0.4070   20.2640 N.am      1 <0>         0.0000
     17 O1          7.1250   -2.4160   19.6000 O.2       1 <0>         0.0000
     18 O2         11.9340    0.7610   22.6860 O.3       1 <0>         0.0000
     19 Cl1        13.2830   -3.9060   21.0020 Cl        1 <0>         0.0000
     20 H1          5.3400    3.2300   19.2880 H         1 <0>         0.0000
     21 H2          9.4170   -0.1580   22.4550 H         1 <0>         0.0000
     22 H3         10.4530   -4.0260   21.0850 H         1 <0>         0.0000
     23 H4         13.5690   -1.3020   21.9470 H         1 <0>         0.0000
     24 H5          5.6520    2.8610   16.9250 H         1 <0>         0.0000
     25 H6          7.6330   -0.7810   17.6390 H         1 <0>         0.0000
     26 H7          6.5850    2.8370   21.4580 H         1 <0>         0.0000
     27 H8          5.3390    1.4820   21.7670 H         1 <0>         0.0000
     28 H9          7.0410    1.2120   22.0170 H         1 <0>         0.0000
     29 H10         8.1600   -3.4750   21.7170 H         1 <0>         0.0000
     30 H11         7.7290   -1.9440   22.5480 H         1 <0>         0.0000
     31 H12         8.2070    0.1480   21.0330 H         1 <0>         0.0000
     32 H13        15.2220    0.6720   23.1260 H         1 <0>         0.0000
     33 H14        13.8950    0.7010   24.4090 H         1 <0>         0.0000
     34 N3         13.3080    2.6930   22.4920 N.am      1 <0>         0.0000
     35 O3         14.2470    3.3230   24.4340 O.2       1 <0>         0.0000
     36 C15        13.2740    1.2930   22.3860 C.3       1 <0>         0.0000
     37 C16        14.2910    1.1200   23.4820 C.3       1 <0>         0.0000
     38 C17        14.1860    2.5870   23.4580 C.2       1 <0>         0.0000
     39 H15        12.5130    3.2640   22.7670 H         1 <0>         0.0000
     40 H16        13.7330    0.9710   21.4410 H         1 <0>         0.0000
@<TRIPOS>BOND
     1    5   24 1
     2    5   15 ar
     3    6   15 ar
     4    1    5 ar
     5    6   25 1
     6    6    9 ar
     7    1   20 1
     8    1    7 ar
     9    7    9 ar
    10    9   16 1
    11   12   17 2
    12    7   13 1
    13   12   16 am
    14   16   31 1
    15   12   14 1
    16   11   19 1
    17    3   22 1
    18   13   26 1
    19   13   27 1
    20   13   28 1
    21   36   40 1
    22    3   11 ar
    23    3    8 ar
    24    4   11 ar
    25   14   29 1
    26    8   14 1
    27   14   30 1
    28    4   23 1
    29    4   10 ar
    30    2    8 ar
    31    2   10 ar
    32    2   21 1
    33   10   18 1
    34   34   36 1
    35   18   36 1
    36   36   37 1
    37   34   39 1
    38   34   38 am
    39   32   37 1
    40   37   38 1
    41   35   38 2
    42   33   37 1
@<TRIPOS>MOLECULE
*****
   40    42     0     0     0
SMALL
NO_CHARGES

@<TRIPOS>ATOM
      1 C1          5.4400    1.2790   18.7150 C.ar      1 <0>         0.0000
      2 C2         12.3220    2.1500   23.1750 C.ar      1 <0>         0.0000
      3 C3         12.4400    0.0330   21.9690 C.ar      1 <0>         0.0000
      4 C4         14.4650    1.2960   22.4770 C.ar      1 <0>         0.0000
      5 C5          6.1600    0.8860   17.5750 C.ar      1 <0>         0.0000
      6 C6          8.0530    0.5420   18.8740 C.ar      1 <0>         0.0000
      7 C7          6.0210    1.2850   19.9630 C.ar      1 <0>         0.0000
      8 C8         11.6560    1.0590   22.6510 C.ar      1 <0>         0.0000
      9 C9          7.3710    1.0510   20.0520 C.ar      1 <0>         0.0000
     10 C10        13.7230    2.3630   23.0450 C.ar      1 <0>         0.0000
     11 C11        13.8380    0.1260   21.9490 C.ar      1 <0>         0.0000
     12 C12         9.4490    1.4980   21.4790 C.2       1 <0>         0.0000
     13 C13         5.1100    1.4860   21.2240 C.3       1 <0>         0.0000
     14 C14        10.1360    1.0340   22.7540 C.3       1 <0>         0.0000
     15 N1          7.4430    0.4420   17.6630 N.ar      1 <0>         0.0000
     16 N2          8.0900    1.3250   21.2540 N.am      1 <0>         0.0000
     17 O1         10.0230    2.1530   20.6720 O.2       1 <0>         0.0000
     18 O2         14.3090    3.5510   23.4720 O.3       1 <0>         0.0000
     19 Cl1        14.7500   -1.1640   21.1300 Cl        1 <0>         0.0000
     20 H1          4.3650    1.3530   18.6190 H         1 <0>         0.0000
     21 H2         11.6810    2.7910   23.7770 H         1 <0>         0.0000
     22 H3         11.8320   -0.8110   21.6620 H         1 <0>         0.0000
     23 H4         15.5230    1.4560   22.3070 H         1 <0>         0.0000
     24 H5          5.6850    0.7420   16.6070 H         1 <0>         0.0000
     25 H6          9.0900    0.2750   19.0670 H         1 <0>         0.0000
     26 H7          4.0680    1.2450   21.0270 H         1 <0>         0.0000
     27 H8          5.3540    0.7680   22.0230 H         1 <0>         0.0000
     28 H9          5.0410    2.4610   21.7020 H         1 <0>         0.0000
     29 H10         9.7710    0.0320   23.0270 H         1 <0>         0.0000
     30 H11         9.8750    1.7150   23.5750 H         1 <0>         0.0000
     31 H12         7.5680    1.1220   22.1040 H         1 <0>         0.0000
     32 H13        14.5680    6.6190   23.7680 H         1 <0>         0.0000
     33 H14        12.8210    4.8570   24.3730 H         1 <0>         0.0000
     34 H15        11.4840    5.1610   22.4600 H         1 <0>         0.0000
     35 H16        12.6560    4.1640   21.4880 H         1 <0>         0.0000
     36 N3         14.2340    5.9230   23.1120 N.am      1 <0>         0.0000
     37 O3         12.8920    7.3390   21.8490 O.2       1 <0>         0.0000
     38 C15        13.4490    4.7340   23.4880 C.3       1 <0>         0.0000
     39 C16        12.5390    4.9280   22.2520 C.3       1 <0>         0.0000
     40 C17        13.3470    6.1980   22.1280 C.2       1 <0>         0.0000
@<TRIPOS>BOND
     1    5   24 1
     2    5   15 ar
     3    1    5 ar
     4    6   15 ar
     5    1   20 1
     6    1    7 ar
     7    6   25 1
     8    6    9 ar
     9    7    9 ar
    10    7   13 1
    11    9   16 1
    12   12   17 2
    13   13   26 1
    14   11   19 1
    15   13   28 1
    16   13   27 1
    17   12   16 am
    18   16   31 1
    19   12   14 1
    20   35   39 1
    21    3   22 1
    22   37   40 2
    23    3   11 ar
    24    4   11 ar
    25    3    8 ar
    26   39   40 1
    27   36   40 am
    28   34   39 1
    29   38   39 1
    30    4   23 1
    31    4   10 ar
    32    8   14 1
    33    2    8 ar
    34   14   29 1
    35   14   30 1
    36    2   10 ar
    37   10   18 1
    38   36   38 1
    39   32   36 1
    40    2   21 1
    41   18   38 1
    42   33   38 1
@<TRIPOS>MOLECULE
*****
   40    42     0     0     0
SMALL
NO_CHARGES

@<TRIPOS>ATOM
      1 C1          6.0420    2.4900   19.7380 C.ar      1 <0>         0.0000
      2 C2         12.8450    1.8110   23.9530 C.ar      1 <0>         0.0000
      3 C3         12.4430   -0.4920   23.3440 C.ar      1 <0>         0.0000
      4 C4         14.6980    0.3470   23.3780 C.ar      1 <0>         0.0000
      5 C5          6.6150    1.9480   18.6070 C.ar      1 <0>         0.0000
      6 C6          8.3990    1.0940   19.7920 C.ar      1 <0>         0.0000
      7 C7          6.6970    2.3470   20.9680 C.ar      1 <0>         0.0000
      8 C8         11.9300    0.7740   23.6950 C.ar      1 <0>         0.0000
      9 C9          7.9020    1.5740   20.9980 C.ar      1 <0>         0.0000
     10 C10        14.2180    1.5980   23.7500 C.ar      1 <0>         0.0000
     11 C11        13.8260   -0.7630   23.2080 C.ar      1 <0>         0.0000
     12 C12         9.9160    1.3180   22.4180 C.2       1 <0>         0.0000
     13 C13         6.0450    2.9970   22.2030 C.3       1 <0>         0.0000
     14 C14        10.4230    0.9240   23.7940 C.3       1 <0>         0.0000
     15 N1          7.7810    1.2530   18.6420 N.ar      1 <0>         0.0000
     16 N2          8.5800    1.2880   22.2000 N.am      1 <0>         0.0000
     17 O1         10.6860    1.8210   21.5610 O.2       1 <0>         0.0000
     18 O2         15.2430    2.5220   23.8660 O.3       1 <0>         0.0000
     19 Cl1        14.5900   -2.3020   22.6590 Cl        1 <0>         0.0000
     20 H1          5.0940    3.0120   19.6290 H         1 <0>         0.0000
     21 H2         12.4520    2.7270   24.3960 H         1 <0>         0.0000
     22 H3         11.8560   -1.3430   23.0030 H         1 <0>         0.0000
     23 H4         15.7840    0.2570   23.3750 H         1 <0>         0.0000
     24 H5          6.0820    2.0000   17.6550 H         1 <0>         0.0000
     25 H6          9.3440    0.5610   19.7830 H         1 <0>         0.0000
     26 H7          6.2600    4.0740   22.1890 H         1 <0>         0.0000
     27 H8          4.9620    2.9360   22.0750 H         1 <0>         0.0000
     28 H9          6.3110    2.4280   23.0930 H         1 <0>         0.0000
     29 H10        10.0240   -0.0430   24.1220 H         1 <0>         0.0000
     30 H11        10.2170    1.6900   24.5410 H         1 <0>         0.0000
     31 H12         7.9720    0.9180   22.9410 H         1 <0>         0.0000
     32 H13        13.9540    4.0370   24.7840 H         1 <0>         0.0000
     33 H14        14.4740    3.9120   21.8060 H         1 <0>         0.0000
     34 H15        13.5850    5.2000   22.7060 H         1 <0>         0.0000
     35 N3         15.9170    4.6890   24.3170 N.am      1 <0>         0.0000
     36 O3         16.6520    5.6830   22.4750 O.2       1 <0>         0.0000
     37 C15        14.7560    3.8380   24.0560 C.3       1 <0>         0.0000
     38 C16        14.4600    4.5410   22.7020 C.3       1 <0>         0.0000
     39 C17        15.7230    5.2610   23.1310 C.2       1 <0>         0.0000
     40 H16        16.8980    4.4000   24.3180 H         1 <0>         0.0000
@<TRIPOS>BOND
     1    5   24 1
     2    5   15 ar
     3    1    5 ar
     4    6   15 ar
     5    1   20 1
     6    1    7 ar
     7    6   25 1
     8    6    9 ar
     9    7    9 ar
    10    7   13 1
    11    9   16 1
    12   12   17 2
    13   33   38 1
    14   13   27 1
    15   13   26 1
    16   12   16 am
    17   16   31 1
    18   13   28 1
    19   12   14 1
    20   36   39 2
    21   11   19 1
    22   34   38 1
    23   38   39 1
    24   37   38 1
    25    3   22 1
    26   35   39 am
    27    3   11 ar
    28    4   11 ar
    29    3    8 ar
    30    4   23 1
    31    4   10 ar
    32    8   14 1
    33    2    8 ar
    34   10   18 1
    35    2   10 ar
    36   14   29 1
    37   14   30 1
    38   18   37 1
    39    2   21 1
    40   35   37 1
    41   32   37 1
    42   35   40 1
@<TRIPOS>MOLECULE
*****
   40    42     0     0     0
SMALL
NO_CHARGES

@<TRIPOS>ATOM
      1 C1          4.7340    0.7910   19.5300 C.ar      1 <0>         0.0000
      2 C2         11.7270   -0.0790   24.0020 C.ar      1 <0>         0.0000
      3 C3         11.4680   -1.8730   22.3770 C.ar      1 <0>         0.0000
      4 C4         13.6650   -0.9590   22.9580 C.ar      1 <0>         0.0000
      5 C5          5.5150    0.8730   18.3820 C.ar      1 <0>         0.0000
      6 C6          7.2860   -0.1370   19.4140 C.ar      1 <0>         0.0000
      7 C7          5.3420    0.3150   20.7570 C.ar      1 <0>         0.0000
      8 C8         10.8950   -0.9560   23.2660 C.ar      1 <0>         0.0000
      9 C9          6.6720   -0.1170   20.6730 C.ar      1 <0>         0.0000
     10 C10        13.1250    0.0050   23.7710 C.ar      1 <0>         0.0000
     11 C11        12.8420   -1.8580   22.3190 C.ar      1 <0>         0.0000
     12 C12         8.6610   -0.2230   22.1810 C.2       1 <0>         0.0000
     13 C13         4.5350    0.4130   22.0250 C.3       1 <0>         0.0000
     14 C14         9.3830   -0.8010   23.3980 C.3       1 <0>         0.0000
     15 N1          6.7090    0.3110   18.2490 N.ar      1 <0>         0.0000
     16 N2          7.3570   -0.5510   21.8620 N.am      1 <0>         0.0000
     17 O1          9.2550    0.6170   21.5110 O.2       1 <0>         0.0000
     18 O2         14.0250    0.9290   24.3120 O.3       1 <0>         0.0000
     19 Cl1        13.8050   -3.0120   21.3210 Cl        1 <0>         0.0000
     20 H1          3.7310    1.2090   19.5710 H         1 <0>         0.0000
     21 H2         11.2370    0.5700   24.7250 H         1 <0>         0.0000
     22 H3         10.8760   -2.4430   21.6630 H         1 <0>         0.0000
     23 H4         14.7220   -0.8340   22.7590 H         1 <0>         0.0000
     24 H5          5.0020    1.2620   17.5160 H         1 <0>         0.0000
     25 H6          8.3090   -0.4650   19.2710 H         1 <0>         0.0000
     26 H7          3.5720    0.9300   21.9580 H         1 <0>         0.0000
     27 H8          4.3070   -0.5630   22.4780 H         1 <0>         0.0000
     28 H9          5.1510    0.9330   22.7710 H         1 <0>         0.0000
     29 H10         8.9000   -1.7890   23.3810 H         1 <0>         0.0000
     30 H11         9.1000   -0.1890   24.2470 H         1 <0>         0.0000
     31 H12         6.9030   -1.1100   22.5890 H         1 <0>         0.0000
     32 H13        15.3290    3.1290   24.4660 H         1 <0>         0.0000
     33 H14        12.6120    2.3070   25.2350 H         1 <0>         0.0000
     34 H15        11.6530    3.2440   23.2580 H         1 <0>         0.0000
     35 H16        12.6790    2.1670   22.3080 H         1 <0>         0.0000
     36 N3         14.3300    3.3390   24.4830 N.am      1 <0>         0.0000
     37 O3         14.4830    4.3040   22.5240 O.2       1 <0>         0.0000
     38 C15        13.3930    2.2220   24.4780 C.3       1 <0>         0.0000
     39 C16        12.6560    2.8180   23.1860 C.3       1 <0>         0.0000
     40 C17        13.8120    3.8150   23.4190 C.2       1 <0>         0.0000
@<TRIPOS>BOND
     1    5   24 1
     2    5   15 ar
     3    6   15 ar
     4    1    5 ar
     5    6   25 1
     6    6    9 ar
     7    1   20 1
     8    1    7 ar
     9    7    9 ar
    10    9   16 1
    11    7   13 1
    12   11   19 1
    13   12   17 2
    14    3   22 1
    15   12   16 am
    16   16   31 1
    17   13   26 1
    18   13   27 1
    19   13   28 1
    20   12   14 1
    21   35   39 1
    22    3   11 ar
    23    4   11 ar
    24    3    8 ar
    25   37   40 2
    26    4   23 1
    27    4   10 ar
    28   34   39 1
    29   39   40 1
    30   38   39 1
    31    8   14 1
    32    2    8 ar
    33   14   29 1
    34   14   30 1
    35   36   40 am
    36    2   10 ar
    37   10   18 1
    38    2   21 1
    39   18   38 1
    40   32   36 1
    41   36   38 1
    42   33   38 1
@<TRIPOS>MOLECULE
*****
   40    42     0     0     0
SMALL
NO_CHARGES

@<TRIPOS>ATOM
      1 C1          5.1330    1.5740   18.4340 C.ar      1 <0>         0.0000
      2 C2         11.1580    2.7200   23.7430 C.ar      1 <0>         0.0000
      3 C3         11.7020    0.4850   22.9840 C.ar      1 <0>         0.0000
      4 C4         13.4830    2.1130   23.4240 C.ar      1 <0>         0.0000
      5 C5          5.6380    0.5490   17.5990 C.ar      1 <0>         0.0000
      6 C6          7.3390    0.1510   19.0990 C.ar      1 <0>         0.0000
      7 C7          5.7470    1.8910   19.6100 C.ar      1 <0>         0.0000
      8 C8         10.7220    1.4450   23.3060 C.ar      1 <0>         0.0000
      9 C9          6.8500    1.1250   20.0570 C.ar      1 <0>         0.0000
     10 C10        12.5050    3.0440   23.8430 C.ar      1 <0>         0.0000
     11 C11        13.0400    0.8580   23.1490 C.ar      1 <0>         0.0000
     12 C12         8.7370    1.0680   21.6960 C.2       1 <0>         0.0000
     13 C13         5.2290    3.0320   20.4240 C.3       1 <0>         0.0000
     14 C14         9.2720    1.0790   23.1030 C.3       1 <0>         0.0000
     15 N1          6.7420   -0.1380   17.9230 N.ar      1 <0>         0.0000
     16 N2          7.3740    1.2530   21.4020 N.am      1 <0>         0.0000
     17 O1          9.5420    0.7080   20.8280 O.2       1 <0>         0.0000
     18 O2         13.0640    4.3080   24.1410 O.3       1 <0>         0.0000
     19 Cl1        14.3260   -0.3590   23.0080 Cl        1 <0>         0.0000
     20 H1          4.3730    2.1890   17.9620 H         1 <0>         0.0000
     21 H2         10.3500    3.3790   24.0690 H         1 <0>         0.0000
     22 H3         11.4760   -0.5560   22.8150 H         1 <0>         0.0000
     23 H4         14.5260    2.4080   23.3370 H         1 <0>         0.0000
     24 H5          5.0970    0.3650   16.6750 H         1 <0>         0.0000
     25 H6          8.1890   -0.4810   19.3350 H         1 <0>         0.0000
     26 H7          5.1090    3.9350   19.8200 H         1 <0>         0.0000
     27 H8          4.2020    2.8930   20.7730 H         1 <0>         0.0000
     28 H9          5.8970    3.2650   21.2570 H         1 <0>         0.0000
     29 H10         9.0420    0.0850   23.5090 H         1 <0>         0.0000
     30 H11         8.6550    1.8090   23.6510 H         1 <0>         0.0000
     31 H12         6.7810    1.6330   22.1360 H         1 <0>         0.0000
     32 H13        12.6500    4.9470   21.5490 H         1 <0>         0.0000
     33 H14        11.0860    5.8020   21.9530 H         1 <0>         0.0000
     34 N3         13.0330    6.7420   23.8300 N.am      1 <0>         0.0000
     35 O3         13.6280    7.5220   21.7710 O.2       1 <0>         0.0000
     36 C15        12.2710    5.4560   23.7390 C.3       1 <0>         0.0000
     37 C16        12.1450    5.6780   22.1790 C.3       1 <0>         0.0000
     38 C17        12.8970    6.9330   22.5300 C.2       1 <0>         0.0000
     39 H15        14.0070    6.7770   24.1340 H         1 <0>         0.0000
     40 H16        11.3840    5.5580   24.3530 H         1 <0>         0.0000
@<TRIPOS>BOND
     1    5   24 1
     2    5   15 ar
     3    1    5 ar
     4    6   15 ar
     5    1   20 1
     6    1    7 ar
     7    6   25 1
     8    6    9 ar
     9    7    9 ar
    10    7   13 1
    11   13   26 1
    12    9   16 1
    13   13   27 1
    14   13   28 1
    15   12   17 2
    16   12   16 am
    17   16   31 1
    18   32   37 1
    19   12   14 1
    20   35   38 2
    21   33   37 1
    22   37   38 1
    23   36   37 1
    24   34   38 am
    25    3   22 1
    26    3   11 ar
    27    3    8 ar
    28   11   19 1
    29    8   14 1
    30   14   29 1
    31   14   30 1
    32    4   11 ar
    33    2    8 ar
    34    4   23 1
    35    4   10 ar
    36   34   36 1
    37   18   36 1
    38   36   40 1
    39    2   10 ar
    40    2   21 1
    41   34   39 1
    42   10   18 1
@<TRIPOS>MOLECULE
*****
   40    42     0     0     0
SMALL
NO_CHARGES

@<TRIPOS>ATOM
      1 C1          6.0480    2.1800   20.4130 C.ar      1 <0>         0.0000
      2 C2         12.4980    2.2760   24.0690 C.ar      1 <0>         0.0000
      3 C3         12.3240    0.0220   23.1860 C.ar      1 <0>         0.0000
      4 C4         14.3440    1.1900   22.9570 C.ar      1 <0>         0.0000
      5 C5          6.2640    1.1570   19.5520 C.ar      1 <0>         0.0000
      6 C6          8.0190    0.4310   20.8360 C.ar      1 <0>         0.0000
      7 C7          6.8820    2.4080   21.4370 C.ar      1 <0>         0.0000
      8 C8         11.7730    1.0590   23.9510 C.ar      1 <0>         0.0000
      9 C9          7.8950    1.5210   21.7350 C.ar      1 <0>         0.0000
     10 C10        13.8490    2.3100   23.5850 C.ar      1 <0>         0.0000
     11 C11        13.6000    0.0540   22.6890 C.ar      1 <0>         0.0000
     12 C12         9.2500    0.6730   23.6600 C.2       1 <0>         0.0000
     13 C13         6.5180    3.5560   22.3300 C.3       1 <0>         0.0000
     14 C14        10.3860    0.8920   24.5760 C.3       1 <0>         0.0000
     15 N1          7.1810    0.2320   19.8340 N.ar      1 <0>         0.0000
     16 N2          8.6480    1.6900   22.8810 N.am      1 <0>         0.0000
     17 O1          8.6890   -0.4500   23.6610 O.2       1 <0>         0.0000
     18 O2         14.6950    3.3600   23.6840 O.3       1 <0>         0.0000
     19 Cl1        14.2200   -1.3230   21.7450 Cl        1 <0>         0.0000
     20 H1          5.1810    2.8360   20.3150 H         1 <0>         0.0000
     21 H2         12.0490    3.1300   24.5490 H         1 <0>         0.0000
     22 H3         11.7000   -0.8240   22.9140 H         1 <0>         0.0000
     23 H4         15.3660    1.2140   22.5950 H         1 <0>         0.0000
     24 H5          5.5530    1.1030   18.7250 H         1 <0>         0.0000
     25 H6          8.7870   -0.2880   21.1070 H         1 <0>         0.0000
     26 H7          5.6180    4.0820   21.9830 H         1 <0>         0.0000
     27 H8          6.2290    3.0870   23.2720 H         1 <0>         0.0000
     28 H9          7.3080    4.2690   22.6030 H         1 <0>         0.0000
     29 H10        10.4660    0.0400   25.2560 H         1 <0>         0.0000
     30 H11        10.1270    1.8190   25.1100 H         1 <0>         0.0000
     31 H12         9.0780    2.6100   23.0080 H         1 <0>         0.0000
     32 N3         15.1320    5.6220   24.2290 N.am      1 <0>         0.0000
     33 O3         14.1000    7.4810   23.4090 O.2       1 <0>         0.0000
     34 C15        14.1810    4.4830   24.4370 C.3       1 <0>         0.0000
     35 C16        13.0500    5.3220   23.6460 C.3       1 <0>         0.0000
     36 C17        14.2020    6.3060   23.5710 C.2       1 <0>         0.0000
     37 H13        15.7160    5.9960   24.9700 H         1 <0>         0.0000
     38 H14        13.8790    4.2010   25.4510 H         1 <0>         0.0000
     39 H15        12.1680    5.6740   24.1970 H         1 <0>         0.0000
     40 H16        12.7670    5.0160   22.6330 H         1 <0>         0.0000
@<TRIPOS>BOND
     1    5   24 1
     2    5   15 ar
     3    1    5 ar
     4    6   15 ar
     5    1   20 1
     6    1    7 ar
     7    6   25 1
     8    6    9 ar
     9    7    9 ar
    10    7   13 1
    11    9   16 1
    12   11   19 1
    13   13   26 1
    14   13   28 1
    15   13   27 1
    16    4   23 1
    17   35   40 1
    18    4   11 ar
    19    3   11 ar
    20   16   31 1
    21   12   16 am
    22    3   22 1
    23    4   10 ar
    24    3    8 ar
    25   33   36 2
    26   35   36 1
    27   32   36 am
    28   10   18 1
    29    2   10 ar
    30   35   39 1
    31   34   35 1
    32   12   17 2
    33   12   14 1
    34   18   34 1
    35    2    8 ar
    36    8   14 1
    37    2   21 1
    38   32   34 1
    39   32   37 1
    40   34   38 1
    41   14   30 1
    42   14   29 1
@<TRIPOS>MOLECULE
*****
   40    42     0     0     0
SMALL
NO_CHARGES

@<TRIPOS>ATOM
      1 C1          4.5700    1.1660   20.0310 C.ar      1 <0>         0.0000
      2 C2         12.0300    0.7280   23.6400 C.ar      1 <0>         0.0000
      3 C3         11.6770   -1.4140   22.5860 C.ar      1 <0>         0.0000
      4 C4         13.8900   -0.5930   23.0370 C.ar      1 <0>         0.0000
      5 C5          5.0490    1.1030   18.7220 C.ar      1 <0>         0.0000
      6 C6          7.1920    0.6020   19.3740 C.ar      1 <0>         0.0000
      7 C7          5.4410    0.8960   21.0940 C.ar      1 <0>         0.0000
      8 C8         11.1550   -0.2280   23.1180 C.ar      1 <0>         0.0000
      9 C9          6.8110    0.5300   20.7780 C.ar      1 <0>         0.0000
     10 C10        13.3840    0.5460   23.6490 C.ar      1 <0>         0.0000
     11 C11        13.0460   -1.6380   22.5440 C.ar      1 <0>         0.0000
     12 C12         9.0340    0.3050   21.8150 C.2       1 <0>         0.0000
     13 C13         4.8400    1.0240   22.4260 C.3       1 <0>         0.0000
     14 C14         9.6660    0.0190   23.1910 C.3       1 <0>         0.0000
     15 N1          6.2690    0.7890   18.3650 N.ar      1 <0>         0.0000
     16 N2          7.6560    0.0540   21.7640 N.am      1 <0>         0.0000
     17 O1          9.6850    0.8820   20.9470 O.2       1 <0>         0.0000
     18 O2         14.2600    1.5590   24.0230 O.3       1 <0>         0.0000
     19 Cl1        13.6680   -2.9620   21.6360 Cl        1 <0>         0.0000
     20 H1          3.5210    1.3920   20.1770 H         1 <0>         0.0000
     21 H2         11.5830    1.6060   24.1000 H         1 <0>         0.0000
     22 H3         11.0930   -2.1520   22.0510 H         1 <0>         0.0000
     23 H4         14.9640   -0.7150   22.9750 H         1 <0>         0.0000
     24 H5          4.3450    1.4490   17.9640 H         1 <0>         0.0000
     25 H6          8.1760    0.2950   19.0410 H         1 <0>         0.0000
     26 H7          5.4620    1.6380   23.0810 H         1 <0>         0.0000
     27 H8          3.8350    1.4530   22.4000 H         1 <0>         0.0000
     28 H9          4.8400    0.0440   22.9220 H         1 <0>         0.0000
     29 H10         9.3660   -0.9490   23.6150 H         1 <0>         0.0000
     30 H11         9.3310    0.8470   23.8080 H         1 <0>         0.0000
     31 H12         7.3510   -0.1580   22.7080 H         1 <0>         0.0000
     32 H13        13.2600    3.3460   21.9450 H         1 <0>         0.0000
     33 H14        12.4780    4.4780   23.1080 H         1 <0>         0.0000
     34 N3         15.0120    3.8590   24.2390 N.am      1 <0>         0.0000
     35 O3         15.3210    5.0310   22.2660 O.2       1 <0>         0.0000
     36 C15        13.8140    2.9300   24.1640 C.3       1 <0>         0.0000
     37 C16        13.3430    3.8410   22.9170 C.3       1 <0>         0.0000
     38 C17        14.6640    4.5160   23.1250 C.2       1 <0>         0.0000
     39 H15        15.9800    3.5590   24.3050 H         1 <0>         0.0000
     40 H16        13.1710    3.0850   25.0310 H         1 <0>         0.0000
@<TRIPOS>BOND
     1    5   24 1
     2    5   15 ar
     3    6   15 ar
     4    1    5 ar
     5    6   25 1
     6    6    9 ar
     7    1   20 1
     8    1    7 ar
     9    7    9 ar
    10    9   16 1
    11   12   17 2
    12    7   13 1
    13   11   19 1
    14   12   16 am
    15   16   31 1
    16   12   14 1
    17   32   37 1
    18    3   22 1
    19   35   38 2
    20   13   27 1
    21   13   28 1
    22   13   26 1
    23    3   11 ar
    24    4   11 ar
    25    3    8 ar
    26   33   37 1
    27   37   38 1
    28   36   37 1
    29    4   23 1
    30    4   10 ar
    31    8   14 1
    32    2    8 ar
    33   34   38 am
    34   14   29 1
    35   14   30 1
    36    2   10 ar
    37    2   21 1
    38   10   18 1
    39   18   36 1
    40   34   36 1
    41   36   40 1
    42   34   39 1
@<TRIPOS>MOLECULE
*****
   40    42     0     0     0
SMALL
NO_CHARGES

@<TRIPOS>ATOM
      1 C1          5.1390    1.2680   20.3220 C.ar      1 <0>         0.0000
      2 C2         12.2800    1.1890   24.3030 C.ar      1 <0>         0.0000
      3 C3         12.1750   -0.6100   22.7770 C.ar      1 <0>         0.0000
      4 C4         14.2140    0.5860   22.9960 C.ar      1 <0>         0.0000
      5 C5          5.7520    0.8550   19.1470 C.ar      1 <0>         0.0000
      6 C6          7.7520    0.3940   20.3240 C.ar      1 <0>         0.0000
      7 C7          5.8590    1.2020   21.5360 C.ar      1 <0>         0.0000
      8 C8         11.5770    0.2320   23.6460 C.ar      1 <0>         0.0000
      9 C9          7.2190    0.7730   21.5480 C.ar      1 <0>         0.0000
     10 C10        13.6040    1.4550   23.9630 C.ar      1 <0>         0.0000
     11 C11        13.4660   -0.4310   22.3590 C.ar      1 <0>         0.0000
     12 C12         9.2680    0.8500   22.7900 C.2       1 <0>         0.0000
     13 C13         5.1200    1.3590   22.8140 C.3       1 <0>         0.0000
     14 C14        10.1570    0.1830   23.8240 C.3       1 <0>         0.0000
     15 N1          7.0370    0.4240   19.1660 N.ar      1 <0>         0.0000
     16 N2          7.9500    0.5830   22.7110 N.am      1 <0>         0.0000
     17 O1          9.7460    1.6200   21.9350 O.2       1 <0>         0.0000
     18 O2         14.3330    2.5260   24.3900 O.3       1 <0>         0.0000
     19 Cl1        14.1700   -1.5550   21.1650 Cl        1 <0>         0.0000
     20 H1          4.0610    1.4310   20.4180 H         1 <0>         0.0000
     21 H2         11.7760    1.8130   25.0370 H         1 <0>         0.0000
     22 H3         11.5930   -1.3820   22.2730 H         1 <0>         0.0000
     23 H4         15.2750    0.7140   22.7800 H         1 <0>         0.0000
     24 H5          5.1050    0.8270   18.2780 H         1 <0>         0.0000
     25 H6          8.7060   -0.1050   20.3360 H         1 <0>         0.0000
     26 H7          4.6660    0.3910   23.0270 H         1 <0>         0.0000
     27 H8          5.6860    1.7260   23.6880 H         1 <0>         0.0000
     28 H9          4.3120    2.0970   22.7380 H         1 <0>         0.0000
     29 H10         9.9140   -0.8860   23.8170 H         1 <0>         0.0000
     30 H11         9.8510    0.5780   24.7950 H         1 <0>         0.0000
     31 H12         7.6020    0.2710   23.6200 H         1 <0>         0.0000
     32 H13        14.3890    5.5450   25.1990 H         1 <0>         0.0000
     33 H14        12.9710    3.7910   25.3850 H         1 <0>         0.0000
     34 H15        11.8030    4.3860   23.4560 H         1 <0>         0.0000
     35 H16        13.0010    3.4480   22.3340 H         1 <0>         0.0000
     36 N3         14.3830    4.8960   24.4190 N.am      1 <0>         0.0000
     37 O3         13.6120    6.4680   22.9840 O.2       1 <0>         0.0000
     38 C15        13.6130    3.7110   24.5020 C.3       1 <0>         0.0000
     39 C16        12.8300    4.1370   23.1700 C.3       1 <0>         0.0000
     40 C17        13.7640    5.3090   23.2670 C.2       1 <0>         0.0000
@<TRIPOS>BOND
     1    5   24 1
     2    5   15 ar
     3    1    5 ar
     4    6   15 ar
     5    1   20 1
     6    1    7 ar
     7    6   25 1
     8    6    9 ar
     9   11   19 1
    10    7    9 ar
    11    7   13 1
    12    9   16 1
    13   12   17 2
    14    3   22 1
    15   35   39 1
    16    3   11 ar
    17    4   11 ar
    18   12   16 am
    19   16   31 1
    20   13   28 1
    21    3    8 ar
    22    4   23 1
    23   12   14 1
    24   13   26 1
    25   13   27 1
    26   37   40 2
    27    4   10 ar
    28   39   40 1
    29   34   39 1
    30   38   39 1
    31   36   40 am
    32    8   14 1
    33    2    8 ar
    34   14   29 1
    35   14   30 1
    36    2   10 ar
    37   10   18 1
    38    2   21 1
    39   18   38 1
    40   36   38 1
    41   32   36 1
    42   33   38 1
@<TRIPOS>MOLECULE
*****
   42    44     0     0     0
SMALL
NO_CHARGES

@<TRIPOS>ATOM
      1 C1          4.2030    1.3140   18.6550 C.ar      1 <0>         0.0000
      2 C2         10.9240    1.1290   23.2410 C.ar      1 <0>         0.0000
      3 C3         11.0140   -0.9390   21.9390 C.ar      1 <0>         0.0000
      4 C4         13.0430    0.1270   22.6070 C.ar      1 <0>         0.0000
      5 C5          4.9120    1.2180   17.4990 C.ar      1 <0>         0.0000
      6 C6          6.8010    0.6380   18.5440 C.ar      1 <0>         0.0000
      7 C7          4.8790    1.0620   19.8770 C.ar      1 <0>         0.0000
      8 C8         10.2770    0.0870   22.6010 C.ar      1 <0>         0.0000
      9 C9          6.2510    0.7560   19.8090 C.ar      1 <0>         0.0000
     10 C10        12.3380    1.1550   23.3080 C.ar      1 <0>         0.0000
     11 C11        12.3890   -0.8740   21.9370 C.ar      1 <0>         0.0000
     12 C12         8.2890    0.6740   21.2670 C.2       1 <0>         0.0000
     13 C13         4.0840    1.0470   21.1840 C.3       1 <0>         0.0000
     14 C14         8.7950   -0.0350   22.4630 C.3       1 <0>         0.0000
     15 N1          6.1670    0.8920   17.4040 N.ar      1 <0>         0.0000
     16 N2          6.8940    0.6220   21.0390 N.am      1 <0>         0.0000
     17 O1          9.0660    1.1010   20.4240 O.2       1 <0>         0.0000
     18 O2         13.0870    2.1970   23.8680 O.3       1 <0>         0.0000
     19 Cl1        13.3900   -2.0740   21.1340 Cl        1 <0>         0.0000
     20 H1          3.1260    1.4370   18.6810 H         1 <0>         0.0000
     21 H2         10.4130    1.9680   23.7110 H         1 <0>         0.0000
     22 H3         10.5530   -1.7030   21.3220 H         1 <0>         0.0000
     23 H4         14.1200    0.2250   22.5900 H         1 <0>         0.0000
     24 H5          4.3380    1.4330   16.6070 H         1 <0>         0.0000
     25 H6          7.8260    0.3010   18.4260 H         1 <0>         0.0000
     26 H7          4.6560    1.5970   21.9310 H         1 <0>         0.0000
     27 H8          3.0740    1.4300   21.0400 H         1 <0>         0.0000
     28 H9          3.9930   -0.0200   21.3990 H         1 <0>         0.0000
     29 H10         8.3520   -1.0390   22.4360 H         1 <0>         0.0000
     30 H11         8.3040    0.5390   23.2560 H         1 <0>         0.0000
     31 H12         6.4000    0.4410   21.9040 H         1 <0>         0.0000
     32 H13        13.8870    5.1210   24.5230 H         1 <0>         0.0000
     33 H14        11.7250    3.6550   24.1780 H         1 <0>         0.0000
     34 H15        12.9820    3.1350   21.4780 H         1 <0>         0.0000
     35 H16        11.7270    4.4790   21.9010 H         1 <0>         0.0000
     36 N3         13.7730    4.4100   23.8120 N.3       1 <0>         0.0000
     37 O3         14.0080    5.8960   22.1990 O.3       1 <0>         0.0000
     38 C15        12.6730    3.5100   23.6500 C.3       1 <0>         0.0000
     39 C16        12.6220    3.9130   22.1650 C.3       1 <0>         0.0000
     40 C17        13.8080    4.7670   22.5510 C.3       1 <0>         0.0000
     41 H          14.0080    5.8960   22.1990 H         1 <0>         0.0000
     42 H          13.8080    4.7670   22.5510 H         1 <0>         0.0000
@<TRIPOS>BOND
     1    5   24 1
     2    5   15 ar
     3    6   15 ar
     4    1    5 ar
     5    6   25 1
     6    6    9 ar
     7    1   20 1
     8    1    7 ar
     9    7    9 ar
    10    9   16 1
    11    7   13 1
    12   12   17 2
    13   12   16 am
    14   16   31 1
    15   13   27 1
    16   11   19 1
    17   13   28 1
    18   13   26 1
    19   12   14 1
    20    3   22 1
    21   34   39 1
    22   35   39 1
    23    3   11 ar
    24    4   11 ar
    25    3    8 ar
    26   39   40 1
    27   38   39 1
    28   37   40 1
    29   14   29 1
    30    8   14 1
    31   14   30 1
    32   36   40 1
    33    4   23 1
    34    2    8 ar
    35    4   10 ar
    36    2   10 ar
    37    2   21 1
    38   10   18 1
    39   36   38 1
    40   18   38 1
    41   33   38 1
    42   32   36 1
    43   37   41 1
    44   40   42 1
@<TRIPOS>MOLECULE
*****
   40    42     0     0     0
SMALL
NO_CHARGES

@<TRIPOS>ATOM
      1 C1          5.1070    1.2070   19.3140 C.ar      1 <0>         0.0000
      2 C2         11.8250    0.5860   23.1590 C.ar      1 <0>         0.0000
      3 C3         11.9500   -1.5990   22.2270 C.ar      1 <0>         0.0000
      4 C4         13.8560   -0.1860   22.2730 C.ar      1 <0>         0.0000
      5 C5          5.4930    1.0520   17.9940 C.ar      1 <0>         0.0000
      6 C6          7.3210   -0.2100   18.6320 C.ar      1 <0>         0.0000
      7 C7          5.7980    0.6390   20.3390 C.ar      1 <0>         0.0000
      8 C8         11.1580   -0.5660   22.7310 C.ar      1 <0>         0.0000
      9 C9          6.9750   -0.0650   19.9660 C.ar      1 <0>         0.0000
     10 C10        13.1930    0.8120   22.9810 C.ar      1 <0>         0.0000
     11 C11        13.3520   -1.4420   21.9260 C.ar      1 <0>         0.0000
     12 C12         8.9830   -0.1680   21.4910 C.2       1 <0>         0.0000
     13 C13         5.4240    0.8520   21.8170 C.3       1 <0>         0.0000
     14 C14         9.6510   -0.6970   22.7990 C.3       1 <0>         0.0000
     15 N1          6.5980    0.3360   17.6210 N.ar      1 <0>         0.0000
     16 N2          7.7780   -0.6900   20.9790 N.am      1 <0>         0.0000
     17 O1          9.4840    0.8400   21.0110 O.2       1 <0>         0.0000
     18 O2         13.9470    1.9570   23.2570 O.3       1 <0>         0.0000
     19 Cl1        14.3310   -2.7630   21.3000 Cl        1 <0>         0.0000
     20 H1          4.2610    1.8580   19.5400 H         1 <0>         0.0000
     21 H2         11.3010    1.4240   23.6280 H         1 <0>         0.0000
     22 H3         11.5770   -2.5500   21.8580 H         1 <0>         0.0000
     23 H4         14.9080   -0.0310   22.0430 H         1 <0>         0.0000
     24 H5          4.9330    1.4370   17.1520 H         1 <0>         0.0000
     25 H6          8.2440   -0.6480   18.2600 H         1 <0>         0.0000
     26 H7          6.2960    1.0600   22.4480 H         1 <0>         0.0000
     27 H8          4.7990    1.7420   21.8540 H         1 <0>         0.0000
     28 H9          4.7830    0.0510   22.1960 H         1 <0>         0.0000
     29 H10         9.4520   -1.7770   22.8540 H         1 <0>         0.0000
     30 H11         9.2930   -0.1780   23.6870 H         1 <0>         0.0000
     31 H12         7.3820   -1.4680   21.4990 H         1 <0>         0.0000
     32 H13        12.8590    2.9620   24.5930 H         1 <0>         0.0000
     33 H14        11.2760    4.0040   22.8050 H         1 <0>         0.0000
     34 H15        12.2070    3.1940   21.5070 H         1 <0>         0.0000
     35 N3         14.0790    4.3330   23.4360 N.am      1 <0>         0.0000
     36 O3         13.1230    5.9860   22.1920 O.2       1 <0>         0.0000
     37 C15        13.2260    3.1250   23.5780 C.3       1 <0>         0.0000
     38 C16        12.2750    3.7460   22.4460 C.3       1 <0>         0.0000
     39 C17        13.2690    4.8430   22.4840 C.2       1 <0>         0.0000
     40 H16        14.3120    4.8970   24.2540 H         1 <0>         0.0000
@<TRIPOS>BOND
     1    5   24 1
     2    5   15 ar
     3    6   15 ar
     4    1    5 ar
     5    6   25 1
     6    6    9 ar
     7    1   20 1
     8    1    7 ar
     9    7    9 ar
    10    9   16 1
    11    7   13 1
    12   12   16 am
    13   16   31 1
    14   12   17 2
    15   11   19 1
    16   12   14 1
    17   34   38 1
    18   13   27 1
    19   13   28 1
    20   13   26 1
    21    3   22 1
    22    3   11 ar
    23    4   11 ar
    24    4   23 1
    25   36   39 2
    26    3    8 ar
    27    4   10 ar
    28   38   39 1
    29   33   38 1
    30   37   38 1
    31   35   39 am
    32    8   14 1
    33    2    8 ar
    34   14   29 1
    35   14   30 1
    36    2   10 ar
    37   10   18 1
    38    2   21 1
    39   18   37 1
    40   35   37 1
    41   35   40 1
    42   32   37 1
@<TRIPOS>MOLECULE
*****
   40    42     0     0     0
SMALL
NO_CHARGES

@<TRIPOS>ATOM
      1 C1          6.9710   -5.6200   21.7040 C.ar      1 <0>         0.0000
      2 C2         12.5060    0.0390   24.6160 C.ar      1 <0>         0.0000
      3 C3         12.9900   -1.6840   22.9850 C.ar      1 <0>         0.0000
      4 C4         14.1600    0.5070   22.8380 C.ar      1 <0>         0.0000
      5 C5          6.2670   -4.6440   21.0000 C.ar      1 <0>         0.0000
      6 C6          7.8040   -3.0730   21.7860 C.ar      1 <0>         0.0000
      7 C7          8.1170   -5.3390   22.5090 C.ar      1 <0>         0.0000
      8 C8         12.1650   -1.1800   24.0410 C.ar      1 <0>         0.0000
      9 C9          8.5440   -3.9960   22.5720 C.ar      1 <0>         0.0000
     10 C10        13.4050    0.8960   24.0010 C.ar      1 <0>         0.0000
     11 C11        14.0530   -0.8290   22.4320 C.ar      1 <0>         0.0000
     12 C12         9.9120   -2.3880   23.8390 C.2       1 <0>         0.0000
     13 C13         8.7710   -6.4800   23.3090 C.3       1 <0>         0.0000
     14 C14        11.1240   -2.0850   24.6510 C.3       1 <0>         0.0000
     15 N1          6.7320   -3.3590   21.0010 N.ar      1 <0>         0.0000
     16 N2          9.5850   -3.6390   23.4300 N.am      1 <0>         0.0000
     17 O1          9.1760   -1.4460   23.7390 O.2       1 <0>         0.0000
     18 O2         13.4760    2.1150   24.6220 O.3       1 <0>         0.0000
     19 Cl1        15.1610   -1.5210   21.3120 Cl        1 <0>         0.0000
     20 H1          6.6950   -6.6670   21.5620 H         1 <0>         0.0000
     21 H2         12.0430    0.5840   25.4330 H         1 <0>         0.0000
     22 H3         12.9210   -2.6910   22.5640 H         1 <0>         0.0000
     23 H4         14.7460    1.2110   22.2540 H         1 <0>         0.0000
     24 H5          5.3610   -4.9030   20.4670 H         1 <0>         0.0000
     25 H6          8.1000   -2.0350   21.7700 H         1 <0>         0.0000
     26 H7          8.8530   -6.3100   24.3890 H         1 <0>         0.0000
     27 H8          8.1170   -7.3380   23.1260 H         1 <0>         0.0000
     28 H9          9.8080   -6.6950   23.0290 H         1 <0>         0.0000
     29 H10        11.6250   -2.9980   24.9630 H         1 <0>         0.0000
     30 H11        10.8610   -1.4980   25.5410 H         1 <0>         0.0000
     31 H12        10.2050   -4.3590   23.7950 H         1 <0>         0.0000
     32 H13        15.8020    4.3840   25.3340 H         1 <0>         0.0000
     33 H14        14.0600    4.4840   25.7230 H         1 <0>         0.0000
     34 N3         14.3960    3.6910   22.8960 N.am      1 <0>         0.0000
     35 O3         14.1460    5.9000   23.2640 O.2       1 <0>         0.0000
     36 C15        14.6120    2.8940   24.1230 C.3       1 <0>         0.0000
     37 C16        14.7880    4.2740   24.9400 C.3       1 <0>         0.0000
     38 C17        14.5850    4.8200   23.5980 C.2       1 <0>         0.0000
     39 H15        13.6800    3.5510   22.1870 H         1 <0>         0.0000
     40 H16        15.5440    2.3270   24.0640 H         1 <0>         0.0000
@<TRIPOS>BOND
     1    5   24 1
     2    5   15 ar
     3    1    5 ar
     4    6   15 ar
     5   11   19 1
     6    1   20 1
     7    1    7 ar
     8    6   25 1
     9    6    9 ar
    10   34   39 1
    11    4   23 1
    12    4   11 ar
    13    3   11 ar
    14    7    9 ar
    15    7   13 1
    16    3   22 1
    17    9   16 1
    18    4   10 ar
    19   34   38 am
    20   34   36 1
    21    3    8 ar
    22   13   28 1
    23   13   27 1
    24   35   38 2
    25   13   26 1
    26   16   31 1
    27   12   16 am
    28   37   38 1
    29   12   17 2
    30   12   14 1
    31    2   10 ar
    32   10   18 1
    33    2    8 ar
    34    8   14 1
    35   36   40 1
    36   18   36 1
    37   36   37 1
    38    2   21 1
    39   14   29 1
    40   14   30 1
    41   32   37 1
    42   33   37 1
@<TRIPOS>MOLECULE
*****
   40    42     0     0     0
SMALL
NO_CHARGES

@<TRIPOS>ATOM
      1 C1          5.3330    1.2730   19.1900 C.ar      1 <0>         0.0000
      2 C2         10.9980   -0.2440   23.2590 C.ar      1 <0>         0.0000
      3 C3         11.4490   -2.1760   21.8650 C.ar      1 <0>         0.0000
      4 C4         13.2790   -0.8970   22.7930 C.ar      1 <0>         0.0000
      5 C5          5.4810    0.7110   17.9390 C.ar      1 <0>         0.0000
      6 C6          7.3010   -0.5000   18.7130 C.ar      1 <0>         0.0000
      7 C7          6.0740    0.8860   20.2500 C.ar      1 <0>         0.0000
      8 C8         10.5320   -1.3970   22.5820 C.ar      1 <0>         0.0000
      9 C9          7.1260    0.0910   19.9470 C.ar      1 <0>         0.0000
     10 C10        12.3310    0.0550   23.2590 C.ar      1 <0>         0.0000
     11 C11        12.8310   -1.9480   22.0090 C.ar      1 <0>         0.0000
     12 C12         8.2960   -1.5020   21.3940 C.2       1 <0>         0.0000
     13 C13         5.7580    1.5970   21.6590 C.3       1 <0>         0.0000
     14 C14         9.1390   -1.8010   22.6220 C.3       1 <0>         0.0000
     15 N1          6.4280   -0.2030   17.7130 N.ar      1 <0>         0.0000
     16 N2          8.0110   -0.2120   21.0090 N.am      1 <0>         0.0000
     17 O1          8.0650   -2.4330   20.6080 O.2       1 <0>         0.0000
     18 O2         12.7590    1.2230   23.8490 O.3       1 <0>         0.0000
     19 Cl1        13.9020   -2.9260   21.1460 Cl        1 <0>         0.0000
     20 H1          4.5370    1.9960   19.3710 H         1 <0>         0.0000
     21 H2         10.3680    0.4300   23.8400 H         1 <0>         0.0000
     22 H3         11.1370   -3.0200   21.2540 H         1 <0>         0.0000
     23 H4         14.3400   -0.7170   22.9090 H         1 <0>         0.0000
     24 H5          4.8240    1.0030   17.1310 H         1 <0>         0.0000
     25 H6          8.1880   -1.0900   18.4930 H         1 <0>         0.0000
     26 H7          6.0400    0.8890   22.4410 H         1 <0>         0.0000
     27 H8          6.3080    2.5400   21.7270 H         1 <0>         0.0000
     28 H9          4.7140    1.8950   21.7700 H         1 <0>         0.0000
     29 H10         9.1250   -2.8650   22.8880 H         1 <0>         0.0000
     30 H11         8.7690   -1.2480   23.4900 H         1 <0>         0.0000
     31 H12         8.2680    0.5090   21.6940 H         1 <0>         0.0000
     32 O3         14.8500    4.5830   23.6330 O.2       1 <0>         0.0000
     33 C15        12.5410    2.4320   23.0960 C.3       1 <0>         0.0000
     34 C16        13.7960    2.8410   22.2170 C.3       1 <0>         0.0000
     35 C17        13.9020    3.9540   23.2240 C.2       1 <0>         0.0000
     36 H13        12.8400    3.7110   24.9650 H         1 <0>         0.0000
     37 H14        11.6120    2.5340   22.5300 H         1 <0>         0.0000
     38 H15        14.6170    2.1200   22.2220 H         1 <0>         0.0000
     39 H16        13.5920    3.1250   21.1860 H         1 <0>         0.0000
     40 N3         12.8180    3.5380   23.9640 N.am      1 <0>         0.0000
@<TRIPOS>BOND
     1    5   24 1
     2    5   15 ar
     3    6   15 ar
     4    1    5 ar
     5    6   25 1
     6    6    9 ar
     7    1   20 1
     8    1    7 ar
     9    7    9 ar
    10    9   16 1
    11    7   13 1
    12   12   17 2
    13   12   16 am
    14   16   31 1
    15   11   19 1
    16   34   39 1
    17    3   22 1
    18   12   14 1
    19   13   27 1
    20   13   28 1
    21   13   26 1
    22    3   11 ar
    23    3    8 ar
    24    4   11 ar
    25   34   38 1
    26   33   34 1
    27   34   35 1
    28   33   37 1
    29    8   14 1
    30    2    8 ar
    31   14   29 1
    32   14   30 1
    33    4   23 1
    34    4   10 ar
    35   18   33 1
    36   33   40 1
    37   32   35 2
    38   35   40 am
    39    2   10 ar
    40    2   21 1
    41   10   18 1
    42   36   40 1
@<TRIPOS>MOLECULE
*****
   40    42     0     0     0
SMALL
NO_CHARGES

@<TRIPOS>ATOM
      1 C1          5.5780    1.5220   18.8700 C.ar      1 <0>         0.0000
      2 C2         10.8410   -1.1340   22.9490 C.ar      1 <0>         0.0000
      3 C3         10.7660   -3.0090   21.4590 C.ar      1 <0>         0.0000
      4 C4         12.8750   -1.9560   22.1460 C.ar      1 <0>         0.0000
      5 C5          5.6490    0.7590   17.7520 C.ar      1 <0>         0.0000
      6 C6          7.1130   -0.7300   18.6720 C.ar      1 <0>         0.0000
      7 C7          6.2890    1.1570   20.0240 C.ar      1 <0>         0.0000
      8 C8         10.0850   -2.1430   22.2750 C.ar      1 <0>         0.0000
      9 C9          7.0590   -0.0260   19.9330 C.ar      1 <0>         0.0000
     10 C10        12.2030   -1.0030   22.8680 C.ar      1 <0>         0.0000
     11 C11        12.1260   -2.9790   21.4130 C.ar      1 <0>         0.0000
     12 C12         7.8390   -1.8550   21.3000 C.2       1 <0>         0.0000
     13 C13         6.2760    1.9960   21.2990 C.3       1 <0>         0.0000
     14 C14         8.6180   -2.3690   22.4410 C.3       1 <0>         0.0000
     15 N1          6.4090   -0.3310   17.6260 N.ar      1 <0>         0.0000
     16 N2          7.6670   -0.5750   21.0550 N.am      1 <0>         0.0000
     17 O1          7.2080   -2.7120   20.7400 O.2       1 <0>         0.0000
     18 O2         12.9450   -0.0090   23.6020 O.3       1 <0>         0.0000
     19 Cl1        12.9140   -4.1040   20.4170 Cl        1 <0>         0.0000
     20 H1          4.8990    2.3720   18.8660 H         1 <0>         0.0000
     21 H2         10.2160   -0.6120   23.6690 H         1 <0>         0.0000
     22 H3         10.1920   -3.7940   20.9750 H         1 <0>         0.0000
     23 H4         13.9520   -2.0850   22.1670 H         1 <0>         0.0000
     24 H5          5.0180    1.0280   16.9120 H         1 <0>         0.0000
     25 H6          7.7470   -1.6040   18.6170 H         1 <0>         0.0000
     26 H7          6.1320    1.3800   22.1870 H         1 <0>         0.0000
     27 H8          7.2060    2.5790   21.3600 H         1 <0>         0.0000
     28 H9          5.4060    2.6370   21.1550 H         1 <0>         0.0000
     29 H10         8.4480   -3.4440   22.5480 H         1 <0>         0.0000
     30 H11         8.3050   -1.8690   23.3510 H         1 <0>         0.0000
     31 H12         7.7810   -0.0890   21.9550 H         1 <0>         0.0000
     32 H13        14.0200    2.3290   24.3870 H         1 <0>         0.0000
     33 H14        11.3960    1.0570   24.4930 H         1 <0>         0.0000
     34 H15        12.3570    1.6980   21.6290 H         1 <0>         0.0000
     35 H16        10.7570    2.3050   22.3390 H         1 <0>         0.0000
     36 N3         13.0080    2.4280   24.2570 N.am      1 <0>         0.0000
     37 O3         13.3480    4.0390   22.7540 O.2       1 <0>         0.0000
     38 C15        12.2300    1.2380   23.8010 C.3       1 <0>         0.0000
     39 C16        11.8320    2.1210   22.4930 C.3       1 <0>         0.0000
     40 C17        12.6160    3.1680   23.2350 C.2       1 <0>         0.0000
@<TRIPOS>BOND
     1    5   24 1
     2    5   15 ar
     3    6   15 ar
     4    1    5 ar
     5    6   25 1
     6    6    9 ar
     7    1   20 1
     8    1    7 ar
     9    7    9 ar
    10    9   16 1
    11    7   13 1
    12   11   19 1
    13   12   17 2
    14    3   22 1
    15   12   16 am
    16   16   31 1
    17   13   28 1
    18   13   27 1
    19   13   26 1
    20   12   14 1
    21    3   11 ar
    22    4   11 ar
    23    3    8 ar
    24   34   39 1
    25    4   23 1
    26    4   10 ar
    27    8   14 1
    28    2    8 ar
    29   35   39 1
    30   14   29 1
    31   14   30 1
    32   39   40 1
    33   38   39 1
    34   37   40 2
    35    2   10 ar
    36   10   18 1
    37    2   21 1
    38   36   40 am
    39   18   38 1
    40   36   38 1
    41   33   38 1
    42   32   36 1
@<TRIPOS>MOLECULE
*****
   40    42     0     0     0
SMALL
NO_CHARGES

@<TRIPOS>ATOM
      1 C1          4.4890    3.1530   18.4430 C.ar      1 <0>         0.0000
      2 C2         10.7320    4.0950   23.2600 C.ar      1 <0>         0.0000
      3 C3         10.9600    1.7950   23.0720 C.ar      1 <0>         0.0000
      4 C4         12.8970    3.1110   23.3100 C.ar      1 <0>         0.0000
      5 C5          5.0210    2.2530   17.4610 C.ar      1 <0>         0.0000
      6 C6          6.6690    1.5670   18.8260 C.ar      1 <0>         0.0000
      7 C7          5.1210    3.2270   19.6860 C.ar      1 <0>         0.0000
      8 C8         10.1480    2.9360   23.0730 C.ar      1 <0>         0.0000
      9 C9          6.2350    2.4200   19.8960 C.ar      1 <0>         0.0000
     10 C10        12.1130    4.2540   23.3430 C.ar      1 <0>         0.0000
     11 C11        12.3230    1.8430   23.1460 C.ar      1 <0>         0.0000
     12 C12         8.1740    2.3940   21.5020 C.2       1 <0>         0.0000
     13 C13         4.5430    4.1770   20.6280 C.3       1 <0>         0.0000
     14 C14         8.6300    2.7010   22.9430 C.3       1 <0>         0.0000
     15 N1          6.0500    1.4570   17.6350 N.ar      1 <0>         0.0000
     16 N2          6.8390    2.6150   21.1250 N.am      1 <0>         0.0000
     17 O1          8.8910    1.8680   20.6550 O.2       1 <0>         0.0000
     18 O2         12.8260    5.4550   23.4310 O.3       1 <0>         0.0000
     19 Cl1        13.3230    0.4800   23.1740 Cl        1 <0>         0.0000
     20 H1          3.7180    3.8760   18.2150 H         1 <0>         0.0000
     21 H2         10.1520    4.9670   23.5250 H         1 <0>         0.0000
     22 H3         10.4480    0.8430   22.9900 H         1 <0>         0.0000
     23 H4         13.9800    3.1800   23.2090 H         1 <0>         0.0000
     24 H5          4.5710    2.3440   16.4810 H         1 <0>         0.0000
     25 H6          7.4970    0.8570   18.9200 H         1 <0>         0.0000
     26 H7          3.5500    4.5120   20.3020 H         1 <0>         0.0000
     27 H8          4.3730    3.7760   21.6260 H         1 <0>         0.0000
     28 H9          5.2070    5.0540   20.6680 H         1 <0>         0.0000
     29 H10         8.3750    1.8100   23.5240 H         1 <0>         0.0000
     30 H11         8.0010    3.4830   23.3830 H         1 <0>         0.0000
     31 H12         6.2650    3.0300   21.8550 H         1 <0>         0.0000
     32 H13        10.4250    7.8060   22.3990 H         1 <0>         0.0000
     33 H14        11.7800    7.1910   21.4950 H         1 <0>         0.0000
     34 N3         12.7120    7.7130   24.1720 N.am      1 <0>         0.0000
     35 O3         13.0290    9.3550   22.5900 O.2       1 <0>         0.0000
     36 C15        11.9460    6.5920   23.7400 C.3       1 <0>         0.0000
     37 C16        11.4670    7.4850   22.4990 C.3       1 <0>         0.0000
     38 C17        12.3330    8.4850   23.1910 C.2       1 <0>         0.0000
     39 H15        13.7240    7.6310   24.3140 H         1 <0>         0.0000
     40 H16        11.1170    6.3320   24.4040 H         1 <0>         0.0000
@<TRIPOS>BOND
     1    5   24 1
     2    5   15 ar
     3    1    5 ar
     4    6   15 ar
     5    1   20 1
     6    1    7 ar
     7    6   25 1
     8    6    9 ar
     9    7    9 ar
    10    7   13 1
    11    9   16 1
    12   13   26 1
    13   13   28 1
    14   13   27 1
    15   12   17 2
    16   12   16 am
    17   16   31 1
    18   33   37 1
    19   12   14 1
    20   32   37 1
    21   37   38 1
    22   36   37 1
    23   35   38 2
    24    8   14 1
    25   14   30 1
    26   14   29 1
    27    3   22 1
    28    3    8 ar
    29    3   11 ar
    30    2    8 ar
    31   11   19 1
    32    4   11 ar
    33   34   38 am
    34    4   23 1
    35    2   10 ar
    36    2   21 1
    37    4   10 ar
    38   10   18 1
    39   18   36 1
    40   34   36 1
    41   36   40 1
    42   34   39 1
@<TRIPOS>MOLECULE
*****
   40    42     0     0     0
SMALL
NO_CHARGES

@<TRIPOS>ATOM
      1 C1          4.7280    1.8460   19.3220 C.ar      1 <0>         0.0000
      2 C2         11.6330    2.4600   23.1860 C.ar      1 <0>         0.0000
      3 C3         11.7110    0.1270   22.5330 C.ar      1 <0>         0.0000
      4 C4         13.7250    1.4230   22.4870 C.ar      1 <0>         0.0000
      5 C5          5.2810    1.3710   18.1250 C.ar      1 <0>         0.0000
      6 C6          7.1560    0.8670   19.2230 C.ar      1 <0>         0.0000
      7 C7          5.3210    1.6700   20.5430 C.ar      1 <0>         0.0000
      8 C8         10.9500    1.2400   22.9730 C.ar      1 <0>         0.0000
      9 C9          6.5950    1.1130   20.5140 C.ar      1 <0>         0.0000
     10 C10        13.0420    2.5660   22.9110 C.ar      1 <0>         0.0000
     11 C11        13.0860    0.2530   22.3190 C.ar      1 <0>         0.0000
     12 C12         8.6970    1.4770   21.8310 C.2       1 <0>         0.0000
     13 C13         4.4730    2.0420   21.7430 C.3       1 <0>         0.0000
     14 C14         9.4520    1.1680   23.0710 C.3       1 <0>         0.0000
     15 N1          6.4910    0.8950   18.0850 N.ar      1 <0>         0.0000
     16 N2          7.3760    1.0720   21.7070 N.am      1 <0>         0.0000
     17 O1          9.1770    2.1740   20.9720 O.2       1 <0>         0.0000
     18 O2         13.8640    3.7090   23.0510 O.3       1 <0>         0.0000
     19 Cl1        13.9730   -1.0730   21.5220 Cl        1 <0>         0.0000
     20 H1          3.7180    2.2150   19.2170 H         1 <0>         0.0000
     21 H2         11.0330    3.3250   23.4410 H         1 <0>         0.0000
     22 H3         11.2220   -0.8220   22.3730 H         1 <0>         0.0000
     23 H4         14.7930    1.4940   22.2630 H         1 <0>         0.0000
     24 H5          4.7870    1.5820   17.1770 H         1 <0>         0.0000
     25 H6          8.2130    0.6230   19.0980 H         1 <0>         0.0000
     26 H7          3.4280    2.1140   21.4360 H         1 <0>         0.0000
     27 H8          4.5540    1.2860   22.5240 H         1 <0>         0.0000
     28 H9          4.8330    2.9720   22.2010 H         1 <0>         0.0000
     29 H10         9.1250    0.1790   23.4060 H         1 <0>         0.0000
     30 H11         9.1530    1.9120   23.8170 H         1 <0>         0.0000
     31 H12         6.9920    0.9960   22.6450 H         1 <0>         0.0000
     32 H13        12.5600    5.2310   21.3610 H         1 <0>         0.0000
     33 H14        11.3130    5.7220   22.4660 H         1 <0>         0.0000
     34 N3         14.0360    6.1230   23.6060 N.am      1 <0>         0.0000
     35 O3         12.7810    7.9770   22.7770 O.2       1 <0>         0.0000
     36 C15        13.2730    4.9120   23.4770 C.3       1 <0>         0.0000
     37 C16        12.4030    5.6300   22.3700 C.3       1 <0>         0.0000
     38 C17        13.2170    6.8340   22.8080 C.2       1 <0>         0.0000
     39 H15        14.3380    6.5340   24.4880 H         1 <0>         0.0000
     40 H16        12.6660    4.8300   24.3780 H         1 <0>         0.0000
@<TRIPOS>BOND
     1    5   24 1
     2    5   15 ar
     3    6   15 ar
     4    1    5 ar
     5    6   25 1
     6    1   20 1
     7    6    9 ar
     8    1    7 ar
     9    7    9 ar
    10    9   16 1
    11    7   13 1
    12   12   17 2
    13   32   37 1
    14   13   26 1
    15   11   19 1
    16   12   16 am
    17   16   31 1
    18   13   28 1
    19   13   27 1
    20   12   14 1
    21    4   23 1
    22    4   11 ar
    23    3   11 ar
    24   33   37 1
    25   37   38 1
    26   36   37 1
    27    3   22 1
    28    4   10 ar
    29    3    8 ar
    30   35   38 2
    31   34   38 am
    32   10   18 1
    33    2   10 ar
    34    8   14 1
    35    2    8 ar
    36   18   36 1
    37   14   29 1
    38   14   30 1
    39    2   21 1
    40   34   36 1
    41   36   40 1
    42   34   39 1
@<TRIPOS>MOLECULE
*****
   40    42     0     0     0
SMALL
NO_CHARGES

@<TRIPOS>ATOM
      1 C1          5.9640    1.4310   19.5560 C.ar      1 <0>         0.0000
      2 C2         13.1610    0.6980   23.5700 C.ar      1 <0>         0.0000
      3 C3         12.9070   -1.1170   22.0440 C.ar      1 <0>         0.0000
      4 C4         15.1020   -0.3180   22.7170 C.ar      1 <0>         0.0000
      5 C5          6.4640    0.8940   18.3870 C.ar      1 <0>         0.0000
      6 C6          8.4340    0.2860   19.4500 C.ar      1 <0>         0.0000
      7 C7          6.7080    1.3390   20.7580 C.ar      1 <0>         0.0000
      8 C8         12.3420   -0.2310   22.8720 C.ar      1 <0>         0.0000
      9 C9          7.9370    0.7390   20.6840 C.ar      1 <0>         0.0000
     10 C10        14.5630    0.6850   23.4400 C.ar      1 <0>         0.0000
     11 C11        14.3420   -1.1780   21.9830 C.ar      1 <0>         0.0000
     12 C12        10.1420    0.5490   21.8920 C.2       1 <0>         0.0000
     13 C13         6.2530    2.0360   21.9690 C.3       1 <0>         0.0000
     14 C14        10.8510   -0.2180   22.9740 C.3       1 <0>         0.0000
     15 N1          7.7110    0.3490   18.3360 N.ar      1 <0>         0.0000
     16 N2          8.7650    0.5400   21.8800 N.am      1 <0>         0.0000
     17 O1         10.6730    1.2160   21.0510 O.2       1 <0>         0.0000
     18 O2         15.3860    1.5880   24.1050 O.3       1 <0>         0.0000
     19 Cl1        15.0920   -2.2040   20.8180 Cl        1 <0>         0.0000
     20 H1          5.1180    2.1090   19.5500 H         1 <0>         0.0000
     21 H2         12.6790    1.4110   24.2360 H         1 <0>         0.0000
     22 H3         12.2780   -1.8170   21.4970 H         1 <0>         0.0000
     23 H4         16.1900   -0.3320   22.7500 H         1 <0>         0.0000
     24 H5          5.8800    1.0500   17.4880 H         1 <0>         0.0000
     25 H6          9.4210   -0.1570   19.3800 H         1 <0>         0.0000
     26 H7          6.7050    3.0230   22.1120 H         1 <0>         0.0000
     27 H8          5.1880    2.2590   21.8420 H         1 <0>         0.0000
     28 H9          6.3790    1.4250   22.8710 H         1 <0>         0.0000
     29 H10        10.4170   -1.2190   23.0150 H         1 <0>         0.0000
     30 H11        10.6020    0.2170   23.9370 H         1 <0>         0.0000
     31 H12         8.1970    0.1240   22.6110 H         1 <0>         0.0000
     32 H13        14.6780    3.1090   25.4030 H         1 <0>         0.0000
     33 H14        13.2690    4.2350   23.6820 H         1 <0>         0.0000
     34 H15        13.8360    3.0980   22.3290 H         1 <0>         0.0000
     35 N3         16.0460    3.8140   24.0750 N.am      1 <0>         0.0000
     36 O3         15.8600    5.1780   22.2680 O.2       1 <0>         0.0000
     37 C15        14.9810    2.9450   24.3620 C.3       1 <0>         0.0000
     38 C16        14.0990    3.7180   23.1820 C.3       1 <0>         0.0000
     39 C17        15.3440    4.4860   23.1120 C.2       1 <0>         0.0000
     40 H16        16.9970    3.5270   23.8530 H         1 <0>         0.0000
@<TRIPOS>BOND
     1    5   24 1
     2    5   15 ar
     3    6   15 ar
     4    1    5 ar
     5    6   25 1
     6    6    9 ar
     7    1   20 1
     8    1    7 ar
     9    7    9 ar
    10    9   16 1
    11    7   13 1
    12   11   19 1
    13   12   17 2
    14    3   22 1
    15   13   27 1
    16   12   16 am
    17   16   31 1
    18   12   14 1
    19   13   26 1
    20   13   28 1
    21    3   11 ar
    22    4   11 ar
    23    3    8 ar
    24   36   39 2
    25   34   38 1
    26    4   23 1
    27    4   10 ar
    28    8   14 1
    29    2    8 ar
    30   14   29 1
    31   14   30 1
    32   38   39 1
    33   35   39 am
    34   33   38 1
    35   37   38 1
    36    2   10 ar
    37   10   18 1
    38    2   21 1
    39   35   40 1
    40   35   37 1
    41   18   37 1
    42   32   37 1
@<TRIPOS>MOLECULE
*****
   40    42     0     0     0
SMALL
NO_CHARGES

@<TRIPOS>ATOM
      1 C1          5.1090    1.5690   19.7460 C.ar      1 <0>         0.0000
      2 C2         12.0360    0.8420   23.1410 C.ar      1 <0>         0.0000
      3 C3         12.3280   -1.1210   21.7520 C.ar      1 <0>         0.0000
      4 C4         14.2650    0.3370   22.1700 C.ar      1 <0>         0.0000
      5 C5          5.7330    1.3900   18.5280 C.ar      1 <0>         0.0000
      6 C6          7.4760    0.2620   19.4830 C.ar      1 <0>         0.0000
      7 C7          5.7410    1.1180   20.9520 C.ar      1 <0>         0.0000
      8 C8         11.4800   -0.3120   22.6090 C.ar      1 <0>         0.0000
      9 C9          6.9870    0.5200   20.7990 C.ar      1 <0>         0.0000
     10 C10        13.4230    1.1590   22.8920 C.ar      1 <0>         0.0000
     11 C11        13.7390   -0.7810   21.5120 C.ar      1 <0>         0.0000
     12 C12         9.1390    0.3360   21.8800 C.2       1 <0>         0.0000
     13 C13         4.9980    1.2780   22.2440 C.3       1 <0>         0.0000
     14 C14        10.0240   -0.5070   22.8210 C.3       1 <0>         0.0000
     15 N1          6.8520    0.6790   18.3650 N.ar      1 <0>         0.0000
     16 N2          7.7860    0.1390   21.8730 N.am      1 <0>         0.0000
     17 O1          9.6450    1.2040   21.2070 O.2       1 <0>         0.0000
     18 O2         14.0480    2.2720   23.4750 O.3       1 <0>         0.0000
     19 Cl1        14.8070   -1.6540   20.3940 Cl        1 <0>         0.0000
     20 H1          4.1300    2.0460   19.7860 H         1 <0>         0.0000
     21 H2         11.4860    1.5930   23.6920 H         1 <0>         0.0000
     22 H3         11.9670   -2.0020   21.2410 H         1 <0>         0.0000
     23 H4         15.3340    0.5440   22.1530 H         1 <0>         0.0000
     24 H5          5.2190    1.8130   17.6670 H         1 <0>         0.0000
     25 H6          8.4690   -0.1600   19.5080 H         1 <0>         0.0000
     26 H7          5.2530    2.0980   22.9260 H         1 <0>         0.0000
     27 H8          3.9310    1.3590   22.0120 H         1 <0>         0.0000
     28 H9          5.0290    0.3370   22.8050 H         1 <0>         0.0000
     29 H10         9.7250   -1.5510   22.7030 H         1 <0>         0.0000
     30 H11         9.8070   -0.2380   23.8570 H         1 <0>         0.0000
     31 H12         7.3810   -0.2770   22.7090 H         1 <0>         0.0000
     32 H13        12.6460    3.5820   24.2000 H         1 <0>         0.0000
     33 H14        12.9640    3.2580   21.1630 H         1 <0>         0.0000
     34 H15        11.6220    4.1550   22.1340 H         1 <0>         0.0000
     35 N3         14.1410    4.6720   23.3800 N.am      1 <0>         0.0000
     36 O3         13.3980    6.2760   21.9420 O.2       1 <0>         0.0000
     37 C15        13.3260    3.4810   23.3550 C.3       1 <0>         0.0000
     38 C16        12.6770    3.9210   21.9820 C.3       1 <0>         0.0000
     39 C17        13.6320    5.0790   22.2460 C.2       1 <0>         0.0000
     40 H16        14.2020    5.3840   24.1010 H         1 <0>         0.0000
@<TRIPOS>BOND
     1    5   24 1
     2    5   15 ar
     3    6   15 ar
     4    1    5 ar
     5    6   25 1
     6    6    9 ar
     7    1   20 1
     8    1    7 ar
     9   11   19 1
    10    7    9 ar
    11    9   16 1
    12    7   13 1
    13   33   38 1
    14   12   17 2
    15    3   22 1
    16    3   11 ar
    17    4   11 ar
    18    3    8 ar
    19   12   16 am
    20   16   31 1
    21   12   14 1
    22   36   39 2
    23   34   38 1
    24   38   39 1
    25   37   38 1
    26   13   27 1
    27    4   23 1
    28    4   10 ar
    29   13   28 1
    30   13   26 1
    31   35   39 am
    32    8   14 1
    33    2    8 ar
    34   14   29 1
    35   14   30 1
    36    2   10 ar
    37   10   18 1
    38    2   21 1
    39   35   37 1
    40   18   37 1
    41   32   37 1
    42   35   40 1
@<TRIPOS>MOLECULE
*****
   40    42     0     0     0
SMALL
NO_CHARGES

@<TRIPOS>ATOM
      1 C1          4.0180    1.2020   19.5530 C.ar      1 <0>         0.0000
      2 C2         10.7320    1.5720   23.6340 C.ar      1 <0>         0.0000
      3 C3         11.2840   -0.5240   22.5490 C.ar      1 <0>         0.0000
      4 C4         13.0190    1.1420   22.9010 C.ar      1 <0>         0.0000
      5 C5          4.6020    0.8440   18.3310 C.ar      1 <0>         0.0000
      6 C6          6.5920    0.3640   19.3270 C.ar      1 <0>         0.0000
      7 C7          4.7530    1.1800   20.7320 C.ar      1 <0>         0.0000
      8 C8         10.3200    0.3150   23.1310 C.ar      1 <0>         0.0000
      9 C9          6.0520    0.6780   20.6300 C.ar      1 <0>         0.0000
     10 C10        12.1120    1.9580   23.5000 C.ar      1 <0>         0.0000
     11 C11        12.6390   -0.1650   22.4250 C.ar      1 <0>         0.0000
     12 C12         8.1510    0.4730   21.9170 C.2       1 <0>         0.0000
     13 C13         4.1390    1.6530   22.0580 C.3       1 <0>         0.0000
     14 C14         8.8970   -0.1060   23.1010 C.3       1 <0>         0.0000
     15 N1          5.8550    0.4350   18.2220 N.ar      1 <0>         0.0000
     16 N2          6.7810    0.3520   21.7290 N.am      1 <0>         0.0000
     17 O1          8.7460    1.2750   21.2210 O.2       1 <0>         0.0000
     18 O2         12.6590    3.1580   23.9620 O.3       1 <0>         0.0000
     19 Cl1        13.7730   -1.2520   21.5920 Cl        1 <0>         0.0000
     20 H1          2.9880    1.5450   19.6220 H         1 <0>         0.0000
     21 H2          9.9770    2.2080   24.0890 H         1 <0>         0.0000
     22 H3         11.0010   -1.4970   22.1660 H         1 <0>         0.0000
     23 H4         14.0310    1.5270   22.8430 H         1 <0>         0.0000
     24 H5          3.9890    0.9630   17.4450 H         1 <0>         0.0000
     25 H6          7.6230    0.0390   19.2760 H         1 <0>         0.0000
     26 H7          4.1160    0.7590   22.6900 H         1 <0>         0.0000
     27 H8          4.7450    2.4110   22.5710 H         1 <0>         0.0000
     28 H9          3.1190    2.0410   21.9620 H         1 <0>         0.0000
     29 H10         8.8510   -1.1930   23.0100 H         1 <0>         0.0000
     30 H11         8.4000    0.2060   24.0240 H         1 <0>         0.0000
     31 H12         6.3520   -0.1550   22.4940 H         1 <0>         0.0000
     32 H13        11.7750    5.0500   21.9660 H         1 <0>         0.0000
     33 H14        10.1960    5.4210   22.8120 H         1 <0>         0.0000
     34 N3         12.3120    5.4170   24.7480 N.am      1 <0>         0.0000
     35 O3         12.4700    7.2440   23.3830 O.2       1 <0>         0.0000
     36 C15        11.7580    4.2340   24.1280 C.3       1 <0>         0.0000
     37 C16        11.2570    5.1650   22.9290 C.3       1 <0>         0.0000
     38 C17        11.9360    6.2290   23.7880 C.2       1 <0>         0.0000
     39 H15        13.2640    5.6430   25.0430 H         1 <0>         0.0000
     40 H16        10.9260    3.7750   24.6660 H         1 <0>         0.0000
@<TRIPOS>BOND
     1    5   24 1
     2    5   15 ar
     3    6   15 ar
     4    1    5 ar
     5    6   25 1
     6    6    9 ar
     7    1   20 1
     8    1    7 ar
     9    7    9 ar
    10    9   16 1
    11    7   13 1
    12   12   17 2
    13   11   19 1
    14   12   16 am
    15   16   31 1
    16   12   14 1
    17   13   28 1
    18   32   37 1
    19   13   27 1
    20   13   26 1
    21    3   22 1
    22    3   11 ar
    23    4   11 ar
    24    3    8 ar
    25   33   37 1
    26    4   23 1
    27    4   10 ar
    28   37   38 1
    29   36   37 1
    30   14   29 1
    31    8   14 1
    32   14   30 1
    33    2    8 ar
    34   35   38 2
    35    2   10 ar
    36   10   18 1
    37    2   21 1
    38   34   38 am
    39   18   36 1
    40   36   40 1
    41   34   36 1
    42   34   39 1
@<TRIPOS>MOLECULE
*****
   40    42     0     0     0
SMALL
NO_CHARGES

@<TRIPOS>ATOM
      1 C1          5.1910    0.8030   19.2360 C.ar      1 <0>         0.0000
      2 C2         12.3110    1.0750   22.1510 C.ar      1 <0>         0.0000
      3 C3         12.5720   -1.2360   21.5120 C.ar      1 <0>         0.0000
      4 C4         14.4980    0.2100   21.6270 C.ar      1 <0>         0.0000
      5 C5          5.6400    1.1350   17.9780 C.ar      1 <0>         0.0000
      6 C6          7.7110    0.3710   18.4100 C.ar      1 <0>         0.0000
      7 C7          6.0390    0.2790   20.1880 C.ar      1 <0>         0.0000
      8 C8         11.7370   -0.1550   21.8870 C.ar      1 <0>         0.0000
      9 C9          7.3910    0.0630   19.7550 C.ar      1 <0>         0.0000
     10 C10        13.6890    1.2470   22.0730 C.ar      1 <0>         0.0000
     11 C11        13.9770   -1.0450   21.3210 C.ar      1 <0>         0.0000
     12 C12         9.3860    0.1530   21.0870 C.2       1 <0>         0.0000
     13 C13         5.5510   -0.0150   21.5280 C.3       1 <0>         0.0000
     14 C14        10.2620   -0.4410   22.1450 C.3       1 <0>         0.0000
     15 N1          6.8920    0.8390   17.5160 N.ar      1 <0>         0.0000
     16 N2          8.2630   -0.4800   20.6440 N.am      1 <0>         0.0000
     17 O1          9.5850    1.3070   20.7340 O.2       1 <0>         0.0000
     18 O2         14.4140    2.3160   22.4740 O.3       1 <0>         0.0000
     19 Cl1        14.9920   -2.3280   20.8060 Cl        1 <0>         0.0000
     20 H1          4.1380    0.9700   19.4490 H         1 <0>         0.0000
     21 H2         11.6600    1.8460   22.5520 H         1 <0>         0.0000
     22 H3         12.1650   -2.2290   21.3350 H         1 <0>         0.0000
     23 H4         15.5750    0.2810   21.5460 H         1 <0>         0.0000
     24 H5          4.9430    1.6470   17.3210 H         1 <0>         0.0000
     25 H6          8.7480    0.1390   18.1960 H         1 <0>         0.0000
     26 H7          5.2540   -1.0610   21.6570 H         1 <0>         0.0000
     27 H8          6.2630    0.1890   22.3420 H         1 <0>         0.0000
     28 H9          4.6820    0.5720   21.8420 H         1 <0>         0.0000
     29 H10        10.2080   -1.5280   22.0780 H         1 <0>         0.0000
     30 H11         9.9760    0.0990   23.0490 H         1 <0>         0.0000
     31 H12         7.9440   -1.3060   21.1580 H         1 <0>         0.0000
     32 H13        13.4150    3.3480   24.0240 H         1 <0>         0.0000
     33 H14        12.5950    3.7960   21.1280 H         1 <0>         0.0000
     34 H15        11.8180    4.4420   22.6660 H         1 <0>         0.0000
     35 N3         14.7000    4.6120   22.9410 N.am      1 <0>         0.0000
     36 O3         13.6630    6.5500   22.3410 O.2       1 <0>         0.0000
     37 C15        13.8010    3.5040   23.0080 C.3       1 <0>         0.0000
     38 C16        12.7460    4.2690   22.1090 C.3       1 <0>         0.0000
     39 C17        13.8080    5.3300   22.2130 C.2       1 <0>         0.0000
     40 H16        14.9700    5.1460   23.7710 H         1 <0>         0.0000
@<TRIPOS>BOND
     1    5   24 1
     2    5   15 ar
     3    6   15 ar
     4    1    5 ar
     5    6   25 1
     6    6    9 ar
     7    1   20 1
     8    1    7 ar
     9    7    9 ar
    10    9   16 1
    11    7   13 1
    12   12   16 am
    13   16   31 1
    14   12   17 2
    15   11   19 1
    16   12   14 1
    17   33   38 1
    18    3   11 ar
    19    4   11 ar
    20    3   22 1
    21    3    8 ar
    22   13   26 1
    23   13   28 1
    24   13   27 1
    25    4   23 1
    26    4   10 ar
    27    8   14 1
    28    2    8 ar
    29    2   10 ar
    30   10   18 1
    31   14   29 1
    32   38   39 1
    33   34   38 1
    34   37   38 1
    35   14   30 1
    36    2   21 1
    37   36   39 2
    38   35   39 am
    39   18   37 1
    40   35   37 1
    41   35   40 1
    42   32   37 1
@<TRIPOS>MOLECULE
*****
   40    42     0     0     0
SMALL
NO_CHARGES

@<TRIPOS>ATOM
      1 C1          5.1200    0.5610   19.7880 C.ar      1 <0>         0.0000
      2 C2         12.1610    0.3530   23.3830 C.ar      1 <0>         0.0000
      3 C3         12.3710   -1.7400   22.3550 C.ar      1 <0>         0.0000
      4 C4         14.1420   -0.1500   22.2120 C.ar      1 <0>         0.0000
      5 C5          5.7960    0.4210   18.5590 C.ar      1 <0>         0.0000
      6 C6          7.7530   -0.1850   19.5690 C.ar      1 <0>         0.0000
      7 C7          5.8380    0.3340   20.9550 C.ar      1 <0>         0.0000
      8 C8         11.5780   -0.8290   22.9740 C.ar      1 <0>         0.0000
      9 C9          7.1790   -0.0300   20.8220 C.ar      1 <0>         0.0000
     10 C10        13.4320    0.7120   23.0110 C.ar      1 <0>         0.0000
     11 C11        13.6820   -1.4360   21.9670 C.ar      1 <0>         0.0000
     12 C12         9.2510   -0.1650   22.1340 C.2       1 <0>         0.0000
     13 C13         5.1190    0.5150   22.3470 C.3       1 <0>         0.0000
     14 C14        10.0870   -1.0410   23.1160 C.3       1 <0>         0.0000
     15 N1          7.0650    0.1090   18.5000 N.ar      1 <0>         0.0000
     16 N2          7.9020   -0.3340   22.0200 N.am      1 <0>         0.0000
     17 O1          9.7670    0.8430   21.6540 O.2       1 <0>         0.0000
     18 O2         14.0220    1.9590   23.2460 O.3       1 <0>         0.0000
     19 Cl1        14.6970   -2.5380   21.1880 Cl        1 <0>         0.0000
     20 H1          4.0890    0.9100   19.8540 H         1 <0>         0.0000
     21 H2         11.6600    1.0040   24.0820 H         1 <0>         0.0000
     22 H3         11.9760   -2.6640   21.9300 H         1 <0>         0.0000
     23 H4         15.1040    0.1800   21.8410 H         1 <0>         0.0000
     24 H5          5.2200    0.6210   17.6590 H         1 <0>         0.0000
     25 H6          8.7970   -0.4250   19.3520 H         1 <0>         0.0000
     26 H7          4.0930    0.8970   22.2940 H         1 <0>         0.0000
     27 H8          5.0850   -0.4550   22.8410 H         1 <0>         0.0000
     28 H9          5.7020    1.1690   23.0020 H         1 <0>         0.0000
     29 H10         9.8640   -2.0960   22.9460 H         1 <0>         0.0000
     30 H11         9.6840   -0.8120   24.1100 H         1 <0>         0.0000
     31 H12         7.4910   -1.1320   22.5100 H         1 <0>         0.0000
     32 N3         13.9030    4.2250   23.6660 N.am      1 <0>         0.0000
     33 O3         12.7690    5.8900   22.6420 O.2       1 <0>         0.0000
     34 C15        13.2810    2.9830   23.8360 C.3       1 <0>         0.0000
     35 C16        12.0080    3.5740   22.9720 C.3       1 <0>         0.0000
     36 C17        12.9690    4.7330   22.9060 C.2       1 <0>         0.0000
     37 H13        14.2720    4.8640   24.3690 H         1 <0>         0.0000
     38 H14        13.1040    2.7620   24.8940 H         1 <0>         0.0000
     39 H15        11.0930    3.8140   23.5350 H         1 <0>         0.0000
     40 H16        11.8530    3.1480   21.9790 H         1 <0>         0.0000
@<TRIPOS>BOND
     1    5   24 1
     2    5   15 ar
     3    6   15 ar
     4    1    5 ar
     5    6   25 1
     6    6    9 ar
     7    1   20 1
     8    1    7 ar
     9    7    9 ar
    10    9   16 1
    11    7   13 1
    12   11   19 1
    13   12   17 2
    14    4   23 1
    15    3   22 1
    16    4   11 ar
    17    3   11 ar
    18   35   40 1
    19   12   16 am
    20   16   31 1
    21   12   14 1
    22    4   10 ar
    23   13   26 1
    24   13   27 1
    25   13   28 1
    26    3    8 ar
    27   33   36 2
    28   35   36 1
    29   32   36 am
    30   14   29 1
    31   35   39 1
    32   34   35 1
    33    8   14 1
    34    2    8 ar
    35   10   18 1
    36    2   10 ar
    37   14   30 1
    38   18   34 1
    39    2   21 1
    40   32   34 1
    41   32   37 1
    42   34   38 1
@<TRIPOS>MOLECULE
*****
   40    42     0     0     0
SMALL
NO_CHARGES

@<TRIPOS>ATOM
      1 C1          5.0010    1.0720   18.1560 C.ar      1 <0>         0.0000
      2 C2         11.6340    1.9560   22.7030 C.ar      1 <0>         0.0000
      3 C3         11.7700   -0.2870   21.8650 C.ar      1 <0>         0.0000
      4 C4         13.7730    0.9350   22.2300 C.ar      1 <0>         0.0000
      5 C5          5.8730    0.7360   17.0900 C.ar      1 <0>         0.0000
      6 C6          7.5870    0.4610   18.5300 C.ar      1 <0>         0.0000
      7 C7          5.5360    1.1640   19.4440 C.ar      1 <0>         0.0000
      8 C8         10.9630    0.8060   22.3360 C.ar      1 <0>         0.0000
      9 C9          6.8430    0.7480   19.6660 C.ar      1 <0>         0.0000
     10 C10        13.0080    2.0150   22.6760 C.ar      1 <0>         0.0000
     11 C11        13.1420   -0.1730   21.7810 C.ar      1 <0>         0.0000
     12 C12         8.6900    1.2010   21.1720 C.2       1 <0>         0.0000
     13 C13         4.7090    1.5770   20.6210 C.3       1 <0>         0.0000
     14 C14         9.4680    0.7890   22.4280 C.3       1 <0>         0.0000
     15 N1          7.1880    0.5170   17.2590 N.ar      1 <0>         0.0000
     16 N2          7.4430    0.8640   20.9470 N.am      1 <0>         0.0000
     17 O1          9.2790    1.9420   20.4080 O.2       1 <0>         0.0000
     18 O2         13.7510    3.1030   23.1400 O.3       1 <0>         0.0000
     19 Cl1        14.1420   -1.4180   21.0720 Cl        1 <0>         0.0000
     20 H1          3.9400    1.2430   17.9960 H         1 <0>         0.0000
     21 H2         11.0390    2.7680   23.1050 H         1 <0>         0.0000
     22 H3         11.3010   -1.1280   21.3750 H         1 <0>         0.0000
     23 H4         14.8430    1.1010   22.2910 H         1 <0>         0.0000
     24 H5          5.4800    0.5940   16.0890 H         1 <0>         0.0000
     25 H6          8.6640    0.2960   18.5910 H         1 <0>         0.0000
     26 H7          4.3320    0.6740   21.1190 H         1 <0>         0.0000
     27 H8          5.3060    2.1240   21.3630 H         1 <0>         0.0000
     28 H9          3.8660    2.1960   20.3190 H         1 <0>         0.0000
     29 H10         9.0760   -0.1910   22.7210 H         1 <0>         0.0000
     30 H11         9.0840    1.3520   23.2930 H         1 <0>         0.0000
     31 H12         6.8950    0.4790   21.7190 H         1 <0>         0.0000
     32 H13        12.2080    4.4600   23.2740 H         1 <0>         0.0000
     33 H14        12.2690    5.2310   20.9710 H         1 <0>         0.0000
     34 H15        13.8080    4.2750   20.5790 H         1 <0>         0.0000
     35 N3         14.0190    5.5380   23.1340 N.am      1 <0>         0.0000
     36 O3         13.9370    7.2270   21.6190 O.2       1 <0>         0.0000
     37 C15        13.2100    4.3780   22.8510 C.3       1 <0>         0.0000
     38 C16        13.2530    4.8900   21.2940 C.3       1 <0>         0.0000
     39 C17        14.0170    5.9940   21.8590 C.2       1 <0>         0.0000
     40 H16        13.8590    6.1440   23.9430 H         1 <0>         0.0000
@<TRIPOS>BOND
     1    5   24 1
     2    5   15 ar
     3    1    5 ar
     4    6   15 ar
     5    1   20 1
     6    1    7 ar
     7    6   25 1
     8    6    9 ar
     9    7    9 ar
    10    7   13 1
    11    9   16 1
    12   13   28 1
    13   12   17 2
    14   34   38 1
    15   13   26 1
    16   13   27 1
    17   12   16 am
    18   16   31 1
    19   33   38 1
    20   11   19 1
    21   12   14 1
    22   38   39 1
    23   37   38 1
    24    3   22 1
    25   36   39 2
    26    3   11 ar
    27    4   11 ar
    28   35   39 am
    29    3    8 ar
    30    4   23 1
    31    4   10 ar
    32    8   14 1
    33    2    8 ar
    34   14   29 1
    35   14   30 1
    36    2   10 ar
    37   10   18 1
    38    2   21 1
    39   35   37 1
    40   18   37 1
    41   32   37 1
    42   35   40 1
@<TRIPOS>MOLECULE
*****
   40    42     0     0     0
SMALL
NO_CHARGES

@<TRIPOS>ATOM
      1 C1          5.1850    0.5860   19.5580 C.ar      1 <0>         0.0000
      2 C2         12.1690    0.5190   23.4890 C.ar      1 <0>         0.0000
      3 C3         12.7870   -1.3120   22.0820 C.ar      1 <0>         0.0000
      4 C4         14.5370    0.1140   22.9250 C.ar      1 <0>         0.0000
      5 C5          5.7910    0.7320   18.3220 C.ar      1 <0>         0.0000
      6 C6          7.8480    0.1370   19.0770 C.ar      1 <0>         0.0000
      7 C7          5.9910    0.2410   20.6470 C.ar      1 <0>         0.0000
      8 C8         11.7750   -0.5880   22.7550 C.ar      1 <0>         0.0000
      9 C9          7.3600    0.0540   20.3890 C.ar      1 <0>         0.0000
     10 C10        13.5330    0.8480   23.6620 C.ar      1 <0>         0.0000
     11 C11        14.1080   -1.0210   22.1480 C.ar      1 <0>         0.0000
     12 C12         9.5090   -0.1530   21.6270 C.2       1 <0>         0.0000
     13 C13         5.3290   -0.0010   21.9500 C.3       1 <0>         0.0000
     14 C14        10.2630   -0.8820   22.7170 C.3       1 <0>         0.0000
     15 N1          7.0680    0.5320   18.0340 N.ar      1 <0>         0.0000
     16 N2          8.1660   -0.3080   21.4450 N.am      1 <0>         0.0000
     17 O1         10.0790    0.6300   20.8440 O.2       1 <0>         0.0000
     18 O2         13.9060    1.9830   24.2880 O.3       1 <0>         0.0000
     19 Cl1        15.2530   -2.1080   21.4590 Cl        1 <0>         0.0000
     20 H1          4.1160    0.7140   19.6720 H         1 <0>         0.0000
     21 H2         11.2530    1.0350   23.7700 H         1 <0>         0.0000
     22 H3         12.4930   -2.2380   21.5960 H         1 <0>         0.0000
     23 H4         15.5950    0.3340   23.0230 H         1 <0>         0.0000
     24 H5          5.1380    1.1430   17.5650 H         1 <0>         0.0000
     25 H6          8.8920    0.0180   18.8060 H         1 <0>         0.0000
     26 H7          5.3660   -1.0790   22.1320 H         1 <0>         0.0000
     27 H8          5.8470    0.5740   22.7260 H         1 <0>         0.0000
     28 H9          4.2760    0.2640   21.9980 H         1 <0>         0.0000
     29 H10        10.1580   -1.9650   22.5990 H         1 <0>         0.0000
     30 H11         9.8160   -0.6440   23.6820 H         1 <0>         0.0000
     31 H12         7.7440   -0.7270   22.2720 H         1 <0>         0.0000
     32 H13        12.4250    3.2900   23.5110 H         1 <0>         0.0000
     33 H14        13.6560    4.3060   21.9500 H         1 <0>         0.0000
     34 H15        15.1830    3.3980   22.4250 H         1 <0>         0.0000
     35 N3         13.7870    4.3070   24.7710 N.am      1 <0>         0.0000
     36 O3         15.4440    5.7130   24.0800 O.2       1 <0>         0.0000
     37 C15        13.4580    3.2470   23.8660 C.3       1 <0>         0.0000
     38 C16        14.3490    4.0200   22.7590 C.3       1 <0>         0.0000
     39 C17        14.4660    4.9710   23.8740 C.2       1 <0>         0.0000
     40 H16        14.1690    4.2160   25.7120 H         1 <0>         0.0000
@<TRIPOS>BOND
     1    5   24 1
     2    5   15 ar
     3    6   15 ar
     4    1    5 ar
     5    6   25 1
     6    6    9 ar
     7    1   20 1
     8    1    7 ar
     9    7    9 ar
    10    9   16 1
    11    7   13 1
    12   12   17 2
    13   12   16 am
    14   16   31 1
    15   11   19 1
    16    3   22 1
    17   12   14 1
    18   13   28 1
    19   13   26 1
    20   13   27 1
    21   33   38 1
    22    3   11 ar
    23    3    8 ar
    24    4   11 ar
    25   34   38 1
    26   14   29 1
    27    8   14 1
    28   14   30 1
    29    2    8 ar
    30   37   38 1
    31   38   39 1
    32    4   23 1
    33    4   10 ar
    34    2   10 ar
    35    2   21 1
    36   32   37 1
    37   10   18 1
    38   18   37 1
    39   35   37 1
    40   36   39 2
    41   35   39 am
    42   35   40 1
@<TRIPOS>MOLECULE
*****
   40    42     0     0     0
SMALL
NO_CHARGES

@<TRIPOS>ATOM
      1 C1          4.2000    0.9400   19.6180 C.ar      1 <0>         0.0000
      2 C2         11.4890    1.6040   23.2570 C.ar      1 <0>         0.0000
      3 C3         11.5740   -0.5050   22.3070 C.ar      1 <0>         0.0000
      4 C4         13.6080    0.7810   22.4260 C.ar      1 <0>         0.0000
      5 C5          4.8580    1.0160   18.3540 C.ar      1 <0>         0.0000
      6 C6          6.9710    0.9050   19.3350 C.ar      1 <0>         0.0000
      7 C7          4.9900    0.6990   20.7090 C.ar      1 <0>         0.0000
      8 C8         10.8430    0.4790   22.9820 C.ar      1 <0>         0.0000
      9 C9          6.3870    0.7070   20.6290 C.ar      1 <0>         0.0000
     10 C10        12.9090    1.8070   23.0770 C.ar      1 <0>         0.0000
     11 C11        12.9380   -0.3650   22.0430 C.ar      1 <0>         0.0000
     12 C12         8.5060    0.8790   21.9490 C.2       1 <0>         0.0000
     13 C13         4.2050    0.5950   21.9810 C.3       1 <0>         0.0000
     14 C14         9.3180    0.4000   23.1560 C.3       1 <0>         0.0000
     15 N1          6.1740    0.9820   18.2190 N.ar      1 <0>         0.0000
     16 N2          7.1920    0.4400   21.7820 N.am      1 <0>         0.0000
     17 O1          8.9530    1.7540   21.2140 O.2       1 <0>         0.0000
     18 O2         13.7230    2.8870   23.4160 O.3       1 <0>         0.0000
     19 Cl1        13.7680   -1.7950   21.2410 Cl        1 <0>         0.0000
     20 H1          3.1250    1.0470   19.6080 H         1 <0>         0.0000
     21 H2         10.9930    2.4650   23.7120 H         1 <0>         0.0000
     22 H3         11.0580   -1.4390   22.1230 H         1 <0>         0.0000
     23 H4         14.6690    0.9520   22.2770 H         1 <0>         0.0000
     24 H5          4.1320    1.2750   17.5970 H         1 <0>         0.0000
     25 H6          8.0510    0.8340   19.3120 H         1 <0>         0.0000
     26 H7          3.7470   -0.3740   22.2020 H         1 <0>         0.0000
     27 H8          4.8990    0.7300   22.8220 H         1 <0>         0.0000
     28 H9          3.3390    1.2570   22.0240 H         1 <0>         0.0000
     29 H10         9.0170   -0.5810   23.5510 H         1 <0>         0.0000
     30 H11         9.0320    1.0090   24.0280 H         1 <0>         0.0000
     31 H12         6.8260    0.1380   22.6840 H         1 <0>         0.0000
     32 H13        11.2170    4.8500   24.2180 H         1 <0>         0.0000
     33 H14        12.2690    4.9850   22.7770 H         1 <0>         0.0000
     34 N3         14.0840    4.6890   24.9620 N.am      1 <0>         0.0000
     35 O3         13.5980    6.7680   24.3520 O.2       1 <0>         0.0000
     36 C15        13.1910    3.7120   24.4280 C.3       1 <0>         0.0000
     37 C16        12.2490    4.8070   23.8550 C.3       1 <0>         0.0000
     38 C17        13.2530    5.6220   24.6130 C.2       1 <0>         0.0000
     39 H15        15.0750    4.7250   24.7100 H         1 <0>         0.0000
     40 H16        12.7430    3.1090   25.2200 H         1 <0>         0.0000
@<TRIPOS>BOND
     1    5   24 1
     2    5   15 ar
     3    6   15 ar
     4    1    5 ar
     5    6   25 1
     6    6    9 ar
     7    1   20 1
     8    1    7 ar
     9    7    9 ar
    10    9   16 1
    11    7   13 1
    12   12   17 2
    13   11   19 1
    14   12   16 am
    15   16   31 1
    16   12   14 1
    17   13   28 1
    18   13   26 1
    19   13   27 1
    20    3   11 ar
    21    4   11 ar
    22    3   22 1
    23    4   23 1
    24    3    8 ar
    25    4   10 ar
    26   33   37 1
    27    8   14 1
    28    2    8 ar
    29    2   10 ar
    30   10   18 1
    31   14   29 1
    32   14   30 1
    33    2   21 1
    34   18   36 1
    35   32   37 1
    36   36   37 1
    37   37   38 1
    38   35   38 2
    39   34   36 1
    40   36   40 1
    41   34   38 am
    42   34   39 1
@<TRIPOS>MOLECULE
*****
   40    42     0     0     0
SMALL
NO_CHARGES

@<TRIPOS>ATOM
      1 C1          5.1950    0.8100   20.0510 C.ar      1 <0>         0.0000
      2 C2         12.7500    1.6080   23.1240 C.ar      1 <0>         0.0000
      3 C3         13.0350   -0.3710   21.7950 C.ar      1 <0>         0.0000
      4 C4         14.9300    1.1350   22.0460 C.ar      1 <0>         0.0000
      5 C5          5.6790    0.8000   18.7400 C.ar      1 <0>         0.0000
      6 C6          7.7920    0.4480   19.4170 C.ar      1 <0>         0.0000
      7 C7          6.1050    0.7200   21.0900 C.ar      1 <0>         0.0000
      8 C8         12.1960    0.4400   22.5980 C.ar      1 <0>         0.0000
      9 C9          7.4420    0.5470   20.7910 C.ar      1 <0>         0.0000
     10 C10        14.0760    1.9510   22.7940 C.ar      1 <0>         0.0000
     11 C11        14.3870   -0.0430   21.4760 C.ar      1 <0>         0.0000
     12 C12         9.7610    0.6600   21.7870 C.2       1 <0>         0.0000
     13 C13         5.6210    0.9370   22.5190 C.3       1 <0>         0.0000
     14 C14        10.7330    0.0410   22.7770 C.3       1 <0>         0.0000
     15 N1          6.9020    0.5690   18.3730 N.ar      1 <0>         0.0000
     16 N2          8.4010    0.3990   21.8450 N.am      1 <0>         0.0000
     17 O1         10.1880    1.4960   21.0570 O.2       1 <0>         0.0000
     18 O2         14.6670    3.1330   23.2980 O.3       1 <0>         0.0000
     19 Cl1        15.2800   -1.1560   20.5070 Cl        1 <0>         0.0000
     20 H1          4.1210    0.9280   20.1840 H         1 <0>         0.0000
     21 H2         12.1790    2.2050   23.8230 H         1 <0>         0.0000
     22 H3         12.5760   -1.2880   21.4400 H         1 <0>         0.0000
     23 H4         15.9600    1.4570   21.9390 H         1 <0>         0.0000
     24 H5          4.9840    0.9460   17.9210 H         1 <0>         0.0000
     25 H6          8.8030    0.1660   19.1270 H         1 <0>         0.0000
     26 H7          4.5400    1.0500   22.4700 H         1 <0>         0.0000
     27 H8          5.8040    0.0380   23.1180 H         1 <0>         0.0000
     28 H9          6.2100    1.7880   22.8640 H         1 <0>         0.0000
     29 H10        10.6540   -1.0470   22.6400 H         1 <0>         0.0000
     30 H11        10.4530    0.2760   23.8110 H         1 <0>         0.0000
     31 H12         8.1560   -0.1070   22.6960 H         1 <0>         0.0000
     32 N3         14.4880    5.5460   23.6440 N.am      1 <0>         0.0000
     33 O3         13.3220    7.1890   22.6530 O.2       1 <0>         0.0000
     34 C15        13.8430    4.2430   23.6230 C.3       1 <0>         0.0000
     35 C16        12.9870    4.7640   22.3830 C.3       1 <0>         0.0000
     36 C17        13.7670    6.0280   22.6500 C.2       1 <0>         0.0000
     37 H13        14.5010    6.1530   24.4590 H         1 <0>         0.0000
     38 H14        13.1730    4.0820   24.4700 H         1 <0>         0.0000
     39 H15        13.2060    4.2150   21.4560 H         1 <0>         0.0000
     40 H16        11.9190    4.9510   22.4880 H         1 <0>         0.0000
@<TRIPOS>BOND
     1    5   24 1
     2    5   15 ar
     3    6   15 ar
     4    1    5 ar
     5    6   25 1
     6    6    9 ar
     7    1   20 1
     8    1    7 ar
     9   11   19 1
    10    7    9 ar
    11    9   16 1
    12   12   17 2
    13    7   13 1
    14    3   22 1
    15   35   39 1
    16    3   11 ar
    17    4   11 ar
    18   12   16 am
    19   12   14 1
    20    3    8 ar
    21   16   31 1
    22    4   23 1
    23    4   10 ar
    24   35   40 1
    25   35   36 1
    26   34   35 1
    27   13   26 1
    28   13   28 1
    29   13   27 1
    30    8   14 1
    31    2    8 ar
    32   14   29 1
    33   33   36 2
    34   32   36 am
    35   14   30 1
    36    2   10 ar
    37   10   18 1
    38    2   21 1
    39   18   34 1
    40   32   34 1
    41   34   38 1
    42   32   37 1
@<TRIPOS>MOLECULE
*****
   40    42     0     0     0
SMALL
NO_CHARGES

@<TRIPOS>ATOM
      1 C1          5.8430    1.8580   19.3540 C.ar      1 <0>         0.0000
      2 C2         11.9800   -0.2730   23.6390 C.ar      1 <0>         0.0000
      3 C3         12.1590   -2.0440   22.0510 C.ar      1 <0>         0.0000
      4 C4         14.1320   -0.9570   22.8030 C.ar      1 <0>         0.0000
      5 C5          6.1640    1.2240   18.1620 C.ar      1 <0>         0.0000
      6 C6          7.7470   -0.0590   19.2850 C.ar      1 <0>         0.0000
      7 C7          6.3830    1.4520   20.5350 C.ar      1 <0>         0.0000
      8 C8         11.3640   -1.2220   22.8370 C.ar      1 <0>         0.0000
      9 C9          7.3520    0.4820   20.5520 C.ar      1 <0>         0.0000
     10 C10        13.3540   -0.1180   23.6070 C.ar      1 <0>         0.0000
     11 C11        13.5250   -1.9130   22.0600 C.ar      1 <0>         0.0000
     12 C12         9.3210   -0.2710   21.9260 C.2       1 <0>         0.0000
     13 C13         5.7460    2.0310   21.8000 C.3       1 <0>         0.0000
     14 C14         9.9430   -1.3140   22.8820 C.3       1 <0>         0.0000
     15 N1          7.1480    0.2850   18.0620 N.ar      1 <0>         0.0000
     16 N2          7.9560   -0.0450   21.7820 N.am      1 <0>         0.0000
     17 O1          9.9970    0.6120   21.3130 O.2       1 <0>         0.0000
     18 O2         13.9850    0.8600   24.3230 O.3       1 <0>         0.0000
     19 Cl1        14.4500   -3.0860   21.1650 Cl        1 <0>         0.0000
     20 H1          5.1460    2.6790   19.2190 H         1 <0>         0.0000
     21 H2         11.3370    0.3330   24.2740 H         1 <0>         0.0000
     22 H3         11.7670   -2.7450   21.3240 H         1 <0>         0.0000
     23 H4         15.2070   -0.8730   22.6990 H         1 <0>         0.0000
     24 H5          5.6630    1.5290   17.2410 H         1 <0>         0.0000
     25 H6          8.4620   -0.8600   19.4060 H         1 <0>         0.0000
     26 H7          6.5230    2.4840   22.4120 H         1 <0>         0.0000
     27 H8          4.9890    2.8040   21.5840 H         1 <0>         0.0000
     28 H9          5.2360    1.2430   22.3610 H         1 <0>         0.0000
     29 H10         9.7230   -2.3290   22.5260 H         1 <0>         0.0000
     30 H11         9.7120   -1.0430   23.9130 H         1 <0>         0.0000
     31 H12         7.4290   -0.3630   22.5890 H         1 <0>         0.0000
     32 H13        15.4320    3.0380   24.4650 H         1 <0>         0.0000
     33 H14        12.8090    2.0750   25.3790 H         1 <0>         0.0000
     34 H15        12.7590    2.1680   22.4210 H         1 <0>         0.0000
     35 H16        11.8040    3.3360   23.4840 H         1 <0>         0.0000
     36 N3         14.4450    3.2390   24.5770 N.am      1 <0>         0.0000
     37 O3         14.2920    4.6620   22.7560 O.2       1 <0>         0.0000
     38 C15        13.4590    2.1610   24.4920 C.3       1 <0>         0.0000
     39 C16        12.7460    2.8120   23.3030 C.3       1 <0>         0.0000
     40 C17        13.8670    3.7960   23.5220 C.2       1 <0>         0.0000
@<TRIPOS>BOND
     1    5   24 1
     2    5   15 ar
     3    6   15 ar
     4    1    5 ar
     5    1   20 1
     6    6   25 1
     7    6    9 ar
     8    1    7 ar
     9    7    9 ar
    10    7   13 1
    11    9   16 1
    12   11   19 1
    13   12   17 2
    14    3   22 1
    15   13   27 1
    16   12   16 am
    17   16   31 1
    18   13   28 1
    19   13   26 1
    20   12   14 1
    21    3   11 ar
    22    3    8 ar
    23    4   11 ar
    24   34   39 1
    25   14   29 1
    26    4   23 1
    27   37   40 2
    28    4   10 ar
    29    8   14 1
    30    2    8 ar
    31   14   30 1
    32   35   39 1
    33   39   40 1
    34   38   39 1
    35   36   40 am
    36    2   10 ar
    37   10   18 1
    38    2   21 1
    39   18   38 1
    40   32   36 1
    41   36   38 1
    42   33   38 1
@<TRIPOS>MOLECULE
*****
   40    42     0     0     0
SMALL
NO_CHARGES

@<TRIPOS>ATOM
      1 C1          5.2840    0.5780   20.3110 C.ar      1 <0>         0.0000
      2 C2         12.8450    1.7160   23.1040 C.ar      1 <0>         0.0000
      3 C3         12.8340   -0.4330   22.0280 C.ar      1 <0>         0.0000
      4 C4         14.8040    0.9010   21.9110 C.ar      1 <0>         0.0000
      5 C5          5.7750    0.4450   19.0060 C.ar      1 <0>         0.0000
      6 C6          7.8720   -0.0070   19.7760 C.ar      1 <0>         0.0000
      7 C7          6.1040    0.4330   21.3900 C.ar      1 <0>         0.0000
      8 C8         12.1640    0.5160   22.8300 C.ar      1 <0>         0.0000
      9 C9          7.4110    0.2350   21.1540 C.ar      1 <0>         0.0000
     10 C10        14.1240    1.9220   22.5800 C.ar      1 <0>         0.0000
     11 C11        14.1460   -0.2470   21.6030 C.ar      1 <0>         0.0000
     12 C12         9.6350    0.6380   22.1860 C.2       1 <0>         0.0000
     13 C13         5.4470    0.4390   22.7460 C.3       1 <0>         0.0000
     14 C14        10.7410    0.3530   23.2750 C.3       1 <0>         0.0000
     15 N1          7.0760    0.1400   18.7510 N.ar      1 <0>         0.0000
     16 N2          8.3130    0.1880   22.2340 N.am      1 <0>         0.0000
     17 O1          9.8840    1.4420   21.3320 O.2       1 <0>         0.0000
     18 O2         14.7030    3.2140   22.7060 O.3       1 <0>         0.0000
     19 Cl1        14.8300   -1.5250   20.5880 Cl        1 <0>         0.0000
     20 H1          4.2250    0.7370   20.5180 H         1 <0>         0.0000
     21 H2         12.3820    2.4720   23.7260 H         1 <0>         0.0000
     22 H3         12.2890   -1.3000   21.6730 H         1 <0>         0.0000
     23 H4         15.8330    0.9970   21.5870 H         1 <0>         0.0000
     24 H5          5.0900    0.5810   18.1720 H         1 <0>         0.0000
     25 H6          8.8900   -0.3180   19.5710 H         1 <0>         0.0000
     26 H7          5.8170    1.2090   23.4320 H         1 <0>         0.0000
     27 H8          4.3930    0.7280   22.7850 H         1 <0>         0.0000
     28 H9          5.6180   -0.5430   23.1860 H         1 <0>         0.0000
     29 H10        10.5120   -0.6260   23.6950 H         1 <0>         0.0000
     30 H11        10.4460    0.9340   24.1580 H         1 <0>         0.0000
     31 H12         8.1200   -0.3390   23.0830 H         1 <0>         0.0000
     32 H13        13.4360    4.3490   23.9240 H         1 <0>         0.0000
     33 H14        13.1170    4.1730   20.9630 H         1 <0>         0.0000
     34 H15        12.0300    5.0510   22.1590 H         1 <0>         0.0000
     35 N3         14.7720    5.5950   22.8560 N.am      1 <0>         0.0000
     36 O3         13.6710    7.2290   21.6960 O.2       1 <0>         0.0000
     37 C15        14.0090    4.3890   22.9880 C.3       1 <0>         0.0000
     38 C16        13.0460    4.8080   21.8540 C.3       1 <0>         0.0000
     39 C17        13.9380    6.0590   21.9290 C.2       1 <0>         0.0000
     40 H16        15.0460    6.2520   23.5920 H         1 <0>         0.0000
@<TRIPOS>BOND
     1    5   24 1
     2    5   15 ar
     3    6   15 ar
     4    1    5 ar
     5    6   25 1
     6    6    9 ar
     7    1   20 1
     8    1    7 ar
     9   11   19 1
    10   33   38 1
    11    7    9 ar
    12    9   16 1
    13   12   17 2
    14    7   13 1
    15    4   23 1
    16    4   11 ar
    17    3   11 ar
    18    3   22 1
    19   36   39 2
    20   38   39 1
    21   34   38 1
    22   37   38 1
    23    4   10 ar
    24   35   39 am
    25    3    8 ar
    26   12   16 am
    27   12   14 1
    28   16   31 1
    29   10   18 1
    30    2   10 ar
    31   18   37 1
    32   13   27 1
    33   13   28 1
    34   13   26 1
    35    2    8 ar
    36    8   14 1
    37   35   37 1
    38   35   40 1
    39   32   37 1
    40    2   21 1
    41   14   29 1
    42   14   30 1
@<TRIPOS>MOLECULE
*****
   40    42     0     0     0
SMALL
NO_CHARGES

@<TRIPOS>ATOM
      1 C1          6.8420    1.8310   19.8940 C.ar      1 <0>         0.0000
      2 C2         10.8370   -2.7420   23.5370 C.ar      1 <0>         0.0000
      3 C3         11.2770   -3.3630   21.2490 C.ar      1 <0>         0.0000
      4 C4         13.0740   -2.8050   22.7710 C.ar      1 <0>         0.0000
      5 C5          6.6010    1.5680   18.5120 C.ar      1 <0>         0.0000
      6 C6          7.5240   -0.5100   18.8740 C.ar      1 <0>         0.0000
      7 C7          7.5140    0.9640   20.7780 C.ar      1 <0>         0.0000
      8 C8         10.3400   -3.1220   22.2610 C.ar      1 <0>         0.0000
      9 C9          7.8250   -0.2630   20.2000 C.ar      1 <0>         0.0000
     10 C10        12.1750   -2.5200   23.7780 C.ar      1 <0>         0.0000
     11 C11        12.5920   -3.2330   21.4610 C.ar      1 <0>         0.0000
     12 C12         8.2740   -2.5880   21.0140 C.2       1 <0>         0.0000
     13 C13         7.7730    1.2910   22.2210 C.3       1 <0>         0.0000
     14 C14         8.8490   -3.4940   22.0040 C.3       1 <0>         0.0000
     15 N1          6.9200    0.4490   18.0170 N.ar      1 <0>         0.0000
     16 N2          8.4810   -1.2690   20.9920 N.am      1 <0>         0.0000
     17 O1          7.4690   -3.0180   20.1630 O.2       1 <0>         0.0000
     18 O2         12.6220   -2.1760   25.0840 O.3       1 <0>         0.0000
     19 Cl1        13.7730   -3.8400   20.2600 Cl        1 <0>         0.0000
     20 H1          6.6010    2.7910   20.3310 H         1 <0>         0.0000
     21 H2         10.1000   -2.5930   24.3140 H         1 <0>         0.0000
     22 H3         10.8720   -3.5390   20.2590 H         1 <0>         0.0000
     23 H4         14.1410   -2.6940   22.8960 H         1 <0>         0.0000
     24 H5          6.1180    2.2960   17.8680 H         1 <0>         0.0000
     25 H6          7.8000   -1.4720   18.4790 H         1 <0>         0.0000
     26 H7          7.0970    2.0430   22.6430 H         1 <0>         0.0000
     27 H8          7.5290    0.4150   22.8390 H         1 <0>         0.0000
     28 H9          8.8270    1.5400   22.3600 H         1 <0>         0.0000
     29 H10         8.7810   -4.5030   21.5830 H         1 <0>         0.0000
     30 H11         8.3680   -3.3930   22.9830 H         1 <0>         0.0000
     31 H12         9.1910   -0.9160   21.6190 H         1 <0>         0.0000
     32 H13        14.6300   -1.9430   24.5860 H         1 <0>         0.0000
     33 H14        15.2520   -4.1610   25.3500 H         1 <0>         0.0000
     34 H15        13.7500   -4.2510   26.4470 H         1 <0>         0.0000
     35 N3         14.4910   -1.6210   26.6410 N.am      1 <0>         0.0000
     36 O3         15.6130   -2.9240   28.0760 O.2       1 <0>         0.0000
     37 C15        14.0070   -2.2820   25.4300 C.3       1 <0>         0.0000
     38 C16        14.5290   -3.6420   25.9890 C.3       1 <0>         0.0000
     39 C17        15.1410   -2.6740   27.0060 C.2       1 <0>         0.0000
     40 H16        13.8930   -1.0860   27.2770 H         1 <0>         0.0000
@<TRIPOS>BOND
     1    5   24 1
     2    5   15 ar
     3    6   15 ar
     4    6   25 1
     5    1    5 ar
     6    6    9 ar
     7    1   20 1
     8    1    7 ar
     9   12   17 2
    10    7    9 ar
    11    9   16 1
    12    3   22 1
    13   11   19 1
    14    7   13 1
    15   12   16 am
    16   16   31 1
    17   12   14 1
    18    3   11 ar
    19    3    8 ar
    20    4   11 ar
    21   14   29 1
    22    8   14 1
    23   14   30 1
    24   13   28 1
    25   13   26 1
    26   13   27 1
    27    2    8 ar
    28    4   23 1
    29    4   10 ar
    30    2   10 ar
    31    2   21 1
    32   10   18 1
    33   32   37 1
    34   18   37 1
    35   33   38 1
    36   37   38 1
    37   35   37 1
    38   34   38 1
    39   38   39 1
    40   35   39 am
    41   35   40 1
    42   36   39 2
@<TRIPOS>MOLECULE
*****
   40    42     0     0     0
SMALL
NO_CHARGES

@<TRIPOS>ATOM
      1 C1          4.0590    1.7300   18.5010 C.ar      1 <0>         0.0000
      2 C2         10.8390    1.7210   22.5730 C.ar      1 <0>         0.0000
      3 C3         10.7590   -0.5610   21.8670 C.ar      1 <0>         0.0000
      4 C4         12.8210    0.5510   22.1330 C.ar      1 <0>         0.0000
      5 C5          4.8130    1.8080   17.3460 C.ar      1 <0>         0.0000
      6 C6          6.6470    1.0910   18.5180 C.ar      1 <0>         0.0000
      7 C7          4.6650    1.5050   19.7010 C.ar      1 <0>         0.0000
      8 C8         10.1150    0.5500   22.3190 C.ar      1 <0>         0.0000
      9 C9          5.9520    1.1700   19.7410 C.ar      1 <0>         0.0000
     10 C10        12.2220    1.6870   22.4990 C.ar      1 <0>         0.0000
     11 C11        12.1050   -0.5650   21.7710 C.ar      1 <0>         0.0000
     12 C12         7.8960    1.2600   21.3020 C.2       1 <0>         0.0000
     13 C13         3.8910    1.8040   20.9220 C.3       1 <0>         0.0000
     14 C14         8.6060    0.6950   22.5290 C.3       1 <0>         0.0000
     15 N1          6.0660    1.3340   17.3170 N.ar      1 <0>         0.0000
     16 N2          6.5530    0.8880   21.0360 N.am      1 <0>         0.0000
     17 O1          8.4170    2.1040   20.5570 O.2       1 <0>         0.0000
     18 O2         12.9970    2.7680   22.8610 O.3       1 <0>         0.0000
     19 Cl1        12.8930   -1.8730   20.9470 Cl        1 <0>         0.0000
     20 H1          3.0410    2.0990   18.5020 H         1 <0>         0.0000
     21 H2         10.3390    2.6070   22.9480 H         1 <0>         0.0000
     22 H3         10.2180   -1.4230   21.4730 H         1 <0>         0.0000
     23 H4         13.8970    0.4620   22.0680 H         1 <0>         0.0000
     24 H5          4.5000    2.0980   16.3470 H         1 <0>         0.0000
     25 H6          7.6510    0.6950   18.4620 H         1 <0>         0.0000
     26 H7          4.3480    2.5640   21.5550 H         1 <0>         0.0000
     27 H8          2.9030    2.2340   20.7300 H         1 <0>         0.0000
     28 H9          3.8750    0.9360   21.5850 H         1 <0>         0.0000
     29 H10         8.1820   -0.2730   22.8150 H         1 <0>         0.0000
     30 H11         8.4190    1.4220   23.3270 H         1 <0>         0.0000
     31 H12         5.9440    0.4380   21.7190 H         1 <0>         0.0000
     32 H13        12.0510    4.1300   21.5450 H         1 <0>         0.0000
     33 H14        14.9640    4.7190   22.4140 H         1 <0>         0.0000
     34 H15        13.9830    5.3610   21.0700 H         1 <0>         0.0000
     35 N3         12.3350    5.0620   23.4310 N.am      1 <0>         0.0000
     36 O3         13.8250    6.5740   24.0340 O.2       1 <0>         0.0000
     37 C15        12.7240    4.1040   22.4040 C.3       1 <0>         0.0000
     38 C16        13.9560    5.0130   22.1040 C.3       1 <0>         0.0000
     39 C17        13.3210    5.8380   23.1900 C.2       1 <0>         0.0000
     40 H16        12.1120    4.7800   24.3840 H         1 <0>         0.0000
@<TRIPOS>BOND
     1    5   24 1
     2    5   15 ar
     3    6   15 ar
     4    1    5 ar
     5    6   25 1
     6    1   20 1
     7    1    7 ar
     8    6    9 ar
     9    7    9 ar
    10    7   13 1
    11    9   16 1
    12   12   17 2
    13   13   27 1
    14   13   26 1
    15   13   28 1
    16   11   19 1
    17   12   16 am
    18   16   31 1
    19   34   38 1
    20   12   14 1
    21    3   22 1
    22   32   37 1
    23    3   11 ar
    24    4   11 ar
    25    3    8 ar
    26    4   23 1
    27   37   38 1
    28   33   38 1
    29   38   39 1
    30    4   10 ar
    31    8   14 1
    32    2    8 ar
    33   18   37 1
    34   35   37 1
    35    2   10 ar
    36   10   18 1
    37   14   29 1
    38   14   30 1
    39    2   21 1
    40   35   39 am
    41   36   39 2
    42   35   40 1
@<TRIPOS>MOLECULE
*****
   40    42     0     0     0
SMALL
NO_CHARGES

@<TRIPOS>ATOM
      1 C1          5.0050    1.4160   19.4450 C.ar      1 <0>         0.0000
      2 C2         12.1330    1.9400   23.3790 C.ar      1 <0>         0.0000
      3 C3         12.1050   -0.3170   22.6030 C.ar      1 <0>         0.0000
      4 C4         14.1890    0.8360   22.6600 C.ar      1 <0>         0.0000
      5 C5          5.6940    1.1520   18.2170 C.ar      1 <0>         0.0000
      6 C6          7.6550    0.8490   19.2200 C.ar      1 <0>         0.0000
      7 C7          5.7330    1.4920   20.5770 C.ar      1 <0>         0.0000
      8 C8         11.4180    0.7980   23.1210 C.ar      1 <0>         0.0000
      9 C9          7.0780    1.1410   20.5010 C.ar      1 <0>         0.0000
     10 C10        13.4960    1.9910   23.1120 C.ar      1 <0>         0.0000
     11 C11        13.5190   -0.3270   22.4150 C.ar      1 <0>         0.0000
     12 C12         9.2160    1.1980   21.8380 C.2       1 <0>         0.0000
     13 C13         5.1600    1.9230   21.8460 C.3       1 <0>         0.0000
     14 C14         9.8710    0.7520   23.1670 C.3       1 <0>         0.0000
     15 N1          6.9880    0.9070   18.0500 N.ar      1 <0>         0.0000
     16 N2          7.8520    0.9120   21.6470 N.am      1 <0>         0.0000
     17 O1          9.7400    2.0730   21.1280 O.2       1 <0>         0.0000
     18 O2         14.3170    3.1090   23.3340 O.3       1 <0>         0.0000
     19 Cl1        14.3520   -1.7730   21.8830 Cl        1 <0>         0.0000
     20 H1          3.9320    1.5800   19.4080 H         1 <0>         0.0000
     21 H2         11.6780    2.8560   23.7240 H         1 <0>         0.0000
     22 H3         11.5000   -1.2120   22.4880 H         1 <0>         0.0000
     23 H4         15.2420    0.9010   22.4300 H         1 <0>         0.0000
     24 H5          5.0620    1.0020   17.3460 H         1 <0>         0.0000
     25 H6          8.7080    0.5810   19.2300 H         1 <0>         0.0000
     26 H7          5.7970    2.5460   22.4790 H         1 <0>         0.0000
     27 H8          4.2560    2.5160   21.6480 H         1 <0>         0.0000
     28 H9          4.7590    1.0510   22.3750 H         1 <0>         0.0000
     29 H10         9.6030   -0.2880   23.3720 H         1 <0>         0.0000
     30 H11         9.4580    1.3550   23.9830 H         1 <0>         0.0000
     31 H12         7.3430    0.5050   22.4310 H         1 <0>         0.0000
     32 N3         14.4890    5.5060   23.5970 N.am      1 <0>         0.0000
     33 O3         13.5960    7.3490   22.5420 O.2       1 <0>         0.0000
     34 C15        13.6120    4.3510   23.5380 C.3       1 <0>         0.0000
     35 C16        12.8750    5.0610   22.2430 C.3       1 <0>         0.0000
     36 C17        13.8150    6.1480   22.5800 C.2       1 <0>         0.0000
     37 H13        14.7730    5.9010   24.4960 H         1 <0>         0.0000
     38 H14        13.0610    4.4170   24.4860 H         1 <0>         0.0000
     39 H15        11.8080    5.3270   22.3760 H         1 <0>         0.0000
     40 H16        13.0380    4.6570   21.2520 H         1 <0>         0.0000
@<TRIPOS>BOND
     1    5   24 1
     2    5   15 ar
     3    6   15 ar
     4    1    5 ar
     5    6   25 1
     6    6    9 ar
     7    1   20 1
     8    1    7 ar
     9    7    9 ar
    10    9   16 1
    11    7   13 1
    12   12   17 2
    13   35   40 1
    14   12   16 am
    15   16   31 1
    16   13   27 1
    17   12   14 1
    18   13   28 1
    19   13   26 1
    20   11   19 1
    21   35   39 1
    22   35   36 1
    23   34   35 1
    24    3   11 ar
    25    4   11 ar
    26    4   23 1
    27    3   22 1
    28   33   36 2
    29   32   36 am
    30    3    8 ar
    31    4   10 ar
    32   10   18 1
    33    2   10 ar
    34    8   14 1
    35    2    8 ar
    36   14   29 1
    37   14   30 1
    38   18   34 1
    39    2   21 1
    40   32   34 1
    41   34   38 1
    42   32   37 1
@<TRIPOS>MOLECULE
*****
   40    42     0     0     0
SMALL
NO_CHARGES

@<TRIPOS>ATOM
      1 C1          4.7670    1.6720   18.9140 C.ar      1 <0>         0.0000
      2 C2         11.7960    2.0330   23.1320 C.ar      1 <0>         0.0000
      3 C3         11.6700   -0.1760   22.0470 C.ar      1 <0>         0.0000
      4 C4         13.7780    1.0930   22.1060 C.ar      1 <0>         0.0000
      5 C5          5.4420    1.1350   17.7700 C.ar      1 <0>         0.0000
      6 C6          7.3290    0.7450   19.0240 C.ar      1 <0>         0.0000
      7 C7          5.4940    1.7520   20.1050 C.ar      1 <0>         0.0000
      8 C8         11.0400    0.8500   22.7440 C.ar      1 <0>         0.0000
      9 C9          6.8230    1.3940   20.1370 C.ar      1 <0>         0.0000
     10 C10        13.1630    2.1480   22.7960 C.ar      1 <0>         0.0000
     11 C11        13.0080   -0.0460   21.7730 C.ar      1 <0>         0.0000
     12 C12         8.8990    1.4950   21.5290 C.2       1 <0>         0.0000
     13 C13         4.7720    2.3790   21.2960 C.3       1 <0>         0.0000
     14 C14         9.5260    0.9010   22.7980 C.3       1 <0>         0.0000
     15 N1          6.6850    0.6690   17.8520 N.ar      1 <0>         0.0000
     16 N2          7.5230    1.4030   21.3440 N.am      1 <0>         0.0000
     17 O1          9.6310    1.8070   20.5870 O.2       1 <0>         0.0000
     18 O2         13.9580    3.2070   23.1950 O.3       1 <0>         0.0000
     19 Cl1        13.7760   -1.3180   20.9060 Cl        1 <0>         0.0000
     20 H1          3.7240    1.9730   18.8860 H         1 <0>         0.0000
     21 H2         11.2480    2.9000   23.4950 H         1 <0>         0.0000
     22 H3         11.2080   -1.0610   21.6280 H         1 <0>         0.0000
     23 H4         14.7890    1.2320   21.7410 H         1 <0>         0.0000
     24 H5          5.0280    1.0120   16.7730 H         1 <0>         0.0000
     25 H6          8.2900    0.2690   19.1310 H         1 <0>         0.0000
     26 H7          5.4240    2.3490   22.1860 H         1 <0>         0.0000
     27 H8          4.4630    3.3860   21.0050 H         1 <0>         0.0000
     28 H9          3.9000    1.7220   21.4240 H         1 <0>         0.0000
     29 H10         9.0000   -0.0530   22.8430 H         1 <0>         0.0000
     30 H11         9.2540    1.5160   23.6660 H         1 <0>         0.0000
     31 H12         6.9720    1.0760   22.1390 H         1 <0>         0.0000
     32 H13        15.4500    5.1730   24.0820 H         1 <0>         0.0000
     33 H14        12.7430    4.1900   24.7250 H         1 <0>         0.0000
     34 H15        12.5620    4.9460   21.8220 H         1 <0>         0.0000
     35 H16        11.6100    5.5790   23.1800 H         1 <0>         0.0000
     36 N3         14.4450    5.3460   24.0400 N.am      1 <0>         0.0000
     37 O3         14.2890    7.0160   22.5510 O.2       1 <0>         0.0000
     38 C15        13.3930    4.3190   23.8520 C.3       1 <0>         0.0000
     39 C16        12.6150    5.3260   22.8440 C.3       1 <0>         0.0000
     40 C17        13.7920    6.1510   23.2060 C.2       1 <0>         0.0000
@<TRIPOS>BOND
     1    5   24 1
     2    5   15 ar
     3    1    5 ar
     4    6   15 ar
     5    1   20 1
     6    1    7 ar
     7    6   25 1
     8    6    9 ar
     9    7    9 ar
    10    7   13 1
    11    9   16 1
    12   12   17 2
    13   11   19 1
    14   13   27 1
    15   13   28 1
    16   13   26 1
    17   12   16 am
    18   16   31 1
    19   12   14 1
    20    3   22 1
    21    4   23 1
    22    3   11 ar
    23    4   11 ar
    24   34   39 1
    25    3    8 ar
    26    4   10 ar
    27   37   40 2
    28    8   14 1
    29    2    8 ar
    30    2   10 ar
    31   10   18 1
    32   14   29 1
    33   14   30 1
    34   35   39 1
    35   39   40 1
    36   38   39 1
    37    2   21 1
    38   18   38 1
    39   36   40 am
    40   36   38 1
    41   33   38 1
    42   32   36 1
@<TRIPOS>MOLECULE
*****
   40    42     0     0     0
SMALL
NO_CHARGES

@<TRIPOS>ATOM
      1 C1          4.7830    0.9790   19.0480 C.ar      1 <0>         0.0000
      2 C2         11.5420    1.6760   23.1790 C.ar      1 <0>         0.0000
      3 C3         12.1230   -0.5170   22.2550 C.ar      1 <0>         0.0000
      4 C4         13.7620    1.2200   22.4920 C.ar      1 <0>         0.0000
      5 C5          5.4680    0.7850   17.8450 C.ar      1 <0>         0.0000
      6 C6          7.4430    0.4410   19.0020 C.ar      1 <0>         0.0000
      7 C7          5.4330    0.7950   20.3190 C.ar      1 <0>         0.0000
      8 C8         11.1470    0.4010   22.7260 C.ar      1 <0>         0.0000
      9 C9          6.8150    0.5070   20.2560 C.ar      1 <0>         0.0000
     10 C10        12.8470    2.1330   23.0210 C.ar      1 <0>         0.0000
     11 C11        13.4360   -0.0250   22.0190 C.ar      1 <0>         0.0000
     12 C12         8.8630    0.6960   21.7080 C.2       1 <0>         0.0000
     13 C13         4.7300    0.9180   21.6990 C.3       1 <0>         0.0000
     14 C14         9.7100   -0.0040   22.7400 C.3       1 <0>         0.0000
     15 N1          6.8650    0.5830   17.8040 N.ar      1 <0>         0.0000
     16 N2          7.5660    0.3280   21.4970 N.am      1 <0>         0.0000
     17 O1          9.3380    1.6700   21.0770 O.2       1 <0>         0.0000
     18 O2         13.3150    3.3690   23.3410 O.3       1 <0>         0.0000
     19 Cl1        14.6540   -1.0940   21.3800 Cl        1 <0>         0.0000
     20 H1          3.7180    1.1820   19.0150 H         1 <0>         0.0000
     21 H2         10.7960    2.2830   23.6750 H         1 <0>         0.0000
     22 H3         11.8290   -1.5000   21.8940 H         1 <0>         0.0000
     23 H4         14.7570    1.6510   22.4740 H         1 <0>         0.0000
     24 H5          4.9630    0.8360   16.8910 H         1 <0>         0.0000
     25 H6          8.4850    0.1450   18.9950 H         1 <0>         0.0000
     26 H7          4.4280   -0.0480   22.1070 H         1 <0>         0.0000
     27 H8          5.4280    1.3300   22.4320 H         1 <0>         0.0000
     28 H9          3.8100    1.5060   21.7430 H         1 <0>         0.0000
     29 H10         9.6400   -1.0710   22.5390 H         1 <0>         0.0000
     30 H11         9.3200    0.1300   23.7500 H         1 <0>         0.0000
     31 H12         7.1530   -0.2120   22.2580 H         1 <0>         0.0000
     32 H13        14.0220    6.0170   23.8060 H         1 <0>         0.0000
     33 H14        11.7610    4.3290   24.2710 H         1 <0>         0.0000
     34 H15        10.6690    5.1150   22.1720 H         1 <0>         0.0000
     35 H16        11.8830    4.4660   21.1280 H         1 <0>         0.0000
     36 N3         13.0890    5.7830   23.4460 N.am      1 <0>         0.0000
     37 O3         13.3020    6.6880   21.3140 O.2       1 <0>         0.0000
     38 C15        12.4510    4.4790   23.4380 C.3       1 <0>         0.0000
     39 C16        11.7350    4.9060   22.1110 C.3       1 <0>         0.0000
     40 C17        12.6600    6.0910   22.2080 C.2       1 <0>         0.0000
@<TRIPOS>BOND
     1    5   24 1
     2    5   15 ar
     3    6   15 ar
     4    1    5 ar
     5    6   25 1
     6    6    9 ar
     7    1   20 1
     8    1    7 ar
     9    7    9 ar
    10    9   16 1
    11    7   13 1
    12   12   17 2
    13   35   39 1
    14   37   40 2
    15   11   19 1
    16   12   16 am
    17   16   31 1
    18   13   28 1
    19   13   26 1
    20   13   27 1
    21   12   14 1
    22    3   22 1
    23    3   11 ar
    24    4   11 ar
    25   34   39 1
    26   39   40 1
    27   38   39 1
    28   36   40 am
    29    3    8 ar
    30    4   23 1
    31    4   10 ar
    32   14   29 1
    33    8   14 1
    34    2    8 ar
    35   14   30 1
    36    2   10 ar
    37   10   18 1
    38    2   21 1
    39   18   38 1
    40   36   38 1
    41   33   38 1
    42   32   36 1
@<TRIPOS>MOLECULE
*****
   40    42     0     0     0
SMALL
NO_CHARGES

@<TRIPOS>ATOM
      1 C1          4.2420    0.9870   18.5380 C.ar      1 <0>         0.0000
      2 C2         10.8770    1.8750   23.0170 C.ar      1 <0>         0.0000
      3 C3         11.0490   -0.5130   22.3990 C.ar      1 <0>         0.0000
      4 C4         12.9700    0.8870   22.4050 C.ar      1 <0>         0.0000
      5 C5          4.9940    0.9000   17.3270 C.ar      1 <0>         0.0000
      6 C6          6.8660    0.6130   18.5920 C.ar      1 <0>         0.0000
      7 C7          4.8420    0.9770   19.7690 C.ar      1 <0>         0.0000
      8 C8         10.2500    0.6300   22.6860 C.ar      1 <0>         0.0000
      9 C9          6.1390    0.7270   19.7940 C.ar      1 <0>         0.0000
     10 C10        12.2390    2.0160   22.7620 C.ar      1 <0>         0.0000
     11 C11        12.4440   -0.3600   22.2740 C.ar      1 <0>         0.0000
     12 C12         8.0270    1.0070   21.3930 C.2       1 <0>         0.0000
     13 C13         3.9640    1.0960   20.9520 C.3       1 <0>         0.0000
     14 C14         8.7190    0.5730   22.7430 C.3       1 <0>         0.0000
     15 N1          6.2870    0.6910   17.3630 N.ar      1 <0>         0.0000
     16 N2          6.7540    0.5620   21.0310 N.am      1 <0>         0.0000
     17 O1          8.4770    1.8810   20.7250 O.2       1 <0>         0.0000
     18 O2         12.9390    3.2760   22.8130 O.3       1 <0>         0.0000
     19 Cl1        13.4340   -1.6920   21.7720 Cl        1 <0>         0.0000
     20 H1          3.1700    1.1310   18.4210 H         1 <0>         0.0000
     21 H2         10.2720    2.7300   23.3380 H         1 <0>         0.0000
     22 H3         10.6080   -1.5010   22.3040 H         1 <0>         0.0000
     23 H4         14.0070    0.9730   22.1080 H         1 <0>         0.0000
     24 H5          4.4540    1.0250   16.3990 H         1 <0>         0.0000
     25 H6          7.8960    0.2850   18.6740 H         1 <0>         0.0000
     26 H7          4.1000    2.0770   21.4060 H         1 <0>         0.0000
     27 H8          2.9280    1.1580   20.6120 H         1 <0>         0.0000
     28 H9          4.0810    0.2190   21.6000 H         1 <0>         0.0000
     29 H10         8.3430   -0.4520   22.8580 H         1 <0>         0.0000
     30 H11         8.3500    1.2550   23.5100 H         1 <0>         0.0000
     31 H12         6.2000   -0.0890   21.5850 H         1 <0>         0.0000
     32 H13        11.8570    4.5330   24.1240 H         1 <0>         0.0000
     33 H14        11.2720    4.3670   21.2880 H         1 <0>         0.0000
     34 H15        10.3560    5.3430   22.5620 H         1 <0>         0.0000
     35 N3         13.2990    5.6450   23.0120 N.am      1 <0>         0.0000
     36 O3         12.2750    7.3520   21.7230 O.2       1 <0>         0.0000
     37 C15        12.3770    4.5090   23.1630 C.3       1 <0>         0.0000
     38 C16        11.3220    5.0680   22.1260 C.3       1 <0>         0.0000
     39 C17        12.4120    6.1720   22.1340 C.2       1 <0>         0.0000
     40 H16        13.5930    6.3500   23.6900 H         1 <0>         0.0000
@<TRIPOS>BOND
     1    5   24 1
     2    5   15 ar
     3    1    5 ar
     4    6   15 ar
     5    1   20 1
     6    1    7 ar
     7    6   25 1
     8    6    9 ar
     9    7    9 ar
    10    7   13 1
    11    9   16 1
    12   13   27 1
    13   12   17 2
    14   13   26 1
    15   13   28 1
    16   12   16 am
    17   16   31 1
    18   33   38 1
    19   12   14 1
    20   36   39 2
    21   11   19 1
    22    4   23 1
    23   38   39 1
    24   34   38 1
    25   37   38 1
    26   35   39 am
    27    3   11 ar
    28    4   11 ar
    29    3   22 1
    30    3    8 ar
    31    4   10 ar
    32    8   14 1
    33    2    8 ar
    34   14   29 1
    35   14   30 1
    36   10   18 1
    37    2   10 ar
    38   18   37 1
    39   35   37 1
    40   35   40 1
    41    2   21 1
    42   32   37 1
@<TRIPOS>MOLECULE
*****
   40    42     0     0     0
SMALL
NO_CHARGES

@<TRIPOS>ATOM
      1 C1          5.3150    0.6850   19.5170 C.ar      1 <0>         0.0000
      2 C2         12.0300    0.6400   23.0270 C.ar      1 <0>         0.0000
      3 C3         12.6780   -1.6980   23.0630 C.ar      1 <0>         0.0000
      4 C4         14.2290    0.0670   23.7520 C.ar      1 <0>         0.0000
      5 C5          5.8390    0.7190   18.2110 C.ar      1 <0>         0.0000
      6 C6          7.8970    0.0430   18.9880 C.ar      1 <0>         0.0000
      7 C7          6.0860    0.2530   20.5980 C.ar      1 <0>         0.0000
      8 C8         11.7200   -0.6780   22.8250 C.ar      1 <0>         0.0000
      9 C9          7.4120   -0.0990   20.3310 C.ar      1 <0>         0.0000
     10 C10        13.2710    1.0720   23.4860 C.ar      1 <0>         0.0000
     11 C11        13.9840   -1.2980   23.4610 C.ar      1 <0>         0.0000
     12 C12         9.5040   -0.4340   21.4900 C.2       1 <0>         0.0000
     13 C13         5.4790    0.2000   22.0170 C.3       1 <0>         0.0000
     14 C14        10.1890   -0.9970   22.7250 C.3       1 <0>         0.0000
     15 N1          7.1540    0.3910   17.9200 N.ar      1 <0>         0.0000
     16 N2          8.1530   -0.6830   21.3220 N.am      1 <0>         0.0000
     17 O1          9.9970    0.4540   20.7790 O.2       1 <0>         0.0000
     18 O2         13.6040    2.4050   23.7350 O.3       1 <0>         0.0000
     19 Cl1        15.1460   -2.5180   23.8840 Cl        1 <0>         0.0000
     20 H1          4.2480    0.8700   19.6100 H         1 <0>         0.0000
     21 H2         11.2220    1.3550   22.9680 H         1 <0>         0.0000
     22 H3         12.4580   -2.7200   22.7960 H         1 <0>         0.0000
     23 H4         15.1500    0.4320   24.1890 H         1 <0>         0.0000
     24 H5          5.1680    1.0290   17.4210 H         1 <0>         0.0000
     25 H6          8.9110   -0.3110   18.8180 H         1 <0>         0.0000
     26 H7          4.5030    0.6800   21.9030 H         1 <0>         0.0000
     27 H8          5.3580   -0.8250   22.3750 H         1 <0>         0.0000
     28 H9          6.0090    0.8800   22.6910 H         1 <0>         0.0000
     29 H10        10.0300   -2.0780   22.6900 H         1 <0>         0.0000
     30 H11         9.7360   -0.7340   23.6830 H         1 <0>         0.0000
     31 H12         7.6200   -1.2670   21.9570 H         1 <0>         0.0000
     32 N3         11.8840    4.1490   23.8610 N.am      1 <0>         0.0000
     33 O3         11.8920    6.4190   23.8450 O.2       1 <0>         0.0000
     34 C15        12.8630    3.4920   23.0170 C.3       1 <0>         0.0000
     35 C16        13.6640    4.9190   22.8930 C.3       1 <0>         0.0000
     36 C17        12.4550    5.3150   23.7140 C.2       1 <0>         0.0000
     37 H13        10.9110    4.2300   23.5780 H         1 <0>         0.0000
     38 H14        12.6050    3.2070   21.9890 H         1 <0>         0.0000
     39 H15        14.5950    5.0300   23.4490 H         1 <0>         0.0000
     40 H16        13.7740    5.4260   21.9290 H         1 <0>         0.0000
@<TRIPOS>BOND
     1    5   24 1
     2    5   15 ar
     3    6   15 ar
     4    1    5 ar
     5    6   25 1
     6    6    9 ar
     7    1   20 1
     8    1    7 ar
     9    7    9 ar
    10    9   16 1
    11    7   13 1
    12   12   17 2
    13   12   16 am
    14   16   31 1
    15   12   14 1
    16   13   26 1
    17   35   40 1
    18   34   38 1
    19   13   27 1
    20   13   28 1
    21   14   29 1
    22    8   14 1
    23   14   30 1
    24    3   22 1
    25    2    8 ar
    26    3    8 ar
    27   34   35 1
    28   35   39 1
    29   35   36 1
    30    2   21 1
    31   18   34 1
    32   32   34 1
    33    2   10 ar
    34    3   11 ar
    35    4   11 ar
    36   11   19 1
    37   10   18 1
    38    4   10 ar
    39   32   37 1
    40   33   36 2
    41   32   36 am
    42    4   23 1
@<TRIPOS>MOLECULE
*****
   40    42     0     0     0
SMALL
NO_CHARGES

@<TRIPOS>ATOM
      1 C1          4.9180    1.7530   19.1750 C.ar      1 <0>         0.0000
      2 C2         11.8670    1.8510   22.7590 C.ar      1 <0>         0.0000
      3 C3         11.9580   -0.4090   21.9400 C.ar      1 <0>         0.0000
      4 C4         13.9350    1.0250   22.0640 C.ar      1 <0>         0.0000
      5 C5          5.5870    1.3110   18.0480 C.ar      1 <0>         0.0000
      6 C6          7.3670    0.7630   19.2350 C.ar      1 <0>         0.0000
      7 C7          5.5270    1.6380   20.4780 C.ar      1 <0>         0.0000
      8 C8         11.2080    0.6250   22.4650 C.ar      1 <0>         0.0000
      9 C9          6.8310    1.1720   20.4940 C.ar      1 <0>         0.0000
     10 C10        13.2410    2.1020   22.5150 C.ar      1 <0>         0.0000
     11 C11        13.3560   -0.2400   21.8020 C.ar      1 <0>         0.0000
     12 C12         8.9180    1.2180   21.6850 C.2       1 <0>         0.0000
     13 C13         4.8310    2.1500   21.7150 C.3       1 <0>         0.0000
     14 C14         9.6930    0.4570   22.7290 C.3       1 <0>         0.0000
     15 N1          6.7640    0.8200   18.0400 N.ar      1 <0>         0.0000
     16 N2          7.5660    1.1990   21.6670 N.am      1 <0>         0.0000
     17 O1          9.5550    1.7980   20.7530 O.2       1 <0>         0.0000
     18 O2         14.0140    3.2190   22.8530 O.3       1 <0>         0.0000
     19 Cl1        14.3690   -1.5400   21.1770 Cl        1 <0>         0.0000
     20 H1          3.9350    2.2160   19.0830 H         1 <0>         0.0000
     21 H2         11.2410    2.6800   23.0810 H         1 <0>         0.0000
     22 H3         11.5360   -1.3030   21.4970 H         1 <0>         0.0000
     23 H4         15.0170    1.0920   22.0090 H         1 <0>         0.0000
     24 H5          5.0850    1.1790   17.0880 H         1 <0>         0.0000
     25 H6          8.3750    0.3730   19.1620 H         1 <0>         0.0000
     26 H7          3.8390    2.5930   21.5650 H         1 <0>         0.0000
     27 H8          4.8220    1.3380   22.4450 H         1 <0>         0.0000
     28 H9          5.4730    2.9260   22.1480 H         1 <0>         0.0000
     29 H10         9.3810   -0.5840   22.6400 H         1 <0>         0.0000
     30 H11         9.3530    0.8370   23.6920 H         1 <0>         0.0000
     31 H12         7.0810    0.8260   22.4850 H         1 <0>         0.0000
     32 H13        14.3730    6.0410   24.4980 H         1 <0>         0.0000
     33 H14        12.8890    4.0650   24.4690 H         1 <0>         0.0000
     34 H15        11.3250    4.9890   23.0640 H         1 <0>         0.0000
     35 H16        12.3320    4.8210   21.5770 H         1 <0>         0.0000
     36 N3         14.0910    5.5690   23.6330 N.am      1 <0>         0.0000
     37 O3         12.6840    7.3410   23.1300 O.2       1 <0>         0.0000
     38 C15        13.3410    4.3030   23.4990 C.3       1 <0>         0.0000
     39 C16        12.3320    5.0660   22.6380 C.3       1 <0>         0.0000
     40 C17        13.1240    6.2440   22.9580 C.2       1 <0>         0.0000
@<TRIPOS>BOND
     1    5   24 1
     2    5   15 ar
     3    6   15 ar
     4    1    5 ar
     5    1   20 1
     6    6   25 1
     7    1    7 ar
     8    6    9 ar
     9    7    9 ar
    10    7   13 1
    11    9   16 1
    12   12   17 2
    13   11   19 1
    14    3   22 1
    15   13   26 1
    16   35   39 1
    17   12   16 am
    18   16   31 1
    19   12   14 1
    20   13   28 1
    21   13   27 1
    22    3   11 ar
    23    4   11 ar
    24    3    8 ar
    25    4   23 1
    26    4   10 ar
    27    8   14 1
    28    2    8 ar
    29    2   10 ar
    30   10   18 1
    31   39   40 1
    32   34   39 1
    33   38   39 1
    34   14   29 1
    35   14   30 1
    36    2   21 1
    37   18   38 1
    38   37   40 2
    39   36   40 am
    40   36   38 1
    41   33   38 1
    42   32   36 1
@<TRIPOS>MOLECULE
*****
   40    42     0     0     0
SMALL
NO_CHARGES

@<TRIPOS>ATOM
      1 C1          5.1660    1.7020   18.6740 C.ar      1 <0>         0.0000
      2 C2         11.4820    0.9430   22.6630 C.ar      1 <0>         0.0000
      3 C3         11.8170   -1.1760   21.5810 C.ar      1 <0>         0.0000
      4 C4         13.7050    0.2090   22.1420 C.ar      1 <0>         0.0000
      5 C5          5.5680    1.3870   17.3510 C.ar      1 <0>         0.0000
      6 C6          7.2740   -0.0430   18.0520 C.ar      1 <0>         0.0000
      7 C7          5.8310    0.9930   19.7260 C.ar      1 <0>         0.0000
      8 C8         10.9220   -0.2400   22.1390 C.ar      1 <0>         0.0000
      9 C9          6.9270    0.1790   19.4240 C.ar      1 <0>         0.0000
     10 C10        12.8830    1.2120   22.6470 C.ar      1 <0>         0.0000
     11 C11        13.1990   -0.9430   21.5140 C.ar      1 <0>         0.0000
     12 C12         8.6570    0.2890   21.1350 C.2       1 <0>         0.0000
     13 C13         5.4980    1.1650   21.1400 C.3       1 <0>         0.0000
     14 C14         9.4620   -0.5400   22.2170 C.3       1 <0>         0.0000
     15 N1          6.6280    0.5790   17.0190 N.ar      1 <0>         0.0000
     16 N2          7.6580   -0.4040   20.4620 N.am      1 <0>         0.0000
     17 O1          8.8730    1.4420   20.7420 O.2       1 <0>         0.0000
     18 O2         13.4370    2.4400   23.0990 O.3       1 <0>         0.0000
     19 Cl1        14.2650   -2.0340   20.7550 Cl        1 <0>         0.0000
     20 H1          4.3650    2.3910   18.9240 H         1 <0>         0.0000
     21 H2         10.9260    1.6760   23.2460 H         1 <0>         0.0000
     22 H3         11.4480   -2.1130   21.1700 H         1 <0>         0.0000
     23 H4         14.7690    0.3800   22.0590 H         1 <0>         0.0000
     24 H5          5.1660    1.9040   16.4930 H         1 <0>         0.0000
     25 H6          8.1030   -0.7120   17.8160 H         1 <0>         0.0000
     26 H7          5.5970    0.1990   21.6420 H         1 <0>         0.0000
     27 H8          6.1220    1.9310   21.6150 H         1 <0>         0.0000
     28 H9          4.4670    1.5320   21.1630 H         1 <0>         0.0000
     29 H10         9.2970   -1.6170   22.1040 H         1 <0>         0.0000
     30 H11         9.1180   -0.2820   23.2290 H         1 <0>         0.0000
     31 H12         7.4880   -1.3370   20.8100 H         1 <0>         0.0000
     32 H13        13.2920    5.3350   24.2820 H         1 <0>         0.0000
     33 H14        11.7670    3.3680   23.9490 H         1 <0>         0.0000
     34 H15        12.5860    3.7130   21.0080 H         1 <0>         0.0000
     35 H16        10.9690    4.2510   21.7510 H         1 <0>         0.0000
     36 N3         13.2780    4.7910   23.4130 N.am      1 <0>         0.0000
     37 O3         12.6030    6.4520   22.1760 O.2       1 <0>         0.0000
     38 C15        12.5730    3.5500   23.2330 C.3       1 <0>         0.0000
     39 C16        12.0460    4.1060   21.8780 C.3       1 <0>         0.0000
     40 C17        12.7680    5.3060   22.3250 C.2       1 <0>         0.0000
@<TRIPOS>BOND
     1    5   24 1
     2    5   15 ar
     3    6   15 ar
     4    1    5 ar
     5    6   25 1
     6    6    9 ar
     7    1   20 1
     8    1    7 ar
     9    7    9 ar
    10    9   16 1
    11    7   13 1
    12   16   31 1
    13   12   16 am
    14   12   17 2
    15   11   19 1
    16   34   39 1
    17   12   14 1
    18   13   28 1
    19   13   27 1
    20   13   26 1
    21    3   22 1
    22    3   11 ar
    23    4   11 ar
    24    3    8 ar
    25   35   39 1
    26   39   40 1
    27   38   39 1
    28    4   23 1
    29   14   29 1
    30    8   14 1
    31    2    8 ar
    32    4   10 ar
    33   37   40 2
    34   14   30 1
    35   36   40 am
    36    2   10 ar
    37   10   18 1
    38    2   21 1
    39   18   38 1
    40   36   38 1
    41   33   38 1
    42   32   36 1
@<TRIPOS>MOLECULE
*****
   40    42     0     0     0
SMALL
NO_CHARGES

@<TRIPOS>ATOM
      1 C1          5.0390    0.1710   20.0070 C.ar      1 <0>         0.0000
      2 C2         12.4930    0.6530   23.4570 C.ar      1 <0>         0.0000
      3 C3         12.5660   -0.8610   21.5720 C.ar      1 <0>         0.0000
      4 C4         14.5830    0.2710   22.3360 C.ar      1 <0>         0.0000
      5 C5          5.4790    0.0400   18.7530 C.ar      1 <0>         0.0000
      6 C6          7.6850   -0.2460   19.3320 C.ar      1 <0>         0.0000
      7 C7          5.9120   -0.1010   21.0890 C.ar      1 <0>         0.0000
      8 C8         11.8160   -0.2380   22.6410 C.ar      1 <0>         0.0000
      9 C9          7.2810   -0.2470   20.7150 C.ar      1 <0>         0.0000
     10 C10        13.8050    0.9940   23.2600 C.ar      1 <0>         0.0000
     11 C11        14.0220   -0.7230   21.4780 C.ar      1 <0>         0.0000
     12 C12         9.4860   -0.0540   21.7770 C.2       1 <0>         0.0000
     13 C13         5.5370   -0.0770   22.5150 C.3       1 <0>         0.0000
     14 C14        10.3870   -0.5500   22.8820 C.3       1 <0>         0.0000
     15 N1          6.7520   -0.1670   18.3530 N.ar      1 <0>         0.0000
     16 N2          8.2360   -0.6010   21.7010 N.am      1 <0>         0.0000
     17 O1          9.7970    0.9270   21.0850 O.2       1 <0>         0.0000
     18 O2         14.4900    1.8780   24.0330 O.3       1 <0>         0.0000
     19 Cl1        14.9320   -1.6700   20.3430 Cl        1 <0>         0.0000
     20 H1          4.0010    0.4030   20.2030 H         1 <0>         0.0000
     21 H2         11.9380    1.2090   24.2040 H         1 <0>         0.0000
     22 H3         12.0330   -1.6020   20.9950 H         1 <0>         0.0000
     23 H4         15.6360    0.5040   22.1860 H         1 <0>         0.0000
     24 H5          4.7320    0.2670   17.9980 H         1 <0>         0.0000
     25 H6          8.7200   -0.4090   19.0500 H         1 <0>         0.0000
     26 H7          5.4420   -1.1060   22.8970 H         1 <0>         0.0000
     27 H8          6.0860    0.6590   23.1090 H         1 <0>         0.0000
     28 H9          4.5300    0.2970   22.7160 H         1 <0>         0.0000
     29 H10        10.2260   -1.6370   22.9270 H         1 <0>         0.0000
     30 H11        10.0860   -0.0100   23.7850 H         1 <0>         0.0000
     31 H12         8.1130   -1.3770   22.3500 H         1 <0>         0.0000
     32 H13        15.9350    3.9610   24.0920 H         1 <0>         0.0000
     33 H14        13.5240    3.1440   25.3820 H         1 <0>         0.0000
     34 H15        12.2270    4.4430   23.5570 H         1 <0>         0.0000
     35 H16        12.9820    3.3850   22.3120 H         1 <0>         0.0000
     36 N3         14.9790    4.2100   24.3420 N.am      1 <0>         0.0000
     37 O3         14.9210    5.3890   22.4510 O.2       1 <0>         0.0000
     38 C15        13.9620    3.1880   24.3750 C.3       1 <0>         0.0000
     39 C16        13.1350    3.9300   23.2420 C.3       1 <0>         0.0000
     40 C17        14.3220    4.7760   23.3310 C.2       1 <0>         0.0000
@<TRIPOS>BOND
     1    5   24 1
     2    5   15 ar
     3    6   15 ar
     4    1    5 ar
     5    6   25 1
     6    6    9 ar
     7    1   20 1
     8    1    7 ar
     9   11   19 1
    10    7    9 ar
    11    9   16 1
    12    3   22 1
    13   12   17 2
    14    7   13 1
    15    3   11 ar
    16    4   11 ar
    17    3    8 ar
    18   12   16 am
    19   16   31 1
    20   12   14 1
    21    4   23 1
    22   35   39 1
    23    4   10 ar
    24   37   40 2
    25   13   28 1
    26   13   26 1
    27   13   27 1
    28    8   14 1
    29    2    8 ar
    30   14   29 1
    31   14   30 1
    32   39   40 1
    33   34   39 1
    34   38   39 1
    35    2   10 ar
    36   10   18 1
    37   36   40 am
    38    2   21 1
    39   18   38 1
    40   32   36 1
    41   36   38 1
    42   33   38 1
@<TRIPOS>MOLECULE
*****
   40    42     0     0     0
SMALL
NO_CHARGES

@<TRIPOS>ATOM
      1 C1          4.8510    1.5770   19.8980 C.ar      1 <0>         0.0000
      2 C2         11.3010    1.2680   24.5000 C.ar      1 <0>         0.0000
      3 C3         11.6570   -0.8160   23.3370 C.ar      1 <0>         0.0000
      4 C4         13.5310    0.5750   23.8480 C.ar      1 <0>         0.0000
      5 C5          5.4600    1.5670   18.6840 C.ar      1 <0>         0.0000
      6 C6          7.1710    0.2740   19.5180 C.ar      1 <0>         0.0000
      7 C7          5.4070    0.8390   21.0220 C.ar      1 <0>         0.0000
      8 C8         10.7740    0.1560   23.8290 C.ar      1 <0>         0.0000
      9 C9          6.7450    0.3290   20.8540 C.ar      1 <0>         0.0000
     10 C10        12.6550    1.5050   24.4920 C.ar      1 <0>         0.0000
     11 C11        12.9980   -0.6510   23.3760 C.ar      1 <0>         0.0000
     12 C12         8.7120    0.2860   22.3310 C.2       1 <0>         0.0000
     13 C13         4.7460    0.7380   22.3490 C.3       1 <0>         0.0000
     14 C14         9.2410    0.0110   23.7620 C.3       1 <0>         0.0000
     15 N1          6.5930    0.9730   18.4870 N.ar      1 <0>         0.0000
     16 N2          7.4480   -0.2090   21.9070 N.am      1 <0>         0.0000
     17 O1          9.2680    1.1040   21.5780 O.2       1 <0>         0.0000
     18 O2         13.3340    2.6890   24.9650 O.3       1 <0>         0.0000
     19 Cl1        14.0130   -1.8530   22.5530 Cl        1 <0>         0.0000
     20 H1          3.9070    2.0530   20.1360 H         1 <0>         0.0000
     21 H2         10.6950    1.9840   25.0530 H         1 <0>         0.0000
     22 H3         11.2360   -1.7290   22.9420 H         1 <0>         0.0000
     23 H4         14.6090    0.6390   23.9440 H         1 <0>         0.0000
     24 H5          5.1580    2.1190   17.7960 H         1 <0>         0.0000
     25 H6          8.1000   -0.2540   19.3720 H         1 <0>         0.0000
     26 H7          3.7860    1.2690   22.3920 H         1 <0>         0.0000
     27 H8          4.4300   -0.2930   22.5390 H         1 <0>         0.0000
     28 H9          5.4010    1.0480   23.1620 H         1 <0>         0.0000
     29 H10         9.0230   -1.0400   23.9660 H         1 <0>         0.0000
     30 H11         8.7750    0.6990   24.4750 H         1 <0>         0.0000
     31 H12         6.9740   -0.6240   22.7120 H         1 <0>         0.0000
     32 H13        12.1920    3.7130   23.5110 H         1 <0>         0.0000
     33 H14        13.9080    4.0380   21.9350 H         1 <0>         0.0000
     34 H15        15.0400    3.0350   22.8630 H         1 <0>         0.0000
     35 N3         13.4740    4.9740   24.4690 N.am      1 <0>         0.0000
     36 O3         15.6780    5.5450   23.9320 O.2       1 <0>         0.0000
     37 C15        13.1780    3.6420   23.9790 C.3       1 <0>         0.0000
     38 C16        14.2630    3.8060   22.9370 C.3       1 <0>         0.0000
     39 C17        14.5920    5.0330   23.7110 C.2       1 <0>         0.0000
     40 H16        13.4330    5.1330   25.4750 H         1 <0>         0.0000
@<TRIPOS>BOND
     1    5   24 1
     2    5   15 ar
     3    6   15 ar
     4    1    5 ar
     5    6   25 1
     6    6    9 ar
     7    1   20 1
     8    1    7 ar
     9    7    9 ar
    10    9   16 1
    11    7   13 1
    12   12   17 2
    13   12   16 am
    14   16   31 1
    15   33   38 1
    16   12   14 1
    17   13   26 1
    18   13   27 1
    19   13   28 1
    20   11   19 1
    21   34   38 1
    22   38   39 1
    23   37   38 1
    24    3   22 1
    25    3   11 ar
    26    3    8 ar
    27    4   11 ar
    28   32   37 1
    29   36   39 2
    30   35   39 am
    31    8   14 1
    32   14   29 1
    33   14   30 1
    34    2    8 ar
    35    4   23 1
    36    4   10 ar
    37   35   37 1
    38   18   37 1
    39   35   40 1
    40    2   10 ar
    41   10   18 1
    42    2   21 1
@<TRIPOS>MOLECULE
*****
   40    42     0     0     0
SMALL
NO_CHARGES

@<TRIPOS>ATOM
      1 C1          5.0670    1.1130   19.7760 C.ar      1 <0>         0.0000
      2 C2         12.1300    0.5930   24.1950 C.ar      1 <0>         0.0000
      3 C3         12.2020   -1.1350   22.5450 C.ar      1 <0>         0.0000
      4 C4         14.2700    0.0580   23.1170 C.ar      1 <0>         0.0000
      5 C5          5.6640    0.6700   18.6870 C.ar      1 <0>         0.0000
      6 C6          7.4700   -0.0770   19.9360 C.ar      1 <0>         0.0000
      7 C7          5.7070    1.0270   21.0710 C.ar      1 <0>         0.0000
      8 C8         11.4590   -0.3670   23.4760 C.ar      1 <0>         0.0000
      9 C9          6.9690    0.4140   21.1650 C.ar      1 <0>         0.0000
     10 C10        13.5410    0.8180   24.0230 C.ar      1 <0>         0.0000
     11 C11        13.5740   -0.9490   22.3390 C.ar      1 <0>         0.0000
     12 C12         9.1210    0.4050   22.4720 C.2       1 <0>         0.0000
     13 C13         5.0550    1.6890   22.2910 C.3       1 <0>         0.0000
     14 C14         9.9510   -0.4010   23.5070 C.3       1 <0>         0.0000
     15 N1          6.8400    0.0240   18.6880 N.ar      1 <0>         0.0000
     16 N2          7.7050    0.2640   22.3600 N.am      1 <0>         0.0000
     17 O1          9.6640    1.0940   21.6130 O.2       1 <0>         0.0000
     18 O2         14.1080    1.8280   24.6850 O.3       1 <0>         0.0000
     19 Cl1        14.4270   -1.9650   21.1550 Cl        1 <0>         0.0000
     20 H1          4.1930    1.7280   19.5830 H         1 <0>         0.0000
     21 H2         11.7170    1.2910   24.9200 H         1 <0>         0.0000
     22 H3         11.6630   -1.9010   21.9990 H         1 <0>         0.0000
     23 H4         15.3330    0.1700   22.9200 H         1 <0>         0.0000
     24 H5          5.1020    0.8620   17.7760 H         1 <0>         0.0000
     25 H6          8.4210   -0.5970   19.9960 H         1 <0>         0.0000
     26 H7          4.0100    1.8990   22.0640 H         1 <0>         0.0000
     27 H8          5.0130    0.9770   23.1220 H         1 <0>         0.0000
     28 H9          5.6630    2.5830   22.4190 H         1 <0>         0.0000
     29 H10         9.7420   -1.4700   23.4600 H         1 <0>         0.0000
     30 H11         9.5630   -0.2250   24.5160 H         1 <0>         0.0000
     31 H12         7.2890   -0.2510   23.1410 H         1 <0>         0.0000
     32 C15        14.9280    2.7390   23.8870 C.3       1 <0>         0.0000
     33 C16        14.3160    3.2110   22.5850 C.3       1 <0>         0.0000
     34 C17        14.3430    4.5210   23.3030 C.2       1 <0>         0.0000
     35 H13        14.3810    4.3510   25.2470 H         1 <0>         0.0000
     36 H14        15.9690    2.4200   23.7800 H         1 <0>         0.0000
     37 H15        15.0200    3.0840   21.7540 H         1 <0>         0.0000
     38 H16        13.2750    2.9710   22.3320 H         1 <0>         0.0000
     39 N3         14.9060    4.0890   24.4110 N.am      1 <0>         0.0000
     40 O3         13.5570    5.4280   23.1960 O.2       1 <0>         0.0000
@<TRIPOS>BOND
     1    5   24 1
     2    5   15 ar
     3    1    5 ar
     4    6   15 ar
     5    1   20 1
     6    1    7 ar
     7    6   25 1
     8    6    9 ar
     9    7    9 ar
    10    7   13 1
    11   11   19 1
    12    9   16 1
    13   12   17 2
    14   33   37 1
    15    3   22 1
    16   13   26 1
    17   13   28 1
    18   13   27 1
    19   33   38 1
    20    3   11 ar
    21    4   11 ar
    22   12   16 am
    23   16   31 1
    24   12   14 1
    25    3    8 ar
    26   33   34 1
    27   32   33 1
    28    4   23 1
    29    4   10 ar
    30   34   40 2
    31   34   39 am
    32   14   29 1
    33    8   14 1
    34    2    8 ar
    35   14   30 1
    36   32   36 1
    37   32   39 1
    38   18   32 1
    39    2   10 ar
    40   10   18 1
    41    2   21 1
    42   35   39 1
@<TRIPOS>MOLECULE
*****
   40    42     0     0     0
SMALL
NO_CHARGES

@<TRIPOS>ATOM
      1 C1          5.2300    1.6240   19.0390 C.ar      1 <0>         0.0000
      2 C2         12.0800    0.9080   23.6610 C.ar      1 <0>         0.0000
      3 C3         11.4090   -1.0360   22.3870 C.ar      1 <0>         0.0000
      4 C4         13.7430   -0.6170   22.8460 C.ar      1 <0>         0.0000
      5 C5          5.7940    0.7580   18.0810 C.ar      1 <0>         0.0000
      6 C6          7.5210    0.2670   19.5840 C.ar      1 <0>         0.0000
      7 C7          5.7400    1.6930   20.3220 C.ar      1 <0>         0.0000
      8 C8         11.0550    0.0650   23.1800 C.ar      1 <0>         0.0000
      9 C9          6.9970    1.0320   20.6680 C.ar      1 <0>         0.0000
     10 C10        13.4270    0.6080   23.4950 C.ar      1 <0>         0.0000
     11 C11        12.7480   -1.3800   22.2490 C.ar      1 <0>         0.0000
     12 C12         8.9670    0.9360   22.0250 C.2       1 <0>         0.0000
     13 C13         5.0660    2.6340   21.3000 C.3       1 <0>         0.0000
     14 C14         9.6170    0.4560   23.3920 C.3       1 <0>         0.0000
     15 N1          6.9250    0.1110   18.3080 N.ar      1 <0>         0.0000
     16 N2          7.6350    1.0670   21.8750 N.am      1 <0>         0.0000
     17 O1          9.6980    1.1810   21.0600 O.2       1 <0>         0.0000
     18 O2         14.4290    1.4470   23.7720 O.3       1 <0>         0.0000
     19 Cl1        13.0610   -2.7790   21.4570 Cl        1 <0>         0.0000
     20 H1          4.4010    2.1590   18.6060 H         1 <0>         0.0000
     21 H2         11.7270    1.8080   24.1450 H         1 <0>         0.0000
     22 H3         10.6560   -1.6520   21.9100 H         1 <0>         0.0000
     23 H4         14.7470   -0.8710   22.5200 H         1 <0>         0.0000
     24 H5          5.2860    0.7610   17.1180 H         1 <0>         0.0000
     25 H6          8.3860   -0.3830   19.6030 H         1 <0>         0.0000
     26 H7          5.1360    2.1770   22.2980 H         1 <0>         0.0000
     27 H8          5.5290    3.6210   21.3790 H         1 <0>         0.0000
     28 H9          4.0740    2.7740   20.8610 H         1 <0>         0.0000
     29 H10         9.0750   -0.4500   23.6950 H         1 <0>         0.0000
     30 H11         9.5240    1.2330   24.1490 H         1 <0>         0.0000
     31 H12         7.0370    1.1460   22.6910 H         1 <0>         0.0000
     32 C15        14.1020    2.8190   23.7350 C.3       1 <0>         0.0000
     33 C16        13.8220    3.4950   22.3740 C.3       1 <0>         0.0000
     34 C17        15.0880    4.2180   22.6690 C.2       1 <0>         0.0000
     35 H13        16.1770    3.1460   23.8950 H         1 <0>         0.0000
     36 H14        13.3510    3.0890   24.4740 H         1 <0>         0.0000
     37 H15        13.0160    4.2320   22.3350 H         1 <0>         0.0000
     38 H16        13.9320    2.8730   21.4730 H         1 <0>         0.0000
     39 N3         15.2930    3.6360   23.8530 N.am      1 <0>         0.0000
     40 O3         15.8560    4.7600   21.8580 O.2       1 <0>         0.0000
@<TRIPOS>BOND
     1    5   24 1
     2    5   15 ar
     3    1    5 ar
     4    6   15 ar
     5    1   20 1
     6    1    7 ar
     7    6   25 1
     8    6    9 ar
     9    7    9 ar
    10    7   13 1
    11    9   16 1
    12   13   28 1
    13   12   17 2
    14   13   27 1
    15   13   26 1
    16   11   19 1
    17   33   38 1
    18   34   40 2
    19   12   16 am
    20   16   31 1
    21    3   22 1
    22   12   14 1
    23    3   11 ar
    24    4   11 ar
    25   33   37 1
    26   33   34 1
    27   32   33 1
    28    3    8 ar
    29    4   23 1
    30   34   39 am
    31    4   10 ar
    32    8   14 1
    33    2    8 ar
    34   14   29 1
    35   14   30 1
    36    2   10 ar
    37   10   18 1
    38    2   21 1
    39   18   32 1
    40   32   39 1
    41   32   36 1
    42   35   39 1
@<TRIPOS>MOLECULE
*****
   40    42     0     0     0
SMALL
NO_CHARGES

@<TRIPOS>ATOM
      1 C1          6.4910   -2.2170   22.5360 C.ar      1 <0>         0.0000
      2 C2         10.9580    4.1630   21.8690 C.ar      1 <0>         0.0000
      3 C3         10.6690    1.9950   22.9780 C.ar      1 <0>         0.0000
      4 C4         12.8500    2.8570   22.5890 C.ar      1 <0>         0.0000
      5 C5          5.7420   -2.2580   21.3120 C.ar      1 <0>         0.0000
      6 C6          5.8530   -0.0140   21.0260 C.ar      1 <0>         0.0000
      7 C7          7.0320   -0.9990   22.9260 C.ar      1 <0>         0.0000
      8 C8         10.1470    3.1320   22.3400 C.ar      1 <0>         0.0000
      9 C9          6.7770    0.1020   22.1330 C.ar      1 <0>         0.0000
     10 C10        12.3990    4.0070   21.9780 C.ar      1 <0>         0.0000
     11 C11        12.1120    1.8380   23.1170 C.ar      1 <0>         0.0000
     12 C12         7.9180    2.2620   21.8090 C.2       1 <0>         0.0000
     13 C13         7.9350   -0.8930   24.1540 C.3       1 <0>         0.0000
     14 C14         8.7020    3.3890   22.3840 C.3       1 <0>         0.0000
     15 N1          5.4260   -1.1760   20.5310 N.ar      1 <0>         0.0000
     16 N2          7.2470    1.3670   22.5980 N.am      1 <0>         0.0000
     17 O1          7.8710    2.1440   20.6260 O.2       1 <0>         0.0000
     18 O2         13.1860    5.0290   21.4370 O.3       1 <0>         0.0000
     19 Cl1        12.8610    0.5470   23.9780 Cl        1 <0>         0.0000
     20 H1          6.5850   -3.1240   23.1230 H         1 <0>         0.0000
     21 H2         10.4530    5.0480   21.4820 H         1 <0>         0.0000
     22 H3          9.9800    1.2560   23.3820 H         1 <0>         0.0000
     23 H4         13.9100    2.7190   22.7990 H         1 <0>         0.0000
     24 H5          5.3280   -3.2350   21.0920 H         1 <0>         0.0000
     25 H6          5.5760    0.9460   20.5900 H         1 <0>         0.0000
     26 H7          7.3890   -0.5070   25.0160 H         1 <0>         0.0000
     27 H8          8.3370   -1.8670   24.4530 H         1 <0>         0.0000
     28 H9          8.7960   -0.2710   23.8670 H         1 <0>         0.0000
     29 H10         8.4000    3.4900   23.4260 H         1 <0>         0.0000
     30 H11         8.4210    4.3150   21.8670 H         1 <0>         0.0000
     31 H12         7.6190    1.2760   23.5480 H         1 <0>         0.0000
     32 N3         15.4730    4.2970   21.0930 N.am      1 <0>         0.0000
     33 O3         17.2510    5.2360   20.1260 O.2       1 <0>         0.0000
     34 C15        14.5850    5.2050   21.8590 C.3       1 <0>         0.0000
     35 C16        15.3920    6.4190   21.1340 C.3       1 <0>         0.0000
     36 C17        16.1000    5.2700   20.4590 C.2       1 <0>         0.0000
     37 H13        15.9980    3.4700   21.3790 H         1 <0>         0.0000
     38 H14        14.6760    5.1490   22.9450 H         1 <0>         0.0000
     39 H15        14.6940    7.0230   20.5580 H         1 <0>         0.0000
     40 H16        16.1660    6.9230   21.7200 H         1 <0>         0.0000
@<TRIPOS>BOND
     1   33   36 2
     2   32   36 am
     3   35   36 1
     4    6   15 ar
     5    5   15 ar
     6   35   39 1
     7    6   25 1
     8   12   17 2
     9    6    9 ar
    10    5   24 1
    11   32   37 1
    12   32   34 1
    13   35   40 1
    14   34   35 1
    15    1    5 ar
    16   18   34 1
    17   10   18 1
    18    2   21 1
    19   12   14 1
    20   12   16 am
    21   34   38 1
    22   14   30 1
    23    2   10 ar
    24    2    8 ar
    25    4   10 ar
    26    9   16 1
    27    7    9 ar
    28    8   14 1
    29    3    8 ar
    30   14   29 1
    31    1    7 ar
    32    1   20 1
    33    4   23 1
    34    4   11 ar
    35   16   31 1
    36    7   13 1
    37    3   11 ar
    38    3   22 1
    39   11   19 1
    40   13   28 1
    41   13   27 1
    42   13   26 1
@<TRIPOS>MOLECULE
*****
   40    42     0     0     0
SMALL
NO_CHARGES

@<TRIPOS>ATOM
      1 C1          5.0950    2.0710   18.5960 C.ar      1 <0>         0.0000
      2 C2         11.5620    2.2690   23.2330 C.ar      1 <0>         0.0000
      3 C3         11.7280   -0.0480   22.7740 C.ar      1 <0>         0.0000
      4 C4         13.6970    1.3260   22.8740 C.ar      1 <0>         0.0000
      5 C5          5.7850    1.4410   17.5380 C.ar      1 <0>         0.0000
      6 C6          7.3560    0.7490   18.9910 C.ar      1 <0>         0.0000
      7 C7          5.5860    2.0770   19.9080 C.ar      1 <0>         0.0000
      8 C8         10.9110    1.0710   23.0250 C.ar      1 <0>         0.0000
      9 C9          6.7440    1.3680   20.1800 C.ar      1 <0>         0.0000
     10 C10        12.9670    2.4340   23.0530 C.ar      1 <0>         0.0000
     11 C11        13.1500    0.0480   22.7720 C.ar      1 <0>         0.0000
     12 C12         8.6880    1.3770   21.7100 C.2       1 <0>         0.0000
     13 C13         4.8020    2.6230   20.9630 C.3       1 <0>         0.0000
     14 C14         9.3830    1.0440   23.0320 C.3       1 <0>         0.0000
     15 N1          6.8670    0.6600   17.7740 N.ar      1 <0>         0.0000
     16 N2          7.3180    1.2780   21.4840 N.am      1 <0>         0.0000
     17 O1          9.3660    1.8940   20.8310 O.2       1 <0>         0.0000
     18 O2         13.7210    3.6110   23.1310 O.3       1 <0>         0.0000
     19 Cl1        14.1460   -1.3230   22.4320 Cl        1 <0>         0.0000
     20 H1          4.1610    2.5810   18.3480 H         1 <0>         0.0000
     21 H2         10.9590    3.1610   23.4110 H         1 <0>         0.0000
     22 H3         11.2980   -1.0260   22.5450 H         1 <0>         0.0000
     23 H4         14.7540    1.4980   22.6600 H         1 <0>         0.0000
     24 H5          5.4120    1.4860   16.5220 H         1 <0>         0.0000
     25 H6          8.2740    0.2160   19.2450 H         1 <0>         0.0000
     26 H7          4.2750    1.8760   21.5700 H         1 <0>         0.0000
     27 H8          5.4770    3.2240   21.5850 H         1 <0>         0.0000
     28 H9          4.0600    3.3210   20.5730 H         1 <0>         0.0000
     29 H10         9.2320   -0.0060   23.2920 H         1 <0>         0.0000
     30 H11         8.9330    1.7160   23.7710 H         1 <0>         0.0000
     31 H12         6.6450    1.2520   22.2480 H         1 <0>         0.0000
     32 H13        11.8870    4.8020   21.3240 H         1 <0>         0.0000
     33 H14        10.9310    5.4280   22.6400 H         1 <0>         0.0000
     34 N3         13.6340    6.0450   23.3200 N.am      1 <0>         0.0000
     35 O3         12.4700    7.6630   22.3920 O.2       1 <0>         0.0000
     36 C15        12.9070    4.7640   23.3810 C.3       1 <0>         0.0000
     37 C16        11.9630    5.3110   22.2830 C.3       1 <0>         0.0000
     38 C17        12.8100    6.5220   22.4020 C.2       1 <0>         0.0000
     39 H15        13.7570    6.5440   24.2030 H         1 <0>         0.0000
     40 H16        12.3480    4.6430   24.3220 H         1 <0>         0.0000
@<TRIPOS>BOND
     1    5   24 1
     2    5   15 ar
     3    1    5 ar
     4    6   15 ar
     5    1   20 1
     6    1    7 ar
     7    6   25 1
     8    6    9 ar
     9    7    9 ar
    10    7   13 1
    11    9   16 1
    12   13   28 1
    13   12   17 2
    14   13   26 1
    15   13   27 1
    16   32   37 1
    17   12   16 am
    18   16   31 1
    19   12   14 1
    20   37   38 1
    21   33   37 1
    22   36   37 1
    23   35   38 2
    24   34   38 am
    25   11   19 1
    26    3   22 1
    27    4   23 1
    28    3   11 ar
    29    4   11 ar
    30    3    8 ar
    31    4   10 ar
    32    8   14 1
    33    2    8 ar
    34   14   29 1
    35   14   30 1
    36   10   18 1
    37    2   10 ar
    38   18   36 1
    39    2   21 1
    40   34   36 1
    41   34   39 1
    42   36   40 1
@<TRIPOS>MOLECULE
*****
   40    42     0     0     0
SMALL
NO_CHARGES

@<TRIPOS>ATOM
      1 C1          5.6870    1.1850   19.9750 C.ar      1 <0>         0.0000
      2 C2         12.5140    0.4810   23.5480 C.ar      1 <0>         0.0000
      3 C3         12.3370   -1.8200   24.3730 C.ar      1 <0>         0.0000
      4 C4         14.4610   -0.9030   23.8950 C.ar      1 <0>         0.0000
      5 C5          6.2660    0.9120   18.7180 C.ar      1 <0>         0.0000
      6 C6          8.1230    0.0500   19.7790 C.ar      1 <0>         0.0000
      7 C7          6.4180    1.0260   21.1990 C.ar      1 <0>         0.0000
      8 C8         11.7400   -0.5760   23.9990 C.ar      1 <0>         0.0000
      9 C9          7.6420    0.3480   21.1150 C.ar      1 <0>         0.0000
     10 C10        13.9170    0.3640   23.6090 C.ar      1 <0>         0.0000
     11 C11        13.7000   -1.9820   24.2600 C.ar      1 <0>         0.0000
     12 C12         9.6790   -0.1870   22.4920 C.2       1 <0>         0.0000
     13 C13         5.8320    1.5840   22.5050 C.3       1 <0>         0.0000
     14 C14        10.2060   -0.4970   23.8860 C.3       1 <0>         0.0000
     15 N1          7.4820    0.2670   18.5880 N.ar      1 <0>         0.0000
     16 N2          8.3830    0.2000   22.3110 N.am      1 <0>         0.0000
     17 O1         10.4390   -0.1790   21.4880 O.2       1 <0>         0.0000
     18 O2         14.7610    1.3440   23.1530 O.3       1 <0>         0.0000
     19 Cl1        14.6370   -3.3570   24.8260 Cl        1 <0>         0.0000
     20 H1          4.6890    1.6120   19.9720 H         1 <0>         0.0000
     21 H2         11.9940    1.3700   23.2240 H         1 <0>         0.0000
     22 H3         11.7030   -2.6330   24.7200 H         1 <0>         0.0000
     23 H4         15.5290   -1.0530   23.8060 H         1 <0>         0.0000
     24 H5          5.7990    1.2330   17.7910 H         1 <0>         0.0000
     25 H6          9.1270   -0.3600   19.7310 H         1 <0>         0.0000
     26 H7          4.8340    2.0150   22.3420 H         1 <0>         0.0000
     27 H8          5.8430    0.7840   23.2490 H         1 <0>         0.0000
     28 H9          6.4690    2.3640   22.9210 H         1 <0>         0.0000
     29 H10         9.7690   -1.4230   24.2820 H         1 <0>         0.0000
     30 H11         9.9340    0.3670   24.4920 H         1 <0>         0.0000
     31 H12         7.9660    0.3680   23.2220 H         1 <0>         0.0000
     32 H13        13.3950    2.3330   21.9250 H         1 <0>         0.0000
     33 H14        16.3800    3.2010   21.8050 H         1 <0>         0.0000
     34 H15        14.8890    3.9110   20.9370 H         1 <0>         0.0000
     35 N3         14.0240    3.6690   23.4580 N.am      1 <0>         0.0000
     36 O3         15.0920    5.6310   22.7360 O.2       1 <0>         0.0000
     37 C15        14.2530    2.5160   22.5800 C.3       1 <0>         0.0000
     38 C16        15.3040    3.4120   21.8160 C.3       1 <0>         0.0000
     39 C17        14.9230    4.4210   22.8140 C.2       1 <0>         0.0000
     40 H16        13.0900    4.0340   23.6650 H         1 <0>         0.0000
@<TRIPOS>BOND
     1    5   24 1
     2    5   15 ar
     3    6   15 ar
     4    1    5 ar
     5    6   25 1
     6    6    9 ar
     7    1   20 1
     8    1    7 ar
     9   34   38 1
    10    7    9 ar
    11    9   16 1
    12    7   13 1
    13   12   17 2
    14   33   38 1
    15   37   38 1
    16   38   39 1
    17   32   37 1
    18   12   16 am
    19   16   31 1
    20   13   26 1
    21   12   14 1
    22   13   28 1
    23   13   27 1
    24   18   37 1
    25   35   37 1
    26   36   39 2
    27   35   39 am
    28   10   18 1
    29    2   21 1
    30   35   40 1
    31    2   10 ar
    32    2    8 ar
    33    4   10 ar
    34    4   23 1
    35    8   14 1
    36   14   29 1
    37   14   30 1
    38    4   11 ar
    39    3    8 ar
    40    3   11 ar
    41   11   19 1
    42    3   22 1
@<TRIPOS>MOLECULE
*****
   40    42     0     0     0
SMALL
NO_CHARGES

@<TRIPOS>ATOM
      1 C1          4.9090    1.7460   18.1260 C.ar      1 <0>         0.0000
      2 C2         10.7200    2.6000   23.7690 C.ar      1 <0>         0.0000
      3 C3         11.1790    0.3240   23.1570 C.ar      1 <0>         0.0000
      4 C4         12.9700    1.7050   24.0010 C.ar      1 <0>         0.0000
      5 C5          5.6520    1.3680   17.0950 C.ar      1 <0>         0.0000
      6 C6          7.4350    0.8510   18.4700 C.ar      1 <0>         0.0000
      7 C7          5.4950    1.8580   19.4280 C.ar      1 <0>         0.0000
      8 C8         10.2370    1.3860   23.3320 C.ar      1 <0>         0.0000
      9 C9          6.7130    1.2940   19.6510 C.ar      1 <0>         0.0000
     10 C10        12.0910    2.7120   24.1800 C.ar      1 <0>         0.0000
     11 C11        12.5310    0.4720   23.4870 C.ar      1 <0>         0.0000
     12 C12         8.5320    1.2520   21.4460 C.2       1 <0>         0.0000
     13 C13         4.6330    2.5200   20.4970 C.3       1 <0>         0.0000
     14 C14         8.7430    1.2880   22.9650 C.3       1 <0>         0.0000
     15 N1          6.9210    0.8640   17.1980 N.ar      1 <0>         0.0000
     16 N2          7.1950    1.2800   20.9620 N.am      1 <0>         0.0000
     17 O1          9.4430    1.0630   20.7060 O.2       1 <0>         0.0000
     18 O2         12.4600    3.8060   24.9060 O.3       1 <0>         0.0000
     19 Cl1        13.6030   -0.9040   23.2750 Cl        1 <0>         0.0000
     20 H1          3.9120    2.1320   17.8970 H         1 <0>         0.0000
     21 H2         10.0560    3.4540   23.8100 H         1 <0>         0.0000
     22 H3         10.8500   -0.6200   22.7390 H         1 <0>         0.0000
     23 H4         14.0110    1.7140   24.2920 H         1 <0>         0.0000
     24 H5          5.2750    1.4370   16.0770 H         1 <0>         0.0000
     25 H6          8.4000    0.3710   18.6310 H         1 <0>         0.0000
     26 H7          4.7820    3.6090   20.4240 H         1 <0>         0.0000
     27 H8          3.5940    2.2530   20.2840 H         1 <0>         0.0000
     28 H9          4.9320    2.2370   21.5080 H         1 <0>         0.0000
     29 H10         8.4490    0.2890   23.3010 H         1 <0>         0.0000
     30 H11         8.0700    2.0340   23.4090 H         1 <0>         0.0000
     31 H12         6.4160    1.3140   21.6210 H         1 <0>         0.0000
     32 N3         13.1900    6.2420   24.8290 N.am      1 <0>         0.0000
     33 O3         15.4410    6.3850   24.2130 O.2       1 <0>         0.0000
     34 C15        12.6060    5.0740   24.0870 C.3       1 <0>         0.0000
     35 C16        13.8190    4.9970   23.1560 C.3       1 <0>         0.0000
     36 C17        14.2740    6.0990   23.9550 C.2       1 <0>         0.0000
     37 H13        13.3830    6.2420   25.8280 H         1 <0>         0.0000
     38 H14        11.6480    5.2950   23.6130 H         1 <0>         0.0000
     39 H15        13.6540    5.2370   22.0910 H         1 <0>         0.0000
     40 H16        14.4010    4.0720   23.2630 H         1 <0>         0.0000
@<TRIPOS>BOND
     1    5   24 1
     2    5   15 ar
     3    1    5 ar
     4    6   15 ar
     5    1   20 1
     6    1    7 ar
     7    6   25 1
     8    6    9 ar
     9    7    9 ar
    10    7   13 1
    11    9   16 1
    12   13   27 1
    13   13   26 1
    14   13   28 1
    15   12   17 2
    16   12   16 am
    17   16   31 1
    18   12   14 1
    19   35   39 1
    20    3   22 1
    21   14   29 1
    22    8   14 1
    23   14   30 1
    24   35   40 1
    25   35   36 1
    26   34   35 1
    27    3    8 ar
    28    3   11 ar
    29   11   19 1
    30    2    8 ar
    31    4   11 ar
    32   34   38 1
    33    2   21 1
    34    2   10 ar
    35   33   36 2
    36   32   36 am
    37    4   10 ar
    38    4   23 1
    39   32   34 1
    40   18   34 1
    41   10   18 1
    42   32   37 1
@<TRIPOS>MOLECULE
*****
   40    42     0     0     0
SMALL
NO_CHARGES

@<TRIPOS>ATOM
      1 C1          6.6410    1.8190   20.5030 C.ar      1 <0>         0.0000
      2 C2          9.9450   -3.1000   23.9320 C.ar      1 <0>         0.0000
      3 C3         11.1310   -3.3500   21.8310 C.ar      1 <0>         0.0000
      4 C4         12.2500   -2.3420   23.7650 C.ar      1 <0>         0.0000
      5 C5          6.3300    1.6460   19.1980 C.ar      1 <0>         0.0000
      6 C6          7.1990   -0.5570   19.2990 C.ar      1 <0>         0.0000
      7 C7          7.4010    0.8460   21.2210 C.ar      1 <0>         0.0000
      8 C8          9.9610   -3.4850   22.5580 C.ar      1 <0>         0.0000
      9 C9          7.6530   -0.3930   20.6210 C.ar      1 <0>         0.0000
     10 C10        11.0930   -2.5630   24.5460 C.ar      1 <0>         0.0000
     11 C11        12.2860   -2.8260   22.4460 C.ar      1 <0>         0.0000
     12 C12         7.9920   -2.8780   21.0710 C.2       1 <0>         0.0000
     13 C13         7.8570    1.1580   22.6600 C.3       1 <0>         0.0000
     14 C14         8.6700   -3.9290   21.9330 C.3       1 <0>         0.0000
     15 N1          6.6200    0.5230   18.5950 N.ar      1 <0>         0.0000
     16 N2          8.1390   -1.4860   21.3680 N.am      1 <0>         0.0000
     17 O1          7.0790   -3.2200   20.3370 O.2       1 <0>         0.0000
     18 O2         11.1630   -2.2970   25.9420 O.3       1 <0>         0.0000
     19 Cl1        13.6690   -2.7200   21.6000 Cl        1 <0>         0.0000
     20 H1          6.4610    2.8180   20.8710 H         1 <0>         0.0000
     21 H2          9.0800   -3.1840   24.5780 H         1 <0>         0.0000
     22 H3         11.2230   -3.7260   20.8150 H         1 <0>         0.0000
     23 H4         13.0790   -1.8560   24.2780 H         1 <0>         0.0000
     24 H5          5.8770    2.4720   18.6770 H         1 <0>         0.0000
     25 H6          7.3440   -1.4800   18.7480 H         1 <0>         0.0000
     26 H7          8.5150    0.4230   23.1450 H         1 <0>         0.0000
     27 H8          8.4280    2.0920   22.6040 H         1 <0>         0.0000
     28 H9          7.0830    1.2940   23.4220 H         1 <0>         0.0000
     29 H10         8.9080   -4.8710   21.4470 H         1 <0>         0.0000
     30 H11         7.9940   -4.1780   22.7610 H         1 <0>         0.0000
     31 H12         8.8310   -1.2840   22.0870 H         1 <0>         0.0000
     32 C15        10.0070   -1.9860   26.6730 C.3       1 <0>         0.0000
     33 C16         9.3340   -0.5750   26.4820 C.3       1 <0>         0.0000
     34 C17         9.8670   -0.3560   27.8580 C.2       1 <0>         0.0000
     35 H13        10.3320   -1.9710   28.9510 H         1 <0>         0.0000
     36 H14         9.3570   -2.8670   26.5860 H         1 <0>         0.0000
     37 H15         9.7900    0.1350   25.7830 H         1 <0>         0.0000
     38 H16         8.2470   -0.5390   26.4170 H         1 <0>         0.0000
     39 N3         10.3520   -1.5510   28.0210 N.am      1 <0>         0.0000
     40 O3          9.4920    0.3810   28.7400 O.2       1 <0>         0.0000
@<TRIPOS>BOND
     1    5   15 ar
     2    6   15 ar
     3    5   24 1
     4    6   25 1
     5    1    5 ar
     6    6    9 ar
     7   12   17 2
     8    1   20 1
     9    1    7 ar
    10    7    9 ar
    11    9   16 1
    12    3   22 1
    13   12   16 am
    14   12   14 1
    15    7   13 1
    16   16   31 1
    17   14   29 1
    18   11   19 1
    19    3   11 ar
    20    3    8 ar
    21    8   14 1
    22   14   30 1
    23    4   11 ar
    24    2    8 ar
    25   13   27 1
    26   13   26 1
    27   13   28 1
    28    4   23 1
    29    4   10 ar
    30    2   10 ar
    31    2   21 1
    32   10   18 1
    33   33   37 1
    34   18   32 1
    35   33   38 1
    36   32   33 1
    37   33   34 1
    38   32   36 1
    39   32   39 1
    40   34   39 am
    41   34   40 2
    42   35   39 1
@<TRIPOS>MOLECULE
*****
   40    42     0     0     0
SMALL
NO_CHARGES

@<TRIPOS>ATOM
      1 C1          4.1210    1.3130   18.7040 C.ar      1 <0>         0.0000
      2 C2         10.3580    2.0720   23.0750 C.ar      1 <0>         0.0000
      3 C3         10.8130   -0.1840   22.5300 C.ar      1 <0>         0.0000
      4 C4         12.5920    1.3800   22.4790 C.ar      1 <0>         0.0000
      5 C5          4.4230    0.8000   17.4630 C.ar      1 <0>         0.0000
      6 C6          6.3450   -0.1380   18.4390 C.ar      1 <0>         0.0000
      7 C7          4.9460    1.2790   19.7820 C.ar      1 <0>         0.0000
      8 C8          9.9020    0.7650   22.8640 C.ar      1 <0>         0.0000
      9 C9          6.1210    0.4900   19.6990 C.ar      1 <0>         0.0000
     10 C10        11.7600    2.4550   22.8610 C.ar      1 <0>         0.0000
     11 C11        12.1910    0.1500   22.2870 C.ar      1 <0>         0.0000
     12 C12         7.7290    1.0690   21.6060 C.2       1 <0>         0.0000
     13 C13         4.5270    1.9620   21.0030 C.3       1 <0>         0.0000
     14 C14         8.4360    0.4880   22.8420 C.3       1 <0>         0.0000
     15 N1          5.5820    0.0300   17.3180 N.ar      1 <0>         0.0000
     16 N2          7.0600    0.2240   20.7190 N.am      1 <0>         0.0000
     17 O1          7.7500    2.2400   21.3080 O.2       1 <0>         0.0000
     18 O2         12.2840    3.7360   23.0640 O.3       1 <0>         0.0000
     19 Cl1        13.4530   -1.0580   21.9430 Cl        1 <0>         0.0000
     20 H1          3.2700    1.9510   18.9330 H         1 <0>         0.0000
     21 H2          9.6100    2.7860   23.3940 H         1 <0>         0.0000
     22 H3         10.5580   -1.2260   22.3140 H         1 <0>         0.0000
     23 H4         13.6320    1.6430   22.3090 H         1 <0>         0.0000
     24 H5          3.8450    0.9810   16.5570 H         1 <0>         0.0000
     25 H6          7.1880   -0.8200   18.3520 H         1 <0>         0.0000
     26 H7          5.3300    2.3640   21.6410 H         1 <0>         0.0000
     27 H8          3.8010    2.7550   20.8390 H         1 <0>         0.0000
     28 H9          3.9920    1.3280   21.7140 H         1 <0>         0.0000
     29 H10         8.2290   -0.5870   22.9200 H         1 <0>         0.0000
     30 H11         8.0070    1.0170   23.6990 H         1 <0>         0.0000
     31 H12         7.0640   -0.7360   21.0690 H         1 <0>         0.0000
     32 H13        10.7840    4.3450   24.3360 H         1 <0>         0.0000
     33 H14        10.5960    5.2780   21.3090 H         1 <0>         0.0000
     34 H15         9.3910    5.3770   22.4510 H         1 <0>         0.0000
     35 N3         11.9750    5.9970   23.7940 N.am      1 <0>         0.0000
     36 O3         10.6450    7.7560   23.2120 O.2       1 <0>         0.0000
     37 C15        11.3640    4.7290   23.4870 C.3       1 <0>         0.0000
     38 C16        10.4690    5.5190   22.3670 C.3       1 <0>         0.0000
     39 C17        11.1190    6.6780   23.0400 C.2       1 <0>         0.0000
     40 H16        12.2240    6.2550   24.7520 H         1 <0>         0.0000
@<TRIPOS>BOND
     1    5   24 1
     2    5   15 ar
     3    6   15 ar
     4    1    5 ar
     5    6   25 1
     6    6    9 ar
     7    1   20 1
     8    1    7 ar
     9    7    9 ar
    10    9   16 1
    11    7   13 1
    12   16   31 1
    13   12   16 am
    14   13   27 1
    15   13   26 1
    16   13   28 1
    17   12   17 2
    18   33   38 1
    19   12   14 1
    20   11   19 1
    21    4   11 ar
    22    3   11 ar
    23    4   23 1
    24    3   22 1
    25   34   38 1
    26   38   39 1
    27   37   38 1
    28    4   10 ar
    29    3    8 ar
    30    8   14 1
    31   14   29 1
    32   14   30 1
    33   10   18 1
    34    2   10 ar
    35    2    8 ar
    36   36   39 2
    37   35   39 am
    38   18   37 1
    39    2   21 1
    40   35   37 1
    41   32   37 1
    42   35   40 1
@<TRIPOS>MOLECULE
*****
   40    42     0     0     0
SMALL
NO_CHARGES

@<TRIPOS>ATOM
      1 C1          5.6620    1.0090   19.8870 C.ar      1 <0>         0.0000
      2 C2         12.8810    0.6610   23.8390 C.ar      1 <0>         0.0000
      3 C3         12.6230   -1.1730   22.2600 C.ar      1 <0>         0.0000
      4 C4         14.8030   -0.1470   22.5650 C.ar      1 <0>         0.0000
      5 C5          6.1600    0.8750   18.6670 C.ar      1 <0>         0.0000
      6 C6          8.2310    0.2190   19.6410 C.ar      1 <0>         0.0000
      7 C7          6.4340    0.7580   21.0370 C.ar      1 <0>         0.0000
      8 C8         12.0480   -0.3210   23.2210 C.ar      1 <0>         0.0000
      9 C9          7.7080    0.3180   20.9330 C.ar      1 <0>         0.0000
     10 C10        14.2710    0.7440   23.4670 C.ar      1 <0>         0.0000
     11 C11        14.0090   -1.1050   21.8590 C.ar      1 <0>         0.0000
     12 C12         9.8040    0.2770   22.2470 C.2       1 <0>         0.0000
     13 C13         5.8430    0.9840   22.4360 C.3       1 <0>         0.0000
     14 C14        10.5610   -0.2580   23.4380 C.3       1 <0>         0.0000
     15 N1          7.5110    0.4510   18.5120 N.ar      1 <0>         0.0000
     16 N2          8.4340    0.0030   22.0530 N.am      1 <0>         0.0000
     17 O1         10.3760    0.9580   21.4220 O.2       1 <0>         0.0000
     18 O2         15.1490    1.7450   23.8760 O.3       1 <0>         0.0000
     19 Cl1        14.6490   -2.2120   20.6830 Cl        1 <0>         0.0000
     20 H1          4.6070    1.2080   19.9830 H         1 <0>         0.0000
     21 H2         12.4600    1.3430   24.5790 H         1 <0>         0.0000
     22 H3         11.9450   -1.7890   21.6650 H         1 <0>         0.0000
     23 H4         15.8450   -0.0000   22.3250 H         1 <0>         0.0000
     24 H5          5.6030    1.1160   17.7660 H         1 <0>         0.0000
     25 H6          9.2650   -0.1120   19.6490 H         1 <0>         0.0000
     26 H7          6.3510    1.8480   22.8840 H         1 <0>         0.0000
     27 H8          4.7850    1.2190   22.5070 H         1 <0>         0.0000
     28 H9          6.0820    0.1190   23.0540 H         1 <0>         0.0000
     29 H10        10.2400   -1.2760   23.7000 H         1 <0>         0.0000
     30 H11        10.3940    0.4270   24.2690 H         1 <0>         0.0000
     31 H12         7.9380   -0.3170   22.8880 H         1 <0>         0.0000
     32 C15        14.5800    3.0480   24.1940 C.3       1 <0>         0.0000
     33 C16        13.8650    3.8910   23.0340 C.3       1 <0>         0.0000
     34 C17        15.1280    4.6980   23.3630 C.2       1 <0>         0.0000
     35 H13        16.6850    3.7440   24.1380 H         1 <0>         0.0000
     36 H14        14.0500    3.0470   25.1500 H         1 <0>         0.0000
     37 H15        13.7830    3.4660   22.0220 H         1 <0>         0.0000
     38 H16        12.9880    4.4070   23.4270 H         1 <0>         0.0000
     39 N3         15.6970    3.9910   24.2800 N.am      1 <0>         0.0000
     40 O3         15.7740    5.3800   22.6000 O.2       1 <0>         0.0000
@<TRIPOS>BOND
     1    5   24 1
     2    5   15 ar
     3    6   15 ar
     4    1    5 ar
     5    6   25 1
     6    6    9 ar
     7    1   20 1
     8    1    7 ar
     9   11   19 1
    10    7    9 ar
    11    9   16 1
    12    7   13 1
    13   12   17 2
    14    3   22 1
    15    3   11 ar
    16    4   11 ar
    17   33   37 1
    18   12   16 am
    19   16   31 1
    20   12   14 1
    21    3    8 ar
    22    4   23 1
    23   13   27 1
    24   13   26 1
    25   13   28 1
    26    4   10 ar
    27   34   40 2
    28   33   34 1
    29   33   38 1
    30   32   33 1
    31    8   14 1
    32    2    8 ar
    33   34   39 am
    34   14   29 1
    35   14   30 1
    36    2   10 ar
    37   10   18 1
    38    2   21 1
    39   18   32 1
    40   35   39 1
    41   32   39 1
    42   32   36 1
@<TRIPOS>MOLECULE
*****
   40    42     0     0     0
SMALL
NO_CHARGES

@<TRIPOS>ATOM
      1 C1          4.5000    2.3310   18.6100 C.ar      1 <0>         0.0000
      2 C2         10.9550    2.0480   23.3670 C.ar      1 <0>         0.0000
      3 C3         11.4420    0.2790   21.8100 C.ar      1 <0>         0.0000
      4 C4         13.2390    1.3020   22.9850 C.ar      1 <0>         0.0000
      5 C5          4.9860    1.9230   17.3180 C.ar      1 <0>         0.0000
      6 C6          6.7440    0.8990   18.3530 C.ar      1 <0>         0.0000
      7 C7          5.2080    2.0350   19.7170 C.ar      1 <0>         0.0000
      8 C8         10.4850    1.0550   22.4800 C.ar      1 <0>         0.0000
      9 C9          6.3430    1.2540   19.6090 C.ar      1 <0>         0.0000
     10 C10        12.3340    2.1810   23.6800 C.ar      1 <0>         0.0000
     11 C11        12.8250    0.4140   22.0330 C.ar      1 <0>         0.0000
     12 C12         8.3790    1.1380   20.9770 C.2       1 <0>         0.0000
     13 C13         4.7070    2.6330   21.0220 C.3       1 <0>         0.0000
     14 C14         9.0000    0.7420   22.3080 C.3       1 <0>         0.0000
     15 N1          6.0880    1.2000   17.1990 N.ar      1 <0>         0.0000
     16 N2          7.0290    0.9450   20.7650 N.am      1 <0>         0.0000
     17 O1          8.9530    1.8910   20.2320 O.2       1 <0>         0.0000
     18 O2         12.8050    3.1340   24.6060 O.3       1 <0>         0.0000
     19 Cl1        13.8720   -0.6740   21.2430 Cl        1 <0>         0.0000
     20 H1          3.5570    2.8660   18.6450 H         1 <0>         0.0000
     21 H2         10.2110    2.6200   23.9050 H         1 <0>         0.0000
     22 H3         11.0940   -0.5280   21.1740 H         1 <0>         0.0000
     23 H4         14.3120    1.3860   23.0890 H         1 <0>         0.0000
     24 H5          4.3820    2.1130   16.4450 H         1 <0>         0.0000
     25 H6          7.6180    0.2710   18.2320 H         1 <0>         0.0000
     26 H7          4.3690    3.6450   20.8000 H         1 <0>         0.0000
     27 H8          3.8810    2.0370   21.4340 H         1 <0>         0.0000
     28 H9          5.4770    2.7470   21.7900 H         1 <0>         0.0000
     29 H10         8.7960   -0.3270   22.4470 H         1 <0>         0.0000
     30 H11         8.5020    1.3170   23.0910 H         1 <0>         0.0000
     31 H12         6.6230    0.2960   21.4310 H         1 <0>         0.0000
     32 C15        11.8320    3.8560   25.4240 C.3       1 <0>         0.0000
     33 C16        11.1750    5.0920   24.7270 C.3       1 <0>         0.0000
     34 C17        11.9220    5.8820   25.7670 C.2       1 <0>         0.0000
     35 H13        12.3620    4.7180   27.3240 H         1 <0>         0.0000
     36 H14        11.0840    3.2240   25.9100 H         1 <0>         0.0000
     37 H15        10.0900    5.1240   24.8650 H         1 <0>         0.0000
     38 H16        11.5650    5.2540   23.7210 H         1 <0>         0.0000
     39 N3         12.4670    4.8000   26.3100 N.am      1 <0>         0.0000
     40 O3         11.6550    6.7860   26.4890 O.2       1 <0>         0.0000
@<TRIPOS>BOND
     1    5   24 1
     2    5   15 ar
     3    6   15 ar
     4    1    5 ar
     5    6   25 1
     6    6    9 ar
     7    1   20 1
     8    1    7 ar
     9    7    9 ar
    10    9   16 1
    11    7   13 1
    12   12   17 2
    13   12   16 am
    14   16   31 1
    15   13   26 1
    16   12   14 1
    17   13   27 1
    18   13   28 1
    19    3   22 1
    20   11   19 1
    21    3   11 ar
    22    3    8 ar
    23    4   11 ar
    24   14   29 1
    25    8   14 1
    26   14   30 1
    27    2    8 ar
    28    4   23 1
    29    4   10 ar
    30    2   10 ar
    31    2   21 1
    32   10   18 1
    33   33   38 1
    34   18   32 1
    35   33   37 1
    36   32   33 1
    37   33   34 1
    38   32   36 1
    39   32   39 1
    40   34   39 am
    41   34   40 2
    42   35   39 1
@<TRIPOS>MOLECULE
*****
   42    44     0     0     0
SMALL
NO_CHARGES

@<TRIPOS>ATOM
      1 C1          4.9420    2.1190   18.4570 C.ar      1 <0>         0.0000
      2 C2         10.9540    1.1780   23.7160 C.ar      1 <0>         0.0000
      3 C3         11.2470   -0.7750   22.4170 C.ar      1 <0>         0.0000
      4 C4         13.2350    0.4410   23.1900 C.ar      1 <0>         0.0000
      5 C5          5.8350    1.9430   17.3270 C.ar      1 <0>         0.0000
      6 C6          7.2680    0.5340   18.4930 C.ar      1 <0>         0.0000
      7 C7          5.4080    1.5440   19.6340 C.ar      1 <0>         0.0000
      8 C8         10.3850    0.1140   23.0080 C.ar      1 <0>         0.0000
      9 C9          6.5880    0.8530   19.7040 C.ar      1 <0>         0.0000
     10 C10        12.3710    1.3520   23.8610 C.ar      1 <0>         0.0000
     11 C11        12.6850   -0.6710   22.5150 C.ar      1 <0>         0.0000
     12 C12         8.4420    0.6880   21.4130 C.2       1 <0>         0.0000
     13 C13         4.5500    1.8730   20.8180 C.3       1 <0>         0.0000
     14 C14         8.8280    0.0530   22.8110 C.3       1 <0>         0.0000
     15 N1          6.9060    1.1260   17.3620 N.ar      1 <0>         0.0000
     16 N2          7.1400    0.4030   20.9420 N.am      1 <0>         0.0000
     17 O1          9.1270    1.5430   20.8470 O.2       1 <0>         0.0000
     18 O2         12.9530    2.3070   24.6540 O.3       1 <0>         0.0000
     19 Cl1        13.6830   -1.9140   21.8780 Cl        1 <0>         0.0000
     20 H1          4.0340    2.7040   18.4390 H         1 <0>         0.0000
     21 H2         10.1900    1.8080   24.1430 H         1 <0>         0.0000
     22 H3         10.7880   -1.5700   21.8330 H         1 <0>         0.0000
     23 H4         14.3150    0.4480   23.3480 H         1 <0>         0.0000
     24 H5          5.5880    2.3930   16.3660 H         1 <0>         0.0000
     25 H6          8.0450   -0.2260   18.5750 H         1 <0>         0.0000
     26 H7          3.5120    2.2100   20.7330 H         1 <0>         0.0000
     27 H8          4.5720    1.0880   21.5780 H         1 <0>         0.0000
     28 H9          5.0330    2.6210   21.4670 H         1 <0>         0.0000
     29 H10         8.5750   -1.0000   22.9170 H         1 <0>         0.0000
     30 H11         8.2630    0.5790   23.5810 H         1 <0>         0.0000
     31 H12         6.5790   -0.2550   21.4840 H         1 <0>         0.0000
     32 H13        10.3190    4.3610   24.2740 H         1 <0>         0.0000
     33 H14        11.7810    4.3240   23.2160 H         1 <0>         0.0000
     34 N3         12.7580    4.3150   25.9570 N.3       1 <0>         0.0000
     35 O3         11.6740    6.2780   25.6640 O.3       1 <0>         0.0000
     36 C15        12.0870    3.2460   25.2540 C.3       1 <0>         0.0000
     37 C16        11.4100    4.2950   24.2430 C.3       1 <0>         0.0000
     38 C17        12.1610    5.2720   25.1910 C.3       1 <0>         0.0000
     39 H15        12.5850    4.4450   26.9510 H         1 <0>         0.0000
     40 H16        11.3360    2.7390   25.8670 H         1 <0>         0.0000
     41 H          11.6740    6.2780   25.6640 H         1 <0>         0.0000
     42 H          12.1610    5.2720   25.1910 H         1 <0>         0.0000
@<TRIPOS>BOND
     1    5   24 1
     2    5   15 ar
     3    1    5 ar
     4    6   15 ar
     5    1   20 1
     6    1    7 ar
     7    6   25 1
     8    6    9 ar
     9    7    9 ar
    10    7   13 1
    11    9   16 1
    12   13   26 1
    13   13   28 1
    14   13   27 1
    15   12   17 2
    16   12   16 am
    17   16   31 1
    18   12   14 1
    19    3   22 1
    20   11   19 1
    21    3   11 ar
    22    3    8 ar
    23    4   11 ar
    24   14   29 1
    25    8   14 1
    26   14   30 1
    27    2    8 ar
    28    4   23 1
    29    4   10 ar
    30   33   37 1
    31    2   10 ar
    32    2   21 1
    33   10   18 1
    34   32   37 1
    35   37   38 1
    36   36   37 1
    37   18   36 1
    38   35   38 1
    39   34   38 1
    40   36   40 1
    41   34   36 1
    42   34   39 1
    43   35   41 1
    44   38   42 1
@<TRIPOS>MOLECULE
*****
   42    44     0     0     0
SMALL
NO_CHARGES

@<TRIPOS>ATOM
      1 C1          5.9790    0.2910   16.8480 C.ar      1 <0>         0.0000
      2 C2         11.1510    1.9250   22.7690 C.ar      1 <0>         0.0000
      3 C3         11.5720   -0.4050   22.3290 C.ar      1 <0>         0.0000
      4 C4         13.4100    1.0500   22.7110 C.ar      1 <0>         0.0000
      5 C5          5.2840    1.4900   17.1360 C.ar      1 <0>         0.0000
      6 C6          6.2730    1.7000   19.1650 C.ar      1 <0>         0.0000
      7 C7          6.9220   -0.1820   17.7780 C.ar      1 <0>         0.0000
      8 C8         10.6130    0.6600   22.4070 C.ar      1 <0>         0.0000
      9 C9          7.1030    0.5720   18.9460 C.ar      1 <0>         0.0000
     10 C10        12.5670    2.1640   22.8220 C.ar      1 <0>         0.0000
     11 C11        12.9300   -0.2350   22.4310 C.ar      1 <0>         0.0000
     12 C12         8.6670    0.9200   20.8260 C.2       1 <0>         0.0000
     13 C13         7.6970   -1.4720   17.5050 C.3       1 <0>         0.0000
     14 C14         9.1420    0.4150   22.1750 C.3       1 <0>         0.0000
     15 N1          5.3720    2.1520   18.3010 N.ar      1 <0>         0.0000
     16 N2          7.9010    0.1390   19.9590 N.am      1 <0>         0.0000
     17 O1          9.0560    1.9840   20.3780 O.2       1 <0>         0.0000
     18 O2         13.1310    3.4580   23.0980 O.3       1 <0>         0.0000
     19 Cl1        13.9920   -1.4880   21.9730 Cl        1 <0>         0.0000
     20 H1          5.6750   -0.3630   16.0320 H         1 <0>         0.0000
     21 H2         10.5280    2.8070   22.7940 H         1 <0>         0.0000
     22 H3         11.2670   -1.4330   22.1520 H         1 <0>         0.0000
     23 H4         14.4760    1.2130   22.8450 H         1 <0>         0.0000
     24 H5          4.4490    1.7200   16.4790 H         1 <0>         0.0000
     25 H6          6.2280    2.1870   20.1310 H         1 <0>         0.0000
     26 H7          8.3470   -1.6930   18.3500 H         1 <0>         0.0000
     27 H8          6.9780   -2.2660   17.3000 H         1 <0>         0.0000
     28 H9          8.3430   -1.4040   16.6190 H         1 <0>         0.0000
     29 H10         9.0120   -0.6660   22.1730 H         1 <0>         0.0000
     30 H11         8.4770    0.8140   22.9470 H         1 <0>         0.0000
     31 H12         7.7900   -0.7890   20.3660 H         1 <0>         0.0000
     32 H13        12.8730    6.2740   24.0890 H         1 <0>         0.0000
     33 H14        11.5060    4.3950   23.9370 H         1 <0>         0.0000
     34 H15        11.9750    4.5710   20.9570 H         1 <0>         0.0000
     35 H16        10.5010    5.2040   21.8390 H         1 <0>         0.0000
     36 N3         12.9840    5.8360   23.1700 N.3       1 <0>         0.0000
     37 O3         11.7400    7.4840   22.3060 O.3       1 <0>         0.0000
     38 C15        12.2440    4.5690   23.1460 C.3       1 <0>         0.0000
     39 C16        11.5850    5.1070   21.8250 C.3       1 <0>         0.0000
     40 C17        12.2710    6.3920   22.1410 C.3       1 <0>         0.0000
     41 H          11.7400    7.4840   22.3060 H         1 <0>         0.0000
     42 H          12.2710    6.3920   22.1410 H         1 <0>         0.0000
@<TRIPOS>BOND
     1    1   20 1
     2    5   24 1
     3   13   28 1
     4    1    5 ar
     5    1    7 ar
     6    5   15 ar
     7   13   27 1
     8    7   13 1
     9   13   26 1
    10    7    9 ar
    11    6   15 ar
    12    6    9 ar
    13    9   16 1
    14    6   25 1
    15   16   31 1
    16   12   16 am
    17   12   17 2
    18   12   14 1
    19   34   39 1
    20   35   39 1
    21   39   40 1
    22   38   39 1
    23   11   19 1
    24   37   40 1
    25   36   40 1
    26    3   22 1
    27   14   29 1
    28    8   14 1
    29   14   30 1
    30    3    8 ar
    31    3   11 ar
    32    2    8 ar
    33    4   11 ar
    34    4   10 ar
    35    4   23 1
    36    2   21 1
    37    2   10 ar
    38   10   18 1
    39   18   38 1
    40   36   38 1
    41   33   38 1
    42   32   36 1
    43   37   41 1
    44   40   42 1
@<TRIPOS>MOLECULE
*****
   40    42     0     0     0
SMALL
NO_CHARGES

@<TRIPOS>ATOM
      1 C1          4.7160    1.4540   18.9560 C.ar      1 <0>         0.0000
      2 C2         11.4550    1.1940   23.1810 C.ar      1 <0>         0.0000
      3 C3         11.6270   -1.0430   22.2960 C.ar      1 <0>         0.0000
      4 C4         13.6810    0.3410   22.6020 C.ar      1 <0>         0.0000
      5 C5          5.4130    1.3280   17.7840 C.ar      1 <0>         0.0000
      6 C6          7.2290    0.5150   18.8860 C.ar      1 <0>         0.0000
      7 C7          5.2620    1.0960   20.1530 C.ar      1 <0>         0.0000
      8 C8         10.8040    0.0240   22.7370 C.ar      1 <0>         0.0000
      9 C9          6.6410    0.6860   20.1350 C.ar      1 <0>         0.0000
     10 C10        12.8610    1.4040   23.0670 C.ar      1 <0>         0.0000
     11 C11        13.0570   -0.8600   22.2280 C.ar      1 <0>         0.0000
     12 C12         8.5900    0.6190   21.5780 C.2       1 <0>         0.0000
     13 C13         4.6030    1.3260   21.4480 C.3       1 <0>         0.0000
     14 C14         9.2980   -0.0370   22.8010 C.3       1 <0>         0.0000
     15 N1          6.6990    0.8290   17.7040 N.ar      1 <0>         0.0000
     16 N2          7.3360    0.3440   21.2260 N.am      1 <0>         0.0000
     17 O1          9.1640    1.6140   21.0820 O.2       1 <0>         0.0000
     18 O2         13.5650    2.5940   23.4910 O.3       1 <0>         0.0000
     19 Cl1        14.0720   -2.2080   21.7180 Cl        1 <0>         0.0000
     20 H1          3.7220    1.8690   18.8610 H         1 <0>         0.0000
     21 H2         10.8590    1.9620   23.6720 H         1 <0>         0.0000
     22 H3         11.2600   -2.0140   22.0080 H         1 <0>         0.0000
     23 H4         14.7450    0.5570   22.6430 H         1 <0>         0.0000
     24 H5          4.9690    1.6250   16.8460 H         1 <0>         0.0000
     25 H6          8.2350    0.0880   18.9180 H         1 <0>         0.0000
     26 H7          3.5400    1.4830   21.2350 H         1 <0>         0.0000
     27 H8          4.7200    0.5320   22.1830 H         1 <0>         0.0000
     28 H9          4.9350    2.2490   21.9290 H         1 <0>         0.0000
     29 H10         9.0480   -1.0980   22.6260 H         1 <0>         0.0000
     30 H11         8.8670    0.1430   23.7900 H         1 <0>         0.0000
     31 H12         6.8830   -0.0230   22.0640 H         1 <0>         0.0000
     32 N3         13.5190    4.9490   23.8360 N.am      1 <0>         0.0000
     33 O3         12.3940    6.7250   22.8810 O.2       1 <0>         0.0000
     34 C15        12.7560    3.7620   23.7440 C.3       1 <0>         0.0000
     35 C16        11.9330    4.3760   22.5840 C.3       1 <0>         0.0000
     36 C17        12.7780    5.5600   22.8570 C.2       1 <0>         0.0000
     37 H13        13.5120    5.3480   24.7770 H         1 <0>         0.0000
     38 H14        12.1470    3.6740   24.6450 H         1 <0>         0.0000
     39 H15        10.9010    4.5030   22.9320 H         1 <0>         0.0000
     40 H16        12.0490    3.7210   21.7130 H         1 <0>         0.0000
@<TRIPOS>BOND
     1    5   24 1
     2    5   15 ar
     3    6   15 ar
     4    1    5 ar
     5    1   20 1
     6    6   25 1
     7    6    9 ar
     8    1    7 ar
     9    7    9 ar
    10    9   16 1
    11    7   13 1
    12   12   17 2
    13   12   16 am
    14   16   31 1
    15   13   26 1
    16   13   28 1
    17   13   27 1
    18   12   14 1
    19   35   40 1
    20   11   19 1
    21    3   22 1
    22    3   11 ar
    23    4   11 ar
    24    3    8 ar
    25   35   36 1
    26   35   39 1
    27   34   35 1
    28    4   23 1
    29    4   10 ar
    30   14   29 1
    31    8   14 1
    32    2    8 ar
    33   14   30 1
    34   33   36 2
    35   32   36 am
    36    2   10 ar
    37   10   18 1
    38    2   21 1
    39   18   34 1
    40   32   34 1
    41   34   38 1
    42   32   37 1
@<TRIPOS>MOLECULE
*****
   40    42     0     0     0
SMALL
NO_CHARGES

@<TRIPOS>ATOM
      1 C1          4.6860    1.5640   19.5490 C.ar      1 <0>         0.0000
      2 C2         11.9390    1.5010   23.1750 C.ar      1 <0>         0.0000
      3 C3         11.9720   -0.5050   21.9390 C.ar      1 <0>         0.0000
      4 C4         14.0070    0.7410   22.1720 C.ar      1 <0>         0.0000
      5 C5          5.2580    1.2440   18.3510 C.ar      1 <0>         0.0000
      6 C6          7.1810    0.4710   19.2460 C.ar      1 <0>         0.0000
      7 C7          5.4280    1.2940   20.7620 C.ar      1 <0>         0.0000
      8 C8         11.2580    0.3750   22.7310 C.ar      1 <0>         0.0000
      9 C9          6.7110    0.7160   20.5790 C.ar      1 <0>         0.0000
     10 C10        13.3470    1.6840   22.9990 C.ar      1 <0>         0.0000
     11 C11        13.2990   -0.3710   21.7080 C.ar      1 <0>         0.0000
     12 C12         8.8760    0.6860   21.8430 C.2       1 <0>         0.0000
     13 C13         4.8870    1.6480   22.1790 C.3       1 <0>         0.0000
     14 C14         9.7890    0.2030   22.9810 C.3       1 <0>         0.0000
     15 N1          6.4700    0.7590   18.1460 N.ar      1 <0>         0.0000
     16 N2          7.5330    0.4220   21.6910 N.am      1 <0>         0.0000
     17 O1          9.3310    1.3810   20.9780 O.2       1 <0>         0.0000
     18 O2         14.1630    2.7710   23.4440 O.3       1 <0>         0.0000
     19 Cl1        14.2050   -1.6420   20.8970 Cl        1 <0>         0.0000
     20 H1          3.7340    2.0780   19.5140 H         1 <0>         0.0000
     21 H2         11.4010    2.2590   23.7250 H         1 <0>         0.0000
     22 H3         11.4400   -1.2860   21.4160 H         1 <0>         0.0000
     23 H4         15.0800    0.8510   22.0300 H         1 <0>         0.0000
     24 H5          4.6650    1.4440   17.4570 H         1 <0>         0.0000
     25 H6          8.1520    0.0120   19.0650 H         1 <0>         0.0000
     26 H7          5.7700    2.0630   22.6810 H         1 <0>         0.0000
     27 H8          4.1300    2.4260   22.3110 H         1 <0>         0.0000
     28 H9          4.5210    0.7470   22.6840 H         1 <0>         0.0000
     29 H10         9.5160   -0.8200   23.2780 H         1 <0>         0.0000
     30 H11         9.5020    0.8860   23.7950 H         1 <0>         0.0000
     31 H12         7.0560   -0.0040   22.4980 H         1 <0>         0.0000
     32 H13        13.0480    3.7480   24.9570 H         1 <0>         0.0000
     33 H14        12.5840    4.1650   21.7910 H         1 <0>         0.0000
     34 H15        11.4640    4.6610   23.0640 H         1 <0>         0.0000
     35 N3         14.2640    5.1370   23.9210 N.am      1 <0>         0.0000
     36 O3         13.0320    6.9450   23.1870 O.2       1 <0>         0.0000
     37 C15        13.4410    3.9030   23.9510 C.3       1 <0>         0.0000
     38 C16        12.5270    4.5690   22.8070 C.3       1 <0>         0.0000
     39 C17        13.4270    5.7750   23.0620 C.2       1 <0>         0.0000
     40 H16        14.4570    5.5480   24.8400 H         1 <0>         0.0000
@<TRIPOS>BOND
     1    5   24 1
     2    5   15 ar
     3    6   15 ar
     4    1    5 ar
     5    6   25 1
     6    6    9 ar
     7    1   20 1
     8    1    7 ar
     9    7    9 ar
    10    9   16 1
    11    7   13 1
    12   11   19 1
    13   12   17 2
    14    3   22 1
    15   12   16 am
    16   16   31 1
    17    3   11 ar
    18    4   11 ar
    19   33   38 1
    20   12   14 1
    21    3    8 ar
    22    4   23 1
    23    4   10 ar
    24   13   27 1
    25   13   26 1
    26   13   28 1
    27    8   14 1
    28    2    8 ar
    29   38   39 1
    30   34   38 1
    31   37   38 1
    32   14   29 1
    33   14   30 1
    34    2   10 ar
    35   10   18 1
    36   36   39 2
    37   35   39 am
    38    2   21 1
    39   18   37 1
    40   35   37 1
    41   35   40 1
    42   32   37 1
@<TRIPOS>MOLECULE
*****
   40    42     0     0     0
SMALL
NO_CHARGES

@<TRIPOS>ATOM
      1 C1          4.8400    1.3770   19.1930 C.ar      1 <0>         0.0000
      2 C2         11.6600    1.7390   23.1920 C.ar      1 <0>         0.0000
      3 C3         11.8580   -0.6330   22.6920 C.ar      1 <0>         0.0000
      4 C4         13.7940    0.7000   22.7000 C.ar      1 <0>         0.0000
      5 C5          5.5310    0.9770   18.0030 C.ar      1 <0>         0.0000
      6 C6          7.4180    0.4770   19.2440 C.ar      1 <0>         0.0000
      7 C7          5.5030    1.4010   20.4660 C.ar      1 <0>         0.0000
      8 C8         11.0260    0.5100   22.9350 C.ar      1 <0>         0.0000
      9 C9          6.8430    1.0020   20.4710 C.ar      1 <0>         0.0000
     10 C10        13.0480    1.9020   23.0230 C.ar      1 <0>         0.0000
     11 C11        13.2650   -0.5350   22.6150 C.ar      1 <0>         0.0000
     12 C12         8.8150    0.9130   21.8310 C.2       1 <0>         0.0000
     13 C13         4.6570    1.6720   21.7270 C.3       1 <0>         0.0000
     14 C14         9.5640    0.2300   22.9250 C.3       1 <0>         0.0000
     15 N1          6.8190    0.5710   18.0460 N.ar      1 <0>         0.0000
     16 N2          7.4610    0.7860   21.6640 N.am      1 <0>         0.0000
     17 O1          9.4570    1.5690   21.0590 O.2       1 <0>         0.0000
     18 O2         13.6610    3.0920   23.1760 O.3       1 <0>         0.0000
     19 Cl1        14.3060   -1.9110   22.3020 Cl        1 <0>         0.0000
     20 H1          3.7820    1.4970   19.0080 H         1 <0>         0.0000
     21 H2         10.9930    2.5640   23.4240 H         1 <0>         0.0000
     22 H3         11.4670   -1.6440   22.6190 H         1 <0>         0.0000
     23 H4         14.8560    0.9170   22.6610 H         1 <0>         0.0000
     24 H5          5.0330    1.0260   17.0390 H         1 <0>         0.0000
     25 H6          8.4060    0.0140   19.2920 H         1 <0>         0.0000
     26 H7          4.2950    0.7360   22.1390 H         1 <0>         0.0000
     27 H8          5.3040    2.0320   22.5370 H         1 <0>         0.0000
     28 H9          3.8020    2.3370   21.5690 H         1 <0>         0.0000
     29 H10         9.3780   -0.8500   22.9100 H         1 <0>         0.0000
     30 H11         9.1390    0.5440   23.8830 H         1 <0>         0.0000
     31 H12         6.9790    0.3560   22.4520 H         1 <0>         0.0000
     32 H13        12.0320    3.9860   21.3070 H         1 <0>         0.0000
     33 H14        10.8380    4.5750   22.5260 H         1 <0>         0.0000
     34 N3         13.4770    5.5330   23.3080 N.am      1 <0>         0.0000
     35 O3         12.1790    6.9570   22.0990 O.2       1 <0>         0.0000
     36 C15        12.8420    4.2220   23.4600 C.3       1 <0>         0.0000
     37 C16        11.8910    4.5360   22.2420 C.3       1 <0>         0.0000
     38 C17        12.6350    5.8370   22.3460 C.2       1 <0>         0.0000
     39 H15        13.6470    6.2020   24.0640 H         1 <0>         0.0000
     40 H16        12.3240    4.1430   24.4140 H         1 <0>         0.0000
@<TRIPOS>BOND
     1    5   24 1
     2    5   15 ar
     3    1    5 ar
     4    6   15 ar
     5    1   20 1
     6    1    7 ar
     7    6   25 1
     8    6    9 ar
     9    7    9 ar
    10    7   13 1
    11    9   16 1
    12   12   17 2
    13   32   37 1
    14   13   28 1
    15   12   16 am
    16   16   31 1
    17   13   26 1
    18   13   27 1
    19   12   14 1
    20   35   38 2
    21   37   38 1
    22   33   37 1
    23   36   37 1
    24   11   19 1
    25   34   38 am
    26    3   11 ar
    27    4   11 ar
    28    3   22 1
    29    4   23 1
    30    3    8 ar
    31    4   10 ar
    32   14   29 1
    33    8   14 1
    34   14   30 1
    35    2    8 ar
    36   10   18 1
    37    2   10 ar
    38   18   36 1
    39    2   21 1
    40   34   36 1
    41   34   39 1
    42   36   40 1
@<TRIPOS>MOLECULE
*****
   40    42     0     0     0
SMALL
NO_CHARGES

@<TRIPOS>ATOM
      1 C1          4.5680    0.8470   19.9570 C.ar      1 <0>         0.0000
      2 C2         11.0940    1.6810   23.0810 C.ar      1 <0>         0.0000
      3 C3         11.3640   -0.7100   23.0570 C.ar      1 <0>         0.0000
      4 C4         13.2210    0.7690   22.4900 C.ar      1 <0>         0.0000
      5 C5          5.1650    0.2230   18.8540 C.ar      1 <0>         0.0000
      6 C6          7.1180   -0.2750   20.0500 C.ar      1 <0>         0.0000
      7 C7          5.3510    1.0380   21.1430 C.ar      1 <0>         0.0000
      8 C8         10.6070    0.3620   23.3580 C.ar      1 <0>         0.0000
      9 C9          6.6190    0.3940   21.1930 C.ar      1 <0>         0.0000
     10 C10        12.4280    1.8960   22.7330 C.ar      1 <0>         0.0000
     11 C11        12.6250   -0.4960   22.5370 C.ar      1 <0>         0.0000
     12 C12         8.2450   -0.2440   22.7800 C.2       1 <0>         0.0000
     13 C13         4.7900    1.8090   22.2610 C.3       1 <0>         0.0000
     14 C14         9.1970    0.1430   23.9020 C.3       1 <0>         0.0000
     15 N1          6.3850   -0.4000   18.9210 N.ar      1 <0>         0.0000
     16 N2          7.4230    0.7020   22.2820 N.am      1 <0>         0.0000
     17 O1          8.3250   -1.3890   22.3250 O.2       1 <0>         0.0000
     18 O2         12.9070    3.1840   22.3930 O.3       1 <0>         0.0000
     19 Cl1        13.5680   -1.7670   22.0900 Cl        1 <0>         0.0000
     20 H1          3.5600    1.2400   20.0300 H         1 <0>         0.0000
     21 H2         10.3470    2.4680   23.1240 H         1 <0>         0.0000
     22 H3         10.9690   -1.7000   23.2760 H         1 <0>         0.0000
     23 H4         14.2640    0.9300   22.2480 H         1 <0>         0.0000
     24 H5          4.4990    0.1380   18.0070 H         1 <0>         0.0000
     25 H6          8.1090   -0.7150   20.0860 H         1 <0>         0.0000
     26 H7          5.2050    1.4560   23.2170 H         1 <0>         0.0000
     27 H8          4.8400    2.8660   22.0100 H         1 <0>         0.0000
     28 H9          3.7260    1.5830   22.2690 H         1 <0>         0.0000
     29 H10         9.0320   -0.7260   24.5430 H         1 <0>         0.0000
     30 H11         8.8920    1.0300   24.4610 H         1 <0>         0.0000
     31 H12         7.3360    1.5520   22.8210 H         1 <0>         0.0000
     32 C15        12.8890    4.0560   23.4710 C.3       1 <0>         0.0000
     33 C16        11.5600    4.8700   23.6920 C.3       1 <0>         0.0000
     34 C17        12.5520    6.0350   23.6070 C.2       1 <0>         0.0000
     35 H13        14.5240    5.4220   23.8740 H         1 <0>         0.0000
     36 H14        13.2780    3.6230   24.4010 H         1 <0>         0.0000
     37 H15        11.0910    4.8310   24.6840 H         1 <0>         0.0000
     38 H16        10.8490    4.8920   22.8630 H         1 <0>         0.0000
     39 N3         13.6560    5.3200   23.3380 N.am      1 <0>         0.0000
     40 O3         12.5340    7.0330   24.3390 O.2       1 <0>         0.0000
@<TRIPOS>BOND
     1    5   24 1
     2    5   15 ar
     3    1    5 ar
     4    6   15 ar
     5    1   20 1
     6    1    7 ar
     7    6   25 1
     8    6    9 ar
     9    7    9 ar
    10    7   13 1
    11    9   16 1
    12   13   27 1
    13   11   19 1
    14    4   23 1
    15   13   28 1
    16   13   26 1
    17   12   16 am
    18   16   31 1
    19   12   17 2
    20   10   18 1
    21   18   32 1
    22    4   11 ar
    23    4   10 ar
    24    3   11 ar
    25    2   10 ar
    26   12   14 1
    27   33   38 1
    28    3   22 1
    29    3    8 ar
    30    2   21 1
    31    2    8 ar
    32   32   39 1
    33   34   39 am
    34   35   39 1
    35    8   14 1
    36   32   33 1
    37   32   36 1
    38   33   34 1
    39   34   40 2
    40   33   37 1
    41   14   30 1
    42   14   29 1
@<TRIPOS>MOLECULE
*****
   40    42     0     0     0
SMALL
NO_CHARGES

@<TRIPOS>ATOM
      1 C1          7.6840    0.8070   20.0020 C.ar      1 <0>         0.0000
      2 C2         13.4680    1.3090   23.8550 C.ar      1 <0>         0.0000
      3 C3         13.3740   -0.9900   23.0000 C.ar      1 <0>         0.0000
      4 C4         15.1260    0.4830   22.2950 C.ar      1 <0>         0.0000
      5 C5          7.2620    2.0980   20.2970 C.ar      1 <0>         0.0000
      6 C6          8.5470    2.1550   22.1550 C.ar      1 <0>         0.0000
      7 C7          8.6530    0.1900   20.8560 C.ar      1 <0>         0.0000
      8 C8         12.8320   -0.0090   23.8470 C.ar      1 <0>         0.0000
      9 C9          9.0840    0.9010   22.0010 C.ar      1 <0>         0.0000
     10 C10        14.6400    1.5330   23.0740 C.ar      1 <0>         0.0000
     11 C11        14.5490   -0.7860   22.2990 C.ar      1 <0>         0.0000
     12 C12        10.4970    0.7060   24.0880 C.2       1 <0>         0.0000
     13 C13         9.1500   -1.1740   20.5180 C.3       1 <0>         0.0000
     14 C14        11.6060   -0.1410   24.7520 C.3       1 <0>         0.0000
     15 N1          7.7040    2.7530   21.3360 N.ar      1 <0>         0.0000
     16 N2          9.9660    0.2990   22.8920 N.am      1 <0>         0.0000
     17 O1         10.3790    1.8520   24.5600 O.2       1 <0>         0.0000
     18 O2         15.3140    2.7430   23.0020 O.3       1 <0>         0.0000
     19 Cl1        15.1710   -2.0610   21.2170 Cl        1 <0>         0.0000
     20 H1          7.2610    0.3100   19.1400 H         1 <0>         0.0000
     21 H2         12.9250    2.0730   24.3960 H         1 <0>         0.0000
     22 H3         12.9390   -1.9790   22.9570 H         1 <0>         0.0000
     23 H4         16.0340    0.6190   21.7090 H         1 <0>         0.0000
     24 H5          6.4550    2.5390   19.7180 H         1 <0>         0.0000
     25 H6          8.5530    2.6710   23.1030 H         1 <0>         0.0000
     26 H7         10.2250   -1.1200   20.7120 H         1 <0>         0.0000
     27 H8          8.7050   -1.8840   21.2120 H         1 <0>         0.0000
     28 H9          8.8480   -1.4970   19.5230 H         1 <0>         0.0000
     29 H10        11.1670   -1.1450   24.7180 H         1 <0>         0.0000
     30 H11        11.7280    0.2800   25.7590 H         1 <0>         0.0000
     31 H12        10.2570   -0.6620   22.7040 H         1 <0>         0.0000
     32 C15        14.6600    3.8910   23.5910 C.3       1 <0>         0.0000
     33 C16        13.2500    4.2690   22.9480 C.3       1 <0>         0.0000
     34 C17        14.0450    5.5370   22.7260 C.2       1 <0>         0.0000
     35 H13        15.6330    5.9120   23.8250 H         1 <0>         0.0000
     36 H14        14.4770    3.7420   24.6670 H         1 <0>         0.0000
     37 H15        12.3570    4.3350   23.5710 H         1 <0>         0.0000
     38 H16        12.9960    3.7900   21.9890 H         1 <0>         0.0000
     39 N3         15.2090    5.1820   23.2410 N.am      1 <0>         0.0000
     40 O3         13.5690    6.6740   22.7390 O.2       1 <0>         0.0000
@<TRIPOS>BOND
     1    1   20 1
     2   13   28 1
     3    5   24 1
     4    1    5 ar
     5    1    7 ar
     6    5   15 ar
     7   13   26 1
     8    7   13 1
     9   13   27 1
    10    7    9 ar
    11   11   19 1
    12    6   15 ar
    13    4   23 1
    14   33   38 1
    15    6    9 ar
    16    9   16 1
    17    6   25 1
    18    4   11 ar
    19    4   10 ar
    20    3   11 ar
    21   16   31 1
    22   34   40 2
    23   33   34 1
    24   34   39 am
    25   12   16 am
    26   33   37 1
    27   32   33 1
    28    3   22 1
    29    3    8 ar
    30   10   18 1
    31   18   32 1
    32    2   10 ar
    33   32   39 1
    34   35   39 1
    35   32   36 1
    36    2    8 ar
    37    8   14 1
    38    2   21 1
    39   12   17 2
    40   12   14 1
    41   14   29 1
    42   14   30 1
@<TRIPOS>MOLECULE
*****
   40    42     0     0     0
SMALL
NO_CHARGES

@<TRIPOS>ATOM
      1 C1          5.0490    1.1510   19.7750 C.ar      1 <0>         0.0000
      2 C2         12.2880    1.4330   23.3460 C.ar      1 <0>         0.0000
      3 C3         12.3610   -0.6050   22.1060 C.ar      1 <0>         0.0000
      4 C4         14.3620    0.6170   22.5270 C.ar      1 <0>         0.0000
      5 C5          5.6130    0.9530   18.5320 C.ar      1 <0>         0.0000
      6 C6          7.5710    0.1420   19.4320 C.ar      1 <0>         0.0000
      7 C7          5.8410    0.9120   20.9630 C.ar      1 <0>         0.0000
      8 C8         11.6160    0.2730   22.8860 C.ar      1 <0>         0.0000
      9 C9          7.1260    0.4100   20.7880 C.ar      1 <0>         0.0000
     10 C10        13.6570    1.6270   23.1480 C.ar      1 <0>         0.0000
     11 C11        13.7190   -0.4710   21.9490 C.ar      1 <0>         0.0000
     12 C12         9.2340    0.6640   22.0270 C.2       1 <0>         0.0000
     13 C13         5.3250    1.2700   22.3770 C.3       1 <0>         0.0000
     14 C14        10.1290    0.0940   23.1610 C.3       1 <0>         0.0000
     15 N1          6.8640    0.5130   18.3780 N.ar      1 <0>         0.0000
     16 N2          7.9730    0.2140   21.8920 N.am      1 <0>         0.0000
     17 O1          9.7820    1.5300   21.3010 O.2       1 <0>         0.0000
     18 O2         14.4150    2.7450   23.4670 O.3       1 <0>         0.0000
     19 Cl1        14.6390   -1.6290   21.0150 Cl        1 <0>         0.0000
     20 H1          4.1310    1.7250   19.8530 H         1 <0>         0.0000
     21 H2         11.7230    2.1910   23.8910 H         1 <0>         0.0000
     22 H3         11.9270   -1.4560   21.5840 H         1 <0>         0.0000
     23 H4         15.4380    0.7390   22.4440 H         1 <0>         0.0000
     24 H5          5.1560    1.3290   17.6220 H         1 <0>         0.0000
     25 H6          8.6240   -0.1500   19.3770 H         1 <0>         0.0000
     26 H7          5.3980    0.3800   23.0120 H         1 <0>         0.0000
     27 H8          5.9180    2.1030   22.7690 H         1 <0>         0.0000
     28 H9          4.2680    1.5210   22.2380 H         1 <0>         0.0000
     29 H10         9.8300   -0.9420   23.3410 H         1 <0>         0.0000
     30 H11         9.7050    0.4890   24.0930 H         1 <0>         0.0000
     31 H12         7.6080   -0.3940   22.6280 H         1 <0>         0.0000
     32 C15        13.6490    3.9790   23.4300 C.3       1 <0>         0.0000
     33 C16        12.7930    4.2320   22.1450 C.3       1 <0>         0.0000
     34 C17        13.6360    5.4840   22.1820 C.2       1 <0>         0.0000
     35 H13        14.5800    5.8520   23.7990 H         1 <0>         0.0000
     36 H14        13.0360    4.0130   24.3360 H         1 <0>         0.0000
     37 H15        11.7480    4.4820   22.3630 H         1 <0>         0.0000
     38 H16        12.9090    3.4790   21.3650 H         1 <0>         0.0000
     39 N3         14.4800    5.0840   23.1410 N.am      1 <0>         0.0000
     40 O3         13.3260    6.5900   21.8330 O.2       1 <0>         0.0000
@<TRIPOS>BOND
     1    5   24 1
     2    5   15 ar
     3    6   15 ar
     4    1    5 ar
     5    6   25 1
     6    6    9 ar
     7    1   20 1
     8    1    7 ar
     9    7    9 ar
    10    9   16 1
    11    7   13 1
    12   11   19 1
    13   12   17 2
    14   33   38 1
    15    3   22 1
    16   34   40 2
    17   12   16 am
    18   16   31 1
    19    3   11 ar
    20    4   11 ar
    21   12   14 1
    22    3    8 ar
    23   33   34 1
    24   33   37 1
    25   32   33 1
    26   34   39 am
    27   13   28 1
    28   13   27 1
    29   13   26 1
    30    4   23 1
    31    4   10 ar
    32    8   14 1
    33    2    8 ar
    34   32   39 1
    35   35   39 1
    36    2   10 ar
    37   10   18 1
    38   14   29 1
    39   14   30 1
    40    2   21 1
    41   18   32 1
    42   32   36 1
@<TRIPOS>MOLECULE
*****
   40    42     0     0     0
SMALL
NO_CHARGES

@<TRIPOS>ATOM
      1 C1          6.2510    1.5210   21.3040 C.ar      1 <0>         0.0000
      2 C2         12.6010    1.1890   23.8790 C.ar      1 <0>         0.0000
      3 C3         12.7370   -0.8650   22.7850 C.ar      1 <0>         0.0000
      4 C4         13.9970    0.9700   21.9130 C.ar      1 <0>         0.0000
      5 C5          5.4930    0.3360   21.2880 C.ar      1 <0>         0.0000
      6 C6          6.8960   -0.7650   22.6340 C.ar      1 <0>         0.0000
      7 C7          7.4650    1.4520   21.9810 C.ar      1 <0>         0.0000
      8 C8         12.1360   -0.1090   23.7330 C.ar      1 <0>         0.0000
      9 C9          7.8890    0.3070   22.6200 C.ar      1 <0>         0.0000
     10 C10        13.5050    1.7560   22.9100 C.ar      1 <0>         0.0000
     11 C11        13.6800   -0.3890   21.8700 C.ar      1 <0>         0.0000
     12 C12         9.8420   -0.7390   23.6080 C.2       1 <0>         0.0000
     13 C13         8.3980    2.5820   21.8550 C.3       1 <0>         0.0000
     14 C14        11.0390   -0.6200   24.5440 C.3       1 <0>         0.0000
     15 N1          5.7240   -0.7050   21.9630 N.ar      1 <0>         0.0000
     16 N2          8.9930    0.3140   23.4210 N.am      1 <0>         0.0000
     17 O1          9.6160   -1.8150   23.0750 O.2       1 <0>         0.0000
     18 O2         14.0440    3.1080   22.9780 O.3       1 <0>         0.0000
     19 Cl1        14.2950   -1.4950   20.6910 Cl        1 <0>         0.0000
     20 H1          5.8760    2.3590   20.7270 H         1 <0>         0.0000
     21 H2         12.2000    1.8660   24.6270 H         1 <0>         0.0000
     22 H3         12.4820   -1.9150   22.7170 H         1 <0>         0.0000
     23 H4         14.7230    1.3960   21.2210 H         1 <0>         0.0000
     24 H5          4.5560    0.3530   20.7500 H         1 <0>         0.0000
     25 H6          7.0100   -1.7660   23.0510 H         1 <0>         0.0000
     26 H7          8.8280    2.4560   20.8550 H         1 <0>         0.0000
     27 H8          7.8760    3.5290   21.9910 H         1 <0>         0.0000
     28 H9          9.2720    2.6140   22.5070 H         1 <0>         0.0000
     29 H10        11.1720   -1.6010   25.0090 H         1 <0>         0.0000
     30 H11        10.7820    0.0370   25.3830 H         1 <0>         0.0000
     31 H12         9.2880    1.1470   23.9160 H         1 <0>         0.0000
     32 H13        13.9270    6.0360   24.1410 H         1 <0>         0.0000
     33 H14        13.0970    3.9350   24.7030 H         1 <0>         0.0000
     34 H15        11.1230    4.4410   23.8670 H         1 <0>         0.0000
     35 H16        11.4850    3.8850   22.1510 H         1 <0>         0.0000
     36 N3         13.6630    5.4590   23.3380 N.am      1 <0>         0.0000
     37 O3         11.9790    6.9810   22.7390 O.2       1 <0>         0.0000
     38 C15        13.2430    4.1420   23.6390 C.3       1 <0>         0.0000
     39 C16        11.8160    4.4740   23.0140 C.3       1 <0>         0.0000
     40 C17        12.5050    5.8300   22.7860 C.2       1 <0>         0.0000
@<TRIPOS>BOND
     1   11   19 1
     2    1   20 1
     3    5   24 1
     4   13   26 1
     5    4   23 1
     6    1    5 ar
     7    5   15 ar
     8    1    7 ar
     9    7   13 1
    10   13   27 1
    11   13   28 1
    12    4   11 ar
    13    3   11 ar
    14    4   10 ar
    15    6   15 ar
    16    7    9 ar
    17   35   39 1
    18    6    9 ar
    19    9   16 1
    20    6   25 1
    21    3   22 1
    22   37   40 2
    23    3    8 ar
    24   39   40 1
    25   36   40 am
    26   10   18 1
    27    2   10 ar
    28   18   38 1
    29   38   39 1
    30   34   39 1
    31   12   17 2
    32   36   38 1
    33   32   36 1
    34   12   16 am
    35   16   31 1
    36   12   14 1
    37   33   38 1
    38    2    8 ar
    39    8   14 1
    40    2   21 1
    41   14   29 1
    42   14   30 1
@<TRIPOS>MOLECULE
*****
   40    42     0     0     0
SMALL
NO_CHARGES

@<TRIPOS>ATOM
      1 C1          5.1370    1.4620   21.2150 C.ar      1 <0>         0.0000
      2 C2         12.0050    0.8940   23.2740 C.ar      1 <0>         0.0000
      3 C3         12.2170   -1.3260   22.2570 C.ar      1 <0>         0.0000
      4 C4         13.9640    0.2880   21.8800 C.ar      1 <0>         0.0000
      5 C5          5.1900    0.8040   19.9340 C.ar      1 <0>         0.0000
      6 C6          6.9600   -0.3890   20.5860 C.ar      1 <0>         0.0000
      7 C7          5.9330    1.0280   22.2240 C.ar      1 <0>         0.0000
      8 C8         11.4750   -0.4250   23.0880 C.ar      1 <0>         0.0000
      9 C9          6.9240    0.1360   21.9340 C.ar      1 <0>         0.0000
     10 C10        13.2160    1.2530   22.6130 C.ar      1 <0>         0.0000
     11 C11        13.4650   -0.9900   21.6870 C.ar      1 <0>         0.0000
     12 C12         8.9140   -1.0670   22.8340 C.2       1 <0>         0.0000
     13 C13         5.6510    1.4330   23.6580 C.3       1 <0>         0.0000
     14 C14        10.1620   -0.8620   23.7420 C.3       1 <0>         0.0000
     15 N1          6.1230   -0.0460   19.6020 N.ar      1 <0>         0.0000
     16 N2          7.7980   -0.2490   22.9770 N.am      1 <0>         0.0000
     17 O1          9.0160   -1.9710   22.0070 O.2       1 <0>         0.0000
     18 O2         13.6980    2.5430   22.7550 O.3       1 <0>         0.0000
     19 Cl1        14.3670   -2.1110   20.7950 Cl        1 <0>         0.0000
     20 H1          4.3170    2.1450   21.4160 H         1 <0>         0.0000
     21 H2         11.4850    1.5470   23.9660 H         1 <0>         0.0000
     22 H3         11.7120   -2.2640   22.0650 H         1 <0>         0.0000
     23 H4         14.9700    0.6170   21.6010 H         1 <0>         0.0000
     24 H5          4.3360    1.1240   19.3500 H         1 <0>         0.0000
     25 H6          7.6880   -1.1720   20.4190 H         1 <0>         0.0000
     26 H7          6.5520    1.6640   24.2330 H         1 <0>         0.0000
     27 H8          5.0420    2.3510   23.6450 H         1 <0>         0.0000
     28 H9          5.1020    0.6030   24.1190 H         1 <0>         0.0000
     29 H10        10.2920   -1.8500   24.1950 H         1 <0>         0.0000
     30 H11         9.9100   -0.1560   24.5370 H         1 <0>         0.0000
     31 H12         7.6690    0.2130   23.8690 H         1 <0>         0.0000
     32 H13        12.1760    3.3960   23.8050 H         1 <0>         0.0000
     33 H14        12.4810    3.9040   20.7900 H         1 <0>         0.0000
     34 H15        11.0410    4.2530   21.9050 H         1 <0>         0.0000
     35 N3         13.4880    4.9010   23.2460 N.am      1 <0>         0.0000
     36 O3         13.3580    6.1760   21.3810 O.2       1 <0>         0.0000
     37 C15        12.8420    3.6560   22.9790 C.3       1 <0>         0.0000
     38 C16        12.1260    4.2050   21.7770 C.3       1 <0>         0.0000
     39 C17        12.8860    5.4430   22.1890 C.2       1 <0>         0.0000
     40 H16        14.5040    4.9450   23.3690 H         1 <0>         0.0000
@<TRIPOS>BOND
     1    5   24 1
     2    5   15 ar
     3    6   15 ar
     4    1    5 ar
     5    6   25 1
     6    6    9 ar
     7   33   38 1
     8   11   19 1
     9    1   20 1
    10    1    7 ar
    11   36   39 2
    12    4   23 1
    13    4   11 ar
    14    3   11 ar
    15   34   38 1
    16   38   39 1
    17   37   38 1
    18    4   10 ar
    19    7    9 ar
    20    9   16 1
    21   12   17 2
    22    3   22 1
    23   35   39 am
    24    7   13 1
    25    3    8 ar
    26   10   18 1
    27    2   10 ar
    28   18   37 1
    29   12   16 am
    30   12   14 1
    31   16   31 1
    32   35   37 1
    33   32   37 1
    34    2    8 ar
    35    8   14 1
    36   35   40 1
    37    2   21 1
    38   13   27 1
    39   13   28 1
    40   13   26 1
    41   14   29 1
    42   14   30 1
@<TRIPOS>MOLECULE
*****
   40    42     0     0     0
SMALL
NO_CHARGES

@<TRIPOS>ATOM
      1 C1          5.5150    1.5360   18.6900 C.ar      1 <0>         0.0000
      2 C2         12.3750    2.5400   22.7640 C.ar      1 <0>         0.0000
      3 C3         12.2340    0.0910   22.6450 C.ar      1 <0>         0.0000
      4 C4         14.3970    1.2820   22.3250 C.ar      1 <0>         0.0000
      5 C5          6.2680    1.1830   17.5590 C.ar      1 <0>         0.0000
      6 C6          8.1000    0.8660   18.8600 C.ar      1 <0>         0.0000
      7 C7          6.0500    1.6110   19.9660 C.ar      1 <0>         0.0000
      8 C8         11.6170    1.3930   22.7200 C.ar      1 <0>         0.0000
      9 C9          7.4450    1.3500   20.0280 C.ar      1 <0>         0.0000
     10 C10        13.7790    2.5170   22.6120 C.ar      1 <0>         0.0000
     11 C11        13.6420    0.0780   22.3720 C.ar      1 <0>         0.0000
     12 C12         9.5080    1.6340   21.3580 C.2       1 <0>         0.0000
     13 C13         5.1890    2.0480   21.0540 C.3       1 <0>         0.0000
     14 C14        10.1110    1.4990   22.7690 C.3       1 <0>         0.0000
     15 N1          7.5400    0.8230   17.6510 N.ar      1 <0>         0.0000
     16 N2          8.1400    1.5120   21.2100 N.am      1 <0>         0.0000
     17 O1         10.1780    2.1000   20.3990 O.2       1 <0>         0.0000
     18 O2         14.6240    3.6000   22.4690 O.3       1 <0>         0.0000
     19 Cl1        14.4500   -1.4660   22.1660 Cl        1 <0>         0.0000
     20 H1          4.4590    1.7820   18.6080 H         1 <0>         0.0000
     21 H2         11.9310    3.5050   22.9780 H         1 <0>         0.0000
     22 H3         11.7250   -0.8540   22.7640 H         1 <0>         0.0000
     23 H4         15.4660    1.2380   22.1040 H         1 <0>         0.0000
     24 H5          5.8900    1.1700   16.5400 H         1 <0>         0.0000
     25 H6          9.0600    0.3740   18.8740 H         1 <0>         0.0000
     26 H7          4.4340    2.7820   20.7360 H         1 <0>         0.0000
     27 H8          4.6890    1.1660   21.4580 H         1 <0>         0.0000
     28 H9          5.6980    2.4530   21.9310 H         1 <0>         0.0000
     29 H10         9.6830    0.5950   23.2260 H         1 <0>         0.0000
     30 H11         9.7930    2.3640   23.3550 H         1 <0>         0.0000
     31 H12         7.6670    1.2930   22.0790 H         1 <0>         0.0000
     32 H13        13.8020    5.0440   23.7760 H         1 <0>         0.0000
     33 H14        13.0380    4.7230   20.7540 H         1 <0>         0.0000
     34 H15        12.1440    5.7870   21.9900 H         1 <0>         0.0000
     35 N3         14.9720    5.9340   22.4180 N.am      1 <0>         0.0000
     36 O3         13.9580    7.7030   21.4530 O.2       1 <0>         0.0000
     37 C15        14.0870    4.8650   22.7380 C.3       1 <0>         0.0000
     38 C16        13.0870    5.4020   21.6060 C.3       1 <0>         0.0000
     39 C17        14.1000    6.4820   21.6070 C.2       1 <0>         0.0000
     40 H16        15.4380    6.5250   23.1040 H         1 <0>         0.0000
@<TRIPOS>BOND
     1    5   24 1
     2    5   15 ar
     3    1    5 ar
     4    6   15 ar
     5    1   20 1
     6    1    7 ar
     7    6   25 1
     8    6    9 ar
     9    7    9 ar
    10    7   13 1
    11    9   16 1
    12   12   17 2
    13   13   26 1
    14   33   38 1
    15   13   27 1
    16   13   28 1
    17   12   16 am
    18   16   31 1
    19   12   14 1
    20   36   39 2
    21   38   39 1
    22   34   38 1
    23   37   38 1
    24   35   39 am
    25    4   23 1
    26   11   19 1
    27    4   11 ar
    28    4   10 ar
    29    3   11 ar
    30   35   37 1
    31   35   40 1
    32   10   18 1
    33   18   37 1
    34    2   10 ar
    35    3    8 ar
    36    3   22 1
    37    2    8 ar
    38    8   14 1
    39   32   37 1
    40    2   21 1
    41   14   29 1
    42   14   30 1
@<TRIPOS>MOLECULE
*****
   40    42     0     0     0
SMALL
NO_CHARGES

@<TRIPOS>ATOM
      1 C1          6.5210    1.7600   20.0270 C.ar      1 <0>         0.0000
      2 C2          9.1840   -1.6520   23.9910 C.ar      1 <0>         0.0000
      3 C3         10.8620   -2.6260   22.5670 C.ar      1 <0>         0.0000
      4 C4         11.4610   -1.0000   24.2280 C.ar      1 <0>         0.0000
      5 C5          6.2480    1.6270   18.6270 C.ar      1 <0>         0.0000
      6 C6          7.4660   -0.3310   18.6630 C.ar      1 <0>         0.0000
      7 C7          7.1460    0.7770   20.7380 C.ar      1 <0>         0.0000
      8 C8          9.5240   -2.5230   22.9700 C.ar      1 <0>         0.0000
      9 C9          7.5940   -0.3460   20.0730 C.ar      1 <0>         0.0000
     10 C10        10.2130   -0.9420   24.7080 C.ar      1 <0>         0.0000
     11 C11        11.9020   -1.8220   23.1760 C.ar      1 <0>         0.0000
     12 C12         7.9080   -2.6180   20.9700 C.2       1 <0>         0.0000
     13 C13         7.2210    0.9540   22.2620 C.3       1 <0>         0.0000
     14 C14         8.3920   -3.3480   22.1940 C.3       1 <0>         0.0000
     15 N1          6.8790    0.6380   17.9450 N.ar      1 <0>         0.0000
     16 N2          8.2870   -1.3130   20.8130 N.am      1 <0>         0.0000
     17 O1          7.0740   -3.1050   20.2510 O.2       1 <0>         0.0000
     18 O2         10.0030   -0.1970   25.8430 O.3       1 <0>         0.0000
     19 Cl1        13.5540   -1.8680   22.6660 Cl        1 <0>         0.0000
     20 H1          6.0550    2.5860   20.5740 H         1 <0>         0.0000
     21 H2          8.1630   -1.5900   24.3600 H         1 <0>         0.0000
     22 H3         11.0940   -3.3140   21.7610 H         1 <0>         0.0000
     23 H4         12.1670   -0.2960   24.6660 H         1 <0>         0.0000
     24 H5          5.7760    2.4340   18.0790 H         1 <0>         0.0000
     25 H6          7.8920   -1.2280   18.2170 H         1 <0>         0.0000
     26 H7          7.0530    0.0570   22.8750 H         1 <0>         0.0000
     27 H8          8.1210    1.4930   22.5610 H         1 <0>         0.0000
     28 H9          6.3380    1.5410   22.5360 H         1 <0>         0.0000
     29 H10         8.8510   -4.3000   21.9170 H         1 <0>         0.0000
     30 H11         7.5670   -3.5890   22.8760 H         1 <0>         0.0000
     31 H12         8.7970   -0.9430   21.6130 H         1 <0>         0.0000
     32 H13         6.8240    0.3510   25.4740 H         1 <0>         0.0000
     33 H14         8.3570    1.3070   24.8840 H         1 <0>         0.0000
     34 N3          8.6980    0.7290   27.5700 N.am      1 <0>         0.0000
     35 O3          7.6460    2.7810   27.1350 O.2       1 <0>         0.0000
     36 C15         8.7730   -0.1710   26.5040 C.3       1 <0>         0.0000
     37 C16         7.7930    0.8180   25.6820 C.3       1 <0>         0.0000
     38 C17         7.7870    1.5810   26.9340 C.2       1 <0>         0.0000
     39 H15         9.5460    1.2030   27.9010 H         1 <0>         0.0000
     40 H16         8.4360   -1.1840   26.7350 H         1 <0>         0.0000
@<TRIPOS>BOND
     1    5   15 ar
     2    6   15 ar
     3    5   24 1
     4    6   25 1
     5    1    5 ar
     6    6    9 ar
     7    1   20 1
     8    1    7 ar
     9    7    9 ar
    10    9   16 1
    11   12   17 2
    12    7   13 1
    13   12   16 am
    14   16   31 1
    15   12   14 1
    16    3   22 1
    17   14   29 1
    18   14   30 1
    19    8   14 1
    20   13   28 1
    21   13   27 1
    22   13   26 1
    23    3    8 ar
    24    3   11 ar
    25   11   19 1
    26    2    8 ar
    27    4   11 ar
    28    2   21 1
    29    2   10 ar
    30    4   23 1
    31    4   10 ar
    32   10   18 1
    33   33   37 1
    34   32   37 1
    35   36   37 1
    36   37   38 1
    37   18   36 1
    38   36   40 1
    39   34   36 1
    40   35   38 2
    41   34   38 am
    42   34   39 1
@<TRIPOS>MOLECULE
*****
   40    42     0     0     0
SMALL
NO_CHARGES

@<TRIPOS>ATOM
      1 C1          5.1070    1.8000   20.5460 C.ar      1 <0>         0.0000
      2 C2         12.4210    1.9850   23.2890 C.ar      1 <0>         0.0000
      3 C3         12.3670   -0.3490   22.5630 C.ar      1 <0>         0.0000
      4 C4         14.2820    1.1040   22.1710 C.ar      1 <0>         0.0000
      5 C5          5.3030    1.3760   19.2250 C.ar      1 <0>         0.0000
      6 C6          7.2320    0.1720   19.7550 C.ar      1 <0>         0.0000
      7 C7          6.1280    1.4550   21.4820 C.ar      1 <0>         0.0000
      8 C8         11.7030    0.7500   23.1600 C.ar      1 <0>         0.0000
      9 C9          7.1890    0.6910   21.0510 C.ar      1 <0>         0.0000
     10 C10        13.6870    2.1860   22.7800 C.ar      1 <0>         0.0000
     11 C11        13.7110   -0.2250   22.1490 C.ar      1 <0>         0.0000
     12 C12         9.2800    1.0940   22.3520 C.2       1 <0>         0.0000
     13 C13         5.8280    1.9380   22.8670 C.3       1 <0>         0.0000
     14 C14        10.2380    0.6410   23.5020 C.3       1 <0>         0.0000
     15 N1          6.3550    0.6020   18.8520 N.ar      1 <0>         0.0000
     16 N2          8.1820    0.2850   21.9830 N.am      1 <0>         0.0000
     17 O1          9.4280    2.2120   21.8590 O.2       1 <0>         0.0000
     18 O2         14.5320    3.3350   22.9620 O.3       1 <0>         0.0000
     19 Cl1        14.3320   -1.6770   21.4570 Cl        1 <0>         0.0000
     20 H1          4.1950    2.2880   20.8640 H         1 <0>         0.0000
     21 H2         12.0060    2.8600   23.7780 H         1 <0>         0.0000
     22 H3         11.7220   -1.2020   22.4020 H         1 <0>         0.0000
     23 H4         15.2960    1.1590   21.8040 H         1 <0>         0.0000
     24 H5          4.6300    1.6330   18.4090 H         1 <0>         0.0000
     25 H6          8.0760   -0.4280   19.4370 H         1 <0>         0.0000
     26 H7          5.1260    2.7860   22.8320 H         1 <0>         0.0000
     27 H8          5.3060    1.2820   23.5670 H         1 <0>         0.0000
     28 H9          6.7590    2.1840   23.3770 H         1 <0>         0.0000
     29 H10         9.8680   -0.2840   23.9560 H         1 <0>         0.0000
     30 H11        10.0460    1.3380   24.3250 H         1 <0>         0.0000
     31 H12         8.2120   -0.7010   22.2410 H         1 <0>         0.0000
     32 H13        13.5320    4.0710   24.6620 H         1 <0>         0.0000
     33 H14        11.9480    5.3810   23.2050 H         1 <0>         0.0000
     34 H15        13.0650    5.2130   21.7820 H         1 <0>         0.0000
     35 N3         14.8040    5.5800   23.9790 N.am      1 <0>         0.0000
     36 O3         13.7420    7.5270   23.8810 O.2       1 <0>         0.0000
     37 C15        13.9450    4.4190   23.7040 C.3       1 <0>         0.0000
     38 C16        12.9790    5.3570   22.8720 C.3       1 <0>         0.0000
     39 C17        13.9790    6.4070   23.4150 C.2       1 <0>         0.0000
     40 H16        15.2570    5.7770   24.8640 H         1 <0>         0.0000
@<TRIPOS>BOND
     1    5   24 1
     2    5   15 ar
     3    6   15 ar
     4    1    5 ar
     5    6   25 1
     6    6    9 ar
     7    1   20 1
     8    1    7 ar
     9    7    9 ar
    10    9   16 1
    11   11   19 1
    12    7   13 1
    13   34   38 1
    14    4   23 1
    15   12   17 2
    16   16   31 1
    17   12   16 am
    18    4   11 ar
    19    3   11 ar
    20    4   10 ar
    21   12   14 1
    22    3   22 1
    23    3    8 ar
    24   10   18 1
    25    2   10 ar
    26   13   26 1
    27   13   28 1
    28   13   27 1
    29   33   38 1
    30   38   39 1
    31   37   38 1
    32   18   37 1
    33    2    8 ar
    34    8   14 1
    35    2   21 1
    36   36   39 2
    37   35   39 am
    38   14   29 1
    39   14   30 1
    40   35   37 1
    41   32   37 1
    42   35   40 1
@<TRIPOS>MOLECULE
*****
   40    42     0     0     0
SMALL
NO_CHARGES

@<TRIPOS>ATOM
      1 C1          5.3070    1.5790   20.3760 C.ar      1 <0>         0.0000
      2 C2         11.8680    0.3010   23.5890 C.ar      1 <0>         0.0000
      3 C3         12.0030   -1.6010   22.0810 C.ar      1 <0>         0.0000
      4 C4         14.0360   -0.5260   22.8290 C.ar      1 <0>         0.0000
      5 C5          5.5060    1.5490   18.9730 C.ar      1 <0>         0.0000
      6 C6          7.0840   -0.0310   19.1570 C.ar      1 <0>         0.0000
      7 C7          6.0290    0.7480   21.1970 C.ar      1 <0>         0.0000
      8 C8         11.2100   -0.7310   22.8650 C.ar      1 <0>         0.0000
      9 C9          7.0030   -0.0470   20.5700 C.ar      1 <0>         0.0000
     10 C10        13.2570    0.4240   23.5680 C.ar      1 <0>         0.0000
     11 C11        13.3690   -1.4670   22.0170 C.ar      1 <0>         0.0000
     12 C12         8.9580   -0.1390   21.9570 C.2       1 <0>         0.0000
     13 C13         5.9070    1.0120   22.6720 C.3       1 <0>         0.0000
     14 C14         9.7550   -0.8460   23.0480 C.3       1 <0>         0.0000
     15 N1          6.3870    0.7050   18.3700 N.ar      1 <0>         0.0000
     16 N2          7.8880   -0.7860   21.3160 N.am      1 <0>         0.0000
     17 O1          9.2450    1.0160   21.7580 O.2       1 <0>         0.0000
     18 O2         13.9060    1.4740   24.1730 O.3       1 <0>         0.0000
     19 Cl1        14.2360   -2.4300   20.7810 Cl        1 <0>         0.0000
     20 H1          4.5770    2.2820   20.7710 H         1 <0>         0.0000
     21 H2         11.3290    0.9810   24.2420 H         1 <0>         0.0000
     22 H3         11.5120   -2.3870   21.5200 H         1 <0>         0.0000
     23 H4         15.1010   -0.4180   22.6800 H         1 <0>         0.0000
     24 H5          4.9830    2.2710   18.3580 H         1 <0>         0.0000
     25 H6          7.8920   -0.6050   18.7170 H         1 <0>         0.0000
     26 H7          6.4660    1.9010   22.9870 H         1 <0>         0.0000
     27 H8          4.8540    1.1960   22.8940 H         1 <0>         0.0000
     28 H9          6.0140    0.1240   23.3060 H         1 <0>         0.0000
     29 H10         9.4230   -1.8900   23.0750 H         1 <0>         0.0000
     30 H11         9.4280   -0.4710   24.0240 H         1 <0>         0.0000
     31 H12         7.5580   -1.6380   21.7590 H         1 <0>         0.0000
     32 H13        12.5400    2.9920   24.6510 H         1 <0>         0.0000
     33 H14        11.6420    3.3910   22.4660 H         1 <0>         0.0000
     34 H15        12.8640    2.3430   21.7050 H         1 <0>         0.0000
     35 N3         14.3130    3.7290   23.7670 N.am      1 <0>         0.0000
     36 O3         14.3670    4.6080   21.6140 O.2       1 <0>         0.0000
     37 C15        13.2970    2.7080   23.9050 C.3       1 <0>         0.0000
     38 C16        12.6950    3.0800   22.4890 C.3       1 <0>         0.0000
     39 C17        13.8050    4.1260   22.6050 C.2       1 <0>         0.0000
     40 H16        15.3060    3.5220   23.8100 H         1 <0>         0.0000
@<TRIPOS>BOND
     1    5   24 1
     2    5   15 ar
     3    6   15 ar
     4    6   25 1
     5    1    5 ar
     6    6    9 ar
     7    1   20 1
     8    1    7 ar
     9    7    9 ar
    10    9   16 1
    11   11   19 1
    12    7   13 1
    13   16   31 1
    14   12   16 am
    15    3   22 1
    16   36   39 2
    17   34   38 1
    18   12   17 2
    19   12   14 1
    20    3   11 ar
    21    4   11 ar
    22    3    8 ar
    23   33   38 1
    24   38   39 1
    25   37   38 1
    26   35   39 am
    27   13   27 1
    28   13   26 1
    29   13   28 1
    30    4   23 1
    31    4   10 ar
    32    8   14 1
    33    2    8 ar
    34   14   29 1
    35   14   30 1
    36    2   10 ar
    37   10   18 1
    38    2   21 1
    39   35   40 1
    40   35   37 1
    41   18   37 1
    42   32   37 1
@<TRIPOS>MOLECULE
*****
   40    42     0     0     0
SMALL
NO_CHARGES

@<TRIPOS>ATOM
      1 C1          5.8870    0.8550   19.7630 C.ar      1 <0>         0.0000
      2 C2         12.4680    1.0970   23.3800 C.ar      1 <0>         0.0000
      3 C3         13.0720   -1.2440   23.4900 C.ar      1 <0>         0.0000
      4 C4         14.7780    0.4060   23.3440 C.ar      1 <0>         0.0000
      5 C5          6.4070    0.3340   18.6030 C.ar      1 <0>         0.0000
      6 C6          8.1920   -0.4570   19.6530 C.ar      1 <0>         0.0000
      7 C7          6.6630    0.8170   20.9790 C.ar      1 <0>         0.0000
      8 C8         12.1080   -0.2380   23.4970 C.ar      1 <0>         0.0000
      9 C9          7.8410    0.1180   20.8870 C.ar      1 <0>         0.0000
     10 C10        13.8120    1.4540   23.3710 C.ar      1 <0>         0.0000
     11 C11        14.4040   -0.9460   23.3530 C.ar      1 <0>         0.0000
     12 C12         9.9970   -0.3000   22.0490 C.2       1 <0>         0.0000
     13 C13         6.2870    1.5290   22.2700 C.3       1 <0>         0.0000
     14 C14        10.6410   -0.6130   23.3650 C.3       1 <0>         0.0000
     15 N1          7.5000   -0.4210   18.5240 N.ar      1 <0>         0.0000
     16 N2          8.6550   -0.0330   21.9960 N.am      1 <0>         0.0000
     17 O1         10.7170   -0.0670   21.0350 O.2       1 <0>         0.0000
     18 O2         14.2810    2.8000   23.3870 O.3       1 <0>         0.0000
     19 Cl1        15.5250   -2.2900   23.3130 Cl        1 <0>         0.0000
     20 H1          4.9530    1.4050   19.7500 H         1 <0>         0.0000
     21 H2         11.7050    1.8760   23.3710 H         1 <0>         0.0000
     22 H3         12.7470   -2.2790   23.4670 H         1 <0>         0.0000
     23 H4         15.8200    0.7220   23.3420 H         1 <0>         0.0000
     24 H5          5.9340    0.4240   17.6280 H         1 <0>         0.0000
     25 H6          9.0850   -1.0860   19.6810 H         1 <0>         0.0000
     26 H7          6.9490    2.4050   22.2670 H         1 <0>         0.0000
     27 H8          5.2320    1.7840   22.2050 H         1 <0>         0.0000
     28 H9          6.4960    0.8040   23.0720 H         1 <0>         0.0000
     29 H10        10.4180   -1.6600   23.6080 H         1 <0>         0.0000
     30 H11        10.1100   -0.0670   24.1530 H         1 <0>         0.0000
     31 H12         8.1210   -0.2940   22.8250 H         1 <0>         0.0000
     32 H13        13.9120    3.2730   21.3870 H         1 <0>         0.0000
     33 H14        16.2120    3.2580   20.5350 H         1 <0>         0.0000
     34 H15        16.8460    2.6470   22.1760 H         1 <0>         0.0000
     35 N3         14.8740    4.7620   22.5090 N.am      1 <0>         0.0000
     36 O3         17.1260    5.2190   22.7370 O.2       1 <0>         0.0000
     37 C15        14.6690    3.3760   22.1790 C.3       1 <0>         0.0000
     38 C16        16.1400    3.2790   21.6300 C.3       1 <0>         0.0000
     39 C17        16.1570    4.6530   22.1990 C.2       1 <0>         0.0000
     40 H16        14.5720    5.1530   23.4050 H         1 <0>         0.0000
@<TRIPOS>BOND
     1    5   24 1
     2    5   15 ar
     3    6   15 ar
     4    1    5 ar
     5    6   25 1
     6    6    9 ar
     7    1   20 1
     8    1    7 ar
     9   33   38 1
    10    7    9 ar
    11    9   16 1
    12    7   13 1
    13   12   17 2
    14   32   37 1
    15   34   38 1
    16   37   38 1
    17   38   39 1
    18   12   16 am
    19   16   31 1
    20   12   14 1
    21   35   37 1
    22   18   37 1
    23   35   39 am
    24   36   39 2
    25   13   27 1
    26   13   26 1
    27   13   28 1
    28   35   40 1
    29   11   19 1
    30    4   23 1
    31    4   11 ar
    32    4   10 ar
    33    3   11 ar
    34    8   14 1
    35   14   29 1
    36   14   30 1
    37    2   10 ar
    38   10   18 1
    39    2   21 1
    40    2    8 ar
    41    3   22 1
    42    3    8 ar
@<TRIPOS>MOLECULE
*****
   40    42     0     0     0
SMALL
NO_CHARGES

@<TRIPOS>ATOM
      1 C1          4.5710    1.4130   19.4620 C.ar      1 <0>         0.0000
      2 C2         11.6550    1.6400   23.2790 C.ar      1 <0>         0.0000
      3 C3         11.6720   -0.6690   22.6830 C.ar      1 <0>         0.0000
      4 C4         13.7500    0.6220   22.8290 C.ar      1 <0>         0.0000
      5 C5          5.1700    0.9930   18.2560 C.ar      1 <0>         0.0000
      6 C6          7.0600    0.3000   19.3120 C.ar      1 <0>         0.0000
      7 C7          5.3100    1.2140   20.6450 C.ar      1 <0>         0.0000
      8 C8         10.9430    0.4440   23.0420 C.ar      1 <0>         0.0000
      9 C9          6.6050    0.6330   20.6210 C.ar      1 <0>         0.0000
     10 C10        13.0480    1.8100   23.1020 C.ar      1 <0>         0.0000
     11 C11        13.0940   -0.5920   22.5420 C.ar      1 <0>         0.0000
     12 C12         8.6360    0.7390   21.9300 C.2       1 <0>         0.0000
     13 C13         4.8070    1.7830   21.9390 C.3       1 <0>         0.0000
     14 C14         9.3750    0.3660   23.1650 C.3       1 <0>         0.0000
     15 N1          6.3930    0.4690   18.1400 N.ar      1 <0>         0.0000
     16 N2          7.3530    0.3600   21.7480 N.am      1 <0>         0.0000
     17 O1          9.1400    1.4740   21.1100 O.2       1 <0>         0.0000
     18 O2         13.7680    2.9780   23.3410 O.3       1 <0>         0.0000
     19 Cl1        14.0230   -2.0050   22.1190 Cl        1 <0>         0.0000
     20 H1          3.5860    1.8410   19.6010 H         1 <0>         0.0000
     21 H2         11.0190    2.4900   23.5040 H         1 <0>         0.0000
     22 H3         11.1060   -1.5910   22.6250 H         1 <0>         0.0000
     23 H4         14.8400    0.6420   22.8580 H         1 <0>         0.0000
     24 H5          4.6090    1.2630   17.3660 H         1 <0>         0.0000
     25 H6          8.0840   -0.0430   19.1860 H         1 <0>         0.0000
     26 H7          3.7420    2.0280   21.8710 H         1 <0>         0.0000
     27 H8          4.7940    1.0790   22.7780 H         1 <0>         0.0000
     28 H9          5.3940    2.6630   22.2200 H         1 <0>         0.0000
     29 H10         9.0600   -0.6640   23.3910 H         1 <0>         0.0000
     30 H11         8.9970    1.0140   23.9700 H         1 <0>         0.0000
     31 H12         6.8400   -0.2650   22.3710 H         1 <0>         0.0000
     32 H13        12.5410    4.1230   24.5690 H         1 <0>         0.0000
     33 H14        11.2430    5.0820   22.4630 H         1 <0>         0.0000
     34 H15        12.3870    4.1770   21.4610 H         1 <0>         0.0000
     35 N3         13.9770    5.2890   23.5730 N.am      1 <0>         0.0000
     36 O3         13.0500    7.0470   22.3180 O.2       1 <0>         0.0000
     37 C15        13.0750    4.1690   23.6140 C.3       1 <0>         0.0000
     38 C16        12.2970    4.7810   22.3640 C.3       1 <0>         0.0000
     39 C17        13.2610    5.8180   22.5370 C.2       1 <0>         0.0000
     40 H16        14.2400    5.8450   24.3830 H         1 <0>         0.0000
@<TRIPOS>BOND
     1    5   24 1
     2    5   15 ar
     3    6   15 ar
     4    1    5 ar
     5    6   25 1
     6    6    9 ar
     7    1   20 1
     8    1    7 ar
     9    7    9 ar
    10    9   16 1
    11    7   13 1
    12   12   17 2
    13   34   38 1
    14   12   16 am
    15   16   31 1
    16   13   26 1
    17   12   14 1
    18   13   28 1
    19   13   27 1
    20   11   19 1
    21   36   39 2
    22   33   38 1
    23   38   39 1
    24   37   38 1
    25   35   39 am
    26    3   11 ar
    27    4   11 ar
    28    3   22 1
    29    3    8 ar
    30    4   23 1
    31    4   10 ar
    32    8   14 1
    33    2    8 ar
    34    2   10 ar
    35   10   18 1
    36   14   29 1
    37   14   30 1
    38    2   21 1
    39   18   37 1
    40   35   37 1
    41   35   40 1
    42   32   37 1
@<TRIPOS>MOLECULE
*****
   40    42     0     0     0
SMALL
NO_CHARGES

@<TRIPOS>ATOM
      1 C1          5.8150    0.5520   20.4910 C.ar      1 <0>         0.0000
      2 C2         13.3330    0.8880   23.3940 C.ar      1 <0>         0.0000
      3 C3         13.4080   -1.0790   22.0580 C.ar      1 <0>         0.0000
      4 C4         15.3140    0.4140   22.2770 C.ar      1 <0>         0.0000
      5 C5          6.2420    0.7150   19.1660 C.ar      1 <0>         0.0000
      6 C6          8.3830    0.2310   19.9130 C.ar      1 <0>         0.0000
      7 C7          6.6430    0.0900   21.5410 C.ar      1 <0>         0.0000
      8 C8         12.6810   -0.2210   22.9040 C.ar      1 <0>         0.0000
      9 C9          7.9370    0.0360   21.2700 C.ar      1 <0>         0.0000
     10 C10        14.6000    1.3110   23.0250 C.ar      1 <0>         0.0000
     11 C11        14.7300   -0.7450   21.7170 C.ar      1 <0>         0.0000
     12 C12        10.1920    0.1910   22.3610 C.2       1 <0>         0.0000
     13 C13         6.0580   -0.3360   22.8030 C.3       1 <0>         0.0000
     14 C14        11.1950   -0.4670   23.2180 C.3       1 <0>         0.0000
     15 N1          7.5580    0.5510   18.9120 N.ar      1 <0>         0.0000
     16 N2          8.8520   -0.1580   22.3500 N.am      1 <0>         0.0000
     17 O1         10.5790    1.0390   21.5510 O.2       1 <0>         0.0000
     18 O2         15.1880    2.4590   23.5580 O.3       1 <0>         0.0000
     19 Cl1        15.5380   -1.7510   20.5550 Cl        1 <0>         0.0000
     20 H1          4.7560    0.6290   20.7540 H         1 <0>         0.0000
     21 H2         12.7550    1.4800   24.0940 H         1 <0>         0.0000
     22 H3         12.9610   -1.9440   21.5720 H         1 <0>         0.0000
     23 H4         16.3560    0.6220   22.0530 H         1 <0>         0.0000
     24 H5          5.5350    0.9530   18.3830 H         1 <0>         0.0000
     25 H6          9.4130    0.1180   19.5950 H         1 <0>         0.0000
     26 H7          6.1250   -1.4120   22.9710 H         1 <0>         0.0000
     27 H8          6.3450    0.2890   23.6490 H         1 <0>         0.0000
     28 H9          4.9880   -0.0900   22.7760 H         1 <0>         0.0000
     29 H10        10.9560   -1.5370   23.1730 H         1 <0>         0.0000
     30 H11        11.0410   -0.1440   24.2520 H         1 <0>         0.0000
     31 H12         8.5540   -0.8640   23.0170 H         1 <0>         0.0000
     32 H13        13.4220    4.8800   21.9880 H         1 <0>         0.0000
     33 H14        15.1070    4.3570   21.5990 H         1 <0>         0.0000
     34 N3         14.9100    4.7420   24.4230 N.am      1 <0>         0.0000
     35 O3         14.7430    6.7610   23.3970 O.2       1 <0>         0.0000
     36 C15        14.3430    3.6560   23.6260 C.3       1 <0>         0.0000
     37 C16        14.4050    4.6240   22.3960 C.3       1 <0>         0.0000
     38 C17        14.9030    5.5850   23.3910 C.2       1 <0>         0.0000
     39 H15        14.4580    4.9930   25.2970 H         1 <0>         0.0000
     40 H16        13.3130    3.4280   23.9200 H         1 <0>         0.0000
@<TRIPOS>BOND
     1    5   24 1
     2    5   15 ar
     3    6   15 ar
     4    1    5 ar
     5    6   25 1
     6    6    9 ar
     7    1   20 1
     8    1    7 ar
     9   11   19 1
    10    7    9 ar
    11    9   16 1
    12    7   13 1
    13   12   17 2
    14    3   22 1
    15   33   37 1
    16    3   11 ar
    17    4   11 ar
    18   32   37 1
    19    4   23 1
    20    3    8 ar
    21    4   10 ar
    22   12   16 am
    23   16   31 1
    24   12   14 1
    25   37   38 1
    26   36   37 1
    27   13   28 1
    28   13   26 1
    29   13   27 1
    30    8   14 1
    31    2    8 ar
    32    2   10 ar
    33   10   18 1
    34   14   29 1
    35   14   30 1
    36   35   38 2
    37   34   38 am
    38    2   21 1
    39   18   36 1
    40   36   40 1
    41   34   36 1
    42   34   39 1
@<TRIPOS>MOLECULE
*****
   40    42     0     0     0
SMALL
NO_CHARGES

@<TRIPOS>ATOM
      1 C1          5.5080    1.5340   19.3100 C.ar      1 <0>         0.0000
      2 C2         12.4790    1.5040   23.9990 C.ar      1 <0>         0.0000
      3 C3         12.2730   -0.5780   22.7130 C.ar      1 <0>         0.0000
      4 C4         14.5130    0.2330   23.3290 C.ar      1 <0>         0.0000
      5 C5          6.2110    1.1760   18.1490 C.ar      1 <0>         0.0000
      6 C6          8.0100    0.4940   19.3270 C.ar      1 <0>         0.0000
      7 C7          6.1920    1.5650   20.5000 C.ar      1 <0>         0.0000
      8 C8         11.6900    0.6190   23.3550 C.ar      1 <0>         0.0000
      9 C9          7.4930    0.9840   20.5790 C.ar      1 <0>         0.0000
     10 C10        13.8700    1.3330   23.9410 C.ar      1 <0>         0.0000
     11 C11        13.6490   -0.7390   22.7100 C.ar      1 <0>         0.0000
     12 C12         9.5460    1.0350   21.9600 C.2       1 <0>         0.0000
     13 C13         5.5170    2.0990   21.7070 C.3       1 <0>         0.0000
     14 C14        10.1800    0.8200   23.3400 C.3       1 <0>         0.0000
     15 N1          7.4600    0.6150   18.2180 N.ar      1 <0>         0.0000
     16 N2          8.1770    0.9570   21.7500 N.am      1 <0>         0.0000
     17 O1         10.2370    1.3000   21.0150 O.2       1 <0>         0.0000
     18 O2         14.8300    2.2070   24.4930 O.3       1 <0>         0.0000
     19 Cl1        14.3370   -2.1070   21.9470 Cl        1 <0>         0.0000
     20 H1          4.5320    1.9610   19.1060 H         1 <0>         0.0000
     21 H2         11.9670    2.3220   24.4990 H         1 <0>         0.0000
     22 H3         11.6090   -1.3080   22.2530 H         1 <0>         0.0000
     23 H4         15.6000    0.2290   23.3240 H         1 <0>         0.0000
     24 H5          5.8600    1.4050   17.1470 H         1 <0>         0.0000
     25 H6          8.9800   -0.0040   19.3470 H         1 <0>         0.0000
     26 H7          5.4020    1.3380   22.4830 H         1 <0>         0.0000
     27 H8          6.2520    2.7820   22.1510 H         1 <0>         0.0000
     28 H9          4.5930    2.5630   21.3500 H         1 <0>         0.0000
     29 H10         9.7160   -0.0860   23.7250 H         1 <0>         0.0000
     30 H11         9.8590    1.6130   24.0170 H         1 <0>         0.0000
     31 H12         7.7200    0.5850   22.5790 H         1 <0>         0.0000
     32 C15        14.4730    3.5280   24.6690 C.3       1 <0>         0.0000
     33 C16        13.8600    4.2620   23.4020 C.3       1 <0>         0.0000
     34 C17        15.2530    4.8160   23.3710 C.2       1 <0>         0.0000
     35 H13        16.6340    3.9660   24.7130 H         1 <0>         0.0000
     36 H14        13.7710    3.6790   25.4900 H         1 <0>         0.0000
     37 H15        13.6560    3.6550   22.5100 H         1 <0>         0.0000
     38 H16        13.0980    5.0460   23.4560 H         1 <0>         0.0000
     39 N3         15.6950    4.3350   24.5560 N.am      1 <0>         0.0000
     40 O3         15.8070    5.1480   22.3100 O.2       1 <0>         0.0000
@<TRIPOS>BOND
     1    5   24 1
     2    5   15 ar
     3    1    5 ar
     4    6   15 ar
     5    1   20 1
     6    1    7 ar
     7    6   25 1
     8    6    9 ar
     9    7    9 ar
    10    7   13 1
    11    9   16 1
    12   12   17 2
    13   13   28 1
    14   13   27 1
    15   13   26 1
    16   12   16 am
    17   16   31 1
    18   11   19 1
    19   12   14 1
    20    3   22 1
    21   34   40 2
    22   33   37 1
    23    3   11 ar
    24    4   11 ar
    25    3    8 ar
    26    4   23 1
    27    4   10 ar
    28    8   14 1
    29   14   29 1
    30   14   30 1
    31    2    8 ar
    32   33   34 1
    33   34   39 am
    34   33   38 1
    35   32   33 1
    36    2   10 ar
    37   10   18 1
    38    2   21 1
    39   18   32 1
    40   32   39 1
    41   35   39 1
    42   32   36 1
@<TRIPOS>MOLECULE
*****
   40    42     0     0     0
SMALL
NO_CHARGES

@<TRIPOS>ATOM
      1 C1          5.9590    2.0250   19.9480 C.ar      1 <0>         0.0000
      2 C2         10.0550   -1.3150   23.7340 C.ar      1 <0>         0.0000
      3 C3         11.6240   -1.3410   21.9320 C.ar      1 <0>         0.0000
      4 C4         12.1830   -0.2590   23.8970 C.ar      1 <0>         0.0000
      5 C5          6.0060    1.7600   18.5560 C.ar      1 <0>         0.0000
      6 C6          7.4030   -0.0160   18.9380 C.ar      1 <0>         0.0000
      7 C7          6.6990    1.2840   20.8100 C.ar      1 <0>         0.0000
      8 C8         10.3830   -1.7500   22.4420 C.ar      1 <0>         0.0000
      9 C9          7.4970    0.2180   20.3420 C.ar      1 <0>         0.0000
     10 C10        10.9460   -0.4960   24.5070 C.ar      1 <0>         0.0000
     11 C11        12.5850   -0.6800   22.6870 C.ar      1 <0>         0.0000
     12 C12         8.3680   -2.0330   20.9750 C.2       1 <0>         0.0000
     13 C13         6.5910    1.5620   22.3210 C.3       1 <0>         0.0000
     14 C14         9.5680   -2.6970   21.6460 C.3       1 <0>         0.0000
     15 N1          6.7670    0.7840   17.9840 N.ar      1 <0>         0.0000
     16 N2          8.1660   -0.6330   21.2140 N.am      1 <0>         0.0000
     17 O1          7.5950   -2.6750   20.3030 O.2       1 <0>         0.0000
     18 O2         10.7470   -0.0150   25.7870 O.3       1 <0>         0.0000
     19 Cl1        14.2360   -0.3760   21.9750 Cl        1 <0>         0.0000
     20 H1          5.3660    2.8900   20.2360 H         1 <0>         0.0000
     21 H2          9.0570   -1.6510   24.0170 H         1 <0>         0.0000
     22 H3         11.8080   -1.5070   20.8730 H         1 <0>         0.0000
     23 H4         12.9580    0.2280   24.4960 H         1 <0>         0.0000
     24 H5          5.5190    2.4440   17.8730 H         1 <0>         0.0000
     25 H6          7.9550   -0.8350   18.4820 H         1 <0>         0.0000
     26 H7          5.7790    0.9100   22.6540 H         1 <0>         0.0000
     27 H8          7.4400    1.1820   22.8960 H         1 <0>         0.0000
     28 H9          6.2680    2.5680   22.5710 H         1 <0>         0.0000
     29 H10        10.1750   -3.2430   20.9050 H         1 <0>         0.0000
     30 H11         9.0650   -3.4000   22.3200 H         1 <0>         0.0000
     31 H12         8.8800   -0.2450   21.8290 H         1 <0>         0.0000
     32 H13         9.7760   -0.5720   28.6980 H         1 <0>         0.0000
     33 H14         9.9060   -1.7330   26.4200 H         1 <0>         0.0000
     34 H15         8.1220    0.4460   25.3670 H         1 <0>         0.0000
     35 H16         7.7150   -1.2720   26.0230 H         1 <0>         0.0000
     36 N3          9.5610   -0.1590   27.7890 N.am      1 <0>         0.0000
     37 O3          7.4210    0.2530   28.3400 O.2       1 <0>         0.0000
     38 C15         9.7270   -0.6630   26.4590 C.3       1 <0>         0.0000
     39 C16         8.2540   -0.3310   26.1330 C.3       1 <0>         0.0000
     40 C17         8.3390    0.2050   27.5160 C.2       1 <0>         0.0000
@<TRIPOS>BOND
     1    5   24 1
     2    5   15 ar
     3    6   15 ar
     4    6   25 1
     5    1    5 ar
     6    6    9 ar
     7    1   20 1
     8    1    7 ar
     9   12   17 2
    10    7    9 ar
    11    9   16 1
    12    7   13 1
    13    3   22 1
    14   14   29 1
    15   12   16 am
    16   12   14 1
    17   16   31 1
    18   14   30 1
    19    8   14 1
    20    3    8 ar
    21    3   11 ar
    22   11   19 1
    23   13   28 1
    24   13   26 1
    25   13   27 1
    26    2    8 ar
    27    4   11 ar
    28    2   21 1
    29    2   10 ar
    30    4   23 1
    31    4   10 ar
    32   10   18 1
    33   34   39 1
    34   18   38 1
    35   35   39 1
    36   38   39 1
    37   39   40 1
    38   33   38 1
    39   36   38 1
    40   36   40 am
    41   37   40 2
    42   32   36 1
@<TRIPOS>MOLECULE
*****
   40    42     0     0     0
SMALL
NO_CHARGES

@<TRIPOS>ATOM
      1 C1          5.5590    1.4740   20.8980 C.ar      1 <0>         0.0000
      2 C2         12.7330    0.9980   23.2490 C.ar      1 <0>         0.0000
      3 C3         12.8510   -1.3480   22.5980 C.ar      1 <0>         0.0000
      4 C4         14.7970    0.1480   22.4790 C.ar      1 <0>         0.0000
      5 C5          5.8430    1.1750   19.5670 C.ar      1 <0>         0.0000
      6 C6          7.7010    0.0370   20.1850 C.ar      1 <0>         0.0000
      7 C7          6.3160    0.9790   21.9160 C.ar      1 <0>         0.0000
      8 C8         12.1370   -0.2550   23.1520 C.ar      1 <0>         0.0000
      9 C9          7.4690    0.2830   21.5820 C.ar      1 <0>         0.0000
     10 C10        14.0940    1.2030   22.9410 C.ar      1 <0>         0.0000
     11 C11        14.2210   -1.1100   22.2140 C.ar      1 <0>         0.0000
     12 C12         9.7180    0.0180   22.4070 C.2       1 <0>         0.0000
     13 C13         5.9070    1.1860   23.3530 C.3       1 <0>         0.0000
     14 C14        10.6300   -0.3740   23.4830 C.3       1 <0>         0.0000
     15 N1          6.8820    0.4700   19.1600 N.ar      1 <0>         0.0000
     16 N2          8.3930   -0.1190   22.5820 N.am      1 <0>         0.0000
     17 O1         10.1790    0.5470   21.4290 O.2       1 <0>         0.0000
     18 O2         14.9050    2.3100   23.3030 O.3       1 <0>         0.0000
     19 Cl1        15.1360   -2.2810   21.4270 Cl        1 <0>         0.0000
     20 H1          4.7170    2.1460   21.0620 H         1 <0>         0.0000
     21 H2         12.1790    1.8330   23.6670 H         1 <0>         0.0000
     22 H3         12.2960   -2.2620   22.4180 H         1 <0>         0.0000
     23 H4         15.8580    0.3140   22.3480 H         1 <0>         0.0000
     24 H5          5.0500    1.5590   18.9300 H         1 <0>         0.0000
     25 H6          8.5800   -0.5610   19.9520 H         1 <0>         0.0000
     26 H7          6.6110    1.8760   23.8380 H         1 <0>         0.0000
     27 H8          4.9390    1.6910   23.3680 H         1 <0>         0.0000
     28 H9          5.7230    0.1880   23.7760 H         1 <0>         0.0000
     29 H10        10.5010   -1.4600   23.6030 H         1 <0>         0.0000
     30 H11        10.3550   -0.0310   24.4840 H         1 <0>         0.0000
     31 H12         8.0170   -0.5010   23.4410 H         1 <0>         0.0000
     32 H13        16.1630    4.4810   24.5480 H         1 <0>         0.0000
     33 H14        13.8000    2.8120   25.0820 H         1 <0>         0.0000
     34 H15        12.4890    4.6210   24.3120 H         1 <0>         0.0000
     35 H16        13.0390    4.5090   22.6460 H         1 <0>         0.0000
     36 N3         15.1630    4.3490   24.6710 N.am      1 <0>         0.0000
     37 O3         14.8210    6.2700   23.4780 O.2       1 <0>         0.0000
     38 C15        14.2850    3.2470   24.2040 C.3       1 <0>         0.0000
     39 C16        13.3610    4.3830   23.6870 C.3       1 <0>         0.0000
     40 C17        14.4330    5.3230   24.1080 C.2       1 <0>         0.0000
@<TRIPOS>BOND
     1    5   24 1
     2    5   15 ar
     3    6   15 ar
     4    1    5 ar
     5    6   25 1
     6    6    9 ar
     7    1   20 1
     8    1    7 ar
     9   11   19 1
    10   12   17 2
    11    7    9 ar
    12    9   16 1
    13    7   13 1
    14    4   11 ar
    15    3   11 ar
    16    4   23 1
    17   12   16 am
    18   12   14 1
    19    3   22 1
    20    4   10 ar
    21   16   31 1
    22    3    8 ar
    23   35   39 1
    24    2   10 ar
    25   10   18 1
    26    2    8 ar
    27    8   14 1
    28    2   21 1
    29   18   38 1
    30   13   27 1
    31   13   28 1
    32   13   26 1
    33   37   40 2
    34   14   29 1
    35   14   30 1
    36   39   40 1
    37   38   39 1
    38   34   39 1
    39   36   40 am
    40   36   38 1
    41   33   38 1
    42   32   36 1
@<TRIPOS>MOLECULE
*****
   40    42     0     0     0
SMALL
NO_CHARGES

@<TRIPOS>ATOM
      1 C1          4.9450    1.2080   19.2650 C.ar      1 <0>         0.0000
      2 C2         11.6070    0.7720   23.0860 C.ar      1 <0>         0.0000
      3 C3         12.2130   -1.1880   21.8000 C.ar      1 <0>         0.0000
      4 C4         13.8730    0.2450   22.7110 C.ar      1 <0>         0.0000
      5 C5          5.5340    1.1930   18.0240 C.ar      1 <0>         0.0000
      6 C6          7.4420    0.2260   18.8830 C.ar      1 <0>         0.0000
      7 C7          5.6580    0.6990   20.4400 C.ar      1 <0>         0.0000
      8 C8         11.2610   -0.3480   22.3330 C.ar      1 <0>         0.0000
      9 C9          6.9220    0.1840   20.1980 C.ar      1 <0>         0.0000
     10 C10        12.9830    1.0440   23.3660 C.ar      1 <0>         0.0000
     11 C11        13.5540   -0.8350   21.8950 C.ar      1 <0>         0.0000
     12 C12         8.9180    0.1620   21.5590 C.2       1 <0>         0.0000
     13 C13         5.0960    0.9030   21.8140 C.3       1 <0>         0.0000
     14 C14         9.8600   -0.7860   22.3220 C.3       1 <0>         0.0000
     15 N1          6.7440    0.6950   17.7650 N.ar      1 <0>         0.0000
     16 N2          7.6540   -0.2670   21.2370 N.am      1 <0>         0.0000
     17 O1          9.2400    1.3010   21.2750 O.2       1 <0>         0.0000
     18 O2         13.4440    2.1000   24.1490 O.3       1 <0>         0.0000
     19 Cl1        14.6900   -1.7720   21.0290 Cl        1 <0>         0.0000
     20 H1          3.9500    1.6250   19.4050 H         1 <0>         0.0000
     21 H2         10.7910    1.4250   23.3820 H         1 <0>         0.0000
     22 H3         11.9770   -2.1160   21.2900 H         1 <0>         0.0000
     23 H4         14.8680    0.6520   22.8540 H         1 <0>         0.0000
     24 H5          5.0890    1.5260   17.0900 H         1 <0>         0.0000
     25 H6          8.4100   -0.2340   18.6950 H         1 <0>         0.0000
     26 H7          5.4050    0.1280   22.5300 H         1 <0>         0.0000
     27 H8          5.4140    1.8660   22.2270 H         1 <0>         0.0000
     28 H9          4.0150    0.7660   21.8240 H         1 <0>         0.0000
     29 H10         9.6430   -1.8020   21.9650 H         1 <0>         0.0000
     30 H11         9.4550   -0.7300   23.3340 H         1 <0>         0.0000
     31 H12         7.3290   -1.0860   21.7580 H         1 <0>         0.0000
     32 H13        12.3550    3.6160   23.1660 H         1 <0>         0.0000
     33 H14        15.4780    3.5040   22.6050 H         1 <0>         0.0000
     34 H15        14.0620    4.4690   21.9100 H         1 <0>         0.0000
     35 N3         13.5770    4.4810   24.6490 N.am      1 <0>         0.0000
     36 O3         15.6530    5.3210   24.4460 O.2       1 <0>         0.0000
     37 C15        13.3340    3.4530   23.6340 C.3       1 <0>         0.0000
     38 C16        14.5280    4.0190   22.7890 C.3       1 <0>         0.0000
     39 C17        14.6170    4.8500   23.9720 C.2       1 <0>         0.0000
     40 H16        13.6530    4.2500   25.6440 H         1 <0>         0.0000
@<TRIPOS>BOND
     1    5   24 1
     2    5   15 ar
     3    6   15 ar
     4    1    5 ar
     5    6   25 1
     6    6    9 ar
     7    1   20 1
     8    1    7 ar
     9    7    9 ar
    10    9   16 1
    11    7   13 1
    12   11   19 1
    13   12   16 am
    14   16   31 1
    15   12   17 2
    16    3   22 1
    17   12   14 1
    18    3   11 ar
    19    3    8 ar
    20   13   28 1
    21   13   27 1
    22   13   26 1
    23    4   11 ar
    24   34   38 1
    25   14   29 1
    26    8   14 1
    27   14   30 1
    28    2    8 ar
    29   33   38 1
    30    4   23 1
    31    4   10 ar
    32   37   38 1
    33   38   39 1
    34    2   10 ar
    35    2   21 1
    36   32   37 1
    37   10   18 1
    38   18   37 1
    39   35   37 1
    40   36   39 2
    41   35   39 am
    42   35   40 1
@<TRIPOS>MOLECULE
*****
   40    42     0     0     0
SMALL
NO_CHARGES

@<TRIPOS>ATOM
      1 C1          4.7840    1.3150   19.4220 C.ar      1 <0>         0.0000
      2 C2         11.5170    0.3690   23.8110 C.ar      1 <0>         0.0000
      3 C3         11.3870   -1.5310   22.3160 C.ar      1 <0>         0.0000
      4 C4         13.4970   -0.5230   22.8910 C.ar      1 <0>         0.0000
      5 C5          5.3800    0.9870   18.1950 C.ar      1 <0>         0.0000
      6 C6          7.1120    0.0340   19.3710 C.ar      1 <0>         0.0000
      7 C7          5.3890    0.9730   20.7020 C.ar      1 <0>         0.0000
      8 C8         10.7600   -0.6550   23.2260 C.ar      1 <0>         0.0000
      9 C9          6.5810    0.2650   20.6490 C.ar      1 <0>         0.0000
     10 C10        12.8460    0.4690   23.6780 C.ar      1 <0>         0.0000
     11 C11        12.7820   -1.5580   22.2930 C.ar      1 <0>         0.0000
     12 C12         8.6710   -0.0840   21.9690 C.2       1 <0>         0.0000
     13 C13         4.7190    1.4270   22.0110 C.3       1 <0>         0.0000
     14 C14         9.2710   -0.6870   23.2550 C.3       1 <0>         0.0000
     15 N1          6.5400    0.2960   18.1660 N.ar      1 <0>         0.0000
     16 N2          7.2660   -0.1530   21.8510 N.am      1 <0>         0.0000
     17 O1          9.3790    0.2860   21.0300 O.2       1 <0>         0.0000
     18 O2         13.6370    1.4350   24.3200 O.3       1 <0>         0.0000
     19 Cl1        13.6290   -2.6430   21.2990 Cl        1 <0>         0.0000
     20 H1          3.9240    1.9620   19.2800 H         1 <0>         0.0000
     21 H2         10.9860    0.9790   24.5340 H         1 <0>         0.0000
     22 H3         10.8410   -2.1990   21.6530 H         1 <0>         0.0000
     23 H4         14.5550   -0.5030   22.6600 H         1 <0>         0.0000
     24 H5          4.9620    1.3000   17.2430 H         1 <0>         0.0000
     25 H6          8.1020   -0.4190   19.3260 H         1 <0>         0.0000
     26 H7          5.4690    1.9740   22.5910 H         1 <0>         0.0000
     27 H8          3.9100    2.1600   21.9060 H         1 <0>         0.0000
     28 H9          4.2900    0.6120   22.5990 H         1 <0>         0.0000
     29 H10         8.8910   -1.7140   23.2990 H         1 <0>         0.0000
     30 H11         8.9950   -0.0600   24.1080 H         1 <0>         0.0000
     31 H12         6.7580   -0.3000   22.7230 H         1 <0>         0.0000
     32 N3         14.2060    3.6800   24.4960 N.am      1 <0>         0.0000
     33 O3         14.4240    5.0280   22.5520 O.2       1 <0>         0.0000
     34 C15        13.1370    2.6990   24.3850 C.3       1 <0>         0.0000
     35 C16        12.6220    3.4840   23.1180 C.3       1 <0>         0.0000
     36 C17        13.7590    4.4210   23.4470 C.2       1 <0>         0.0000
     37 H13        15.1920    3.4400   24.4300 H         1 <0>         0.0000
     38 H14        12.4240    2.9020   25.1780 H         1 <0>         0.0000
     39 H15        11.5980    3.8680   23.1210 H         1 <0>         0.0000
     40 H16        12.7660    2.8570   22.2350 H         1 <0>         0.0000
@<TRIPOS>BOND
     1    5   24 1
     2    5   15 ar
     3    6   15 ar
     4    1    5 ar
     5    1   20 1
     6    6   25 1
     7    6    9 ar
     8    1    7 ar
     9    7    9 ar
    10    9   16 1
    11    7   13 1
    12   12   17 2
    13   11   19 1
    14    3   22 1
    15   12   16 am
    16   16   31 1
    17   13   27 1
    18   12   14 1
    19   13   26 1
    20   13   28 1
    21   35   40 1
    22    3   11 ar
    23    4   11 ar
    24    3    8 ar
    25   33   36 2
    26    4   23 1
    27    4   10 ar
    28   35   39 1
    29   35   36 1
    30   34   35 1
    31    8   14 1
    32    2    8 ar
    33   14   29 1
    34   14   30 1
    35   32   36 am
    36    2   10 ar
    37   10   18 1
    38    2   21 1
    39   18   34 1
    40   32   34 1
    41   34   38 1
    42   32   37 1
@<TRIPOS>MOLECULE
*****
   40    42     0     0     0
SMALL
NO_CHARGES

@<TRIPOS>ATOM
      1 C1          9.6200   -5.7020   24.6140 C.ar      1 <0>         0.0000
      2 C2         11.8450    1.6520   23.3120 C.ar      1 <0>         0.0000
      3 C3         12.0540   -0.7830   22.9660 C.ar      1 <0>         0.0000
      4 C4         13.9480    0.6980   22.7280 C.ar      1 <0>         0.0000
      5 C5          9.1810   -5.7530   25.9230 C.ar      1 <0>         0.0000
      6 C6          8.6920   -3.5160   25.8350 C.ar      1 <0>         0.0000
      7 C7          9.6670   -4.4990   23.9250 C.ar      1 <0>         0.0000
      8 C8         11.2560    0.3780   23.3330 C.ar      1 <0>         0.0000
      9 C9          9.1870   -3.3780   24.5590 C.ar      1 <0>         0.0000
     10 C10        13.1980    1.7950   23.0360 C.ar      1 <0>         0.0000
     11 C11        13.3620   -0.5710   22.5740 C.ar      1 <0>         0.0000
     12 C12         9.5210   -0.9420   24.5320 C.2       1 <0>         0.0000
     13 C13        10.3930   -4.4240   22.5290 C.3       1 <0>         0.0000
     14 C14         9.7530    0.2840   23.6570 C.3       1 <0>         0.0000
     15 N1          8.6180   -4.6700   26.5410 N.ar      1 <0>         0.0000
     16 N2          9.2530   -2.1810   23.9160 N.am      1 <0>         0.0000
     17 O1          9.5810   -0.8730   25.7910 O.2       1 <0>         0.0000
     18 O2         13.8190    3.0290   22.8810 O.3       1 <0>         0.0000
     19 Cl1        14.2680   -1.8980   21.8500 Cl        1 <0>         0.0000
     20 H1         10.0400   -6.6500   24.2880 H         1 <0>         0.0000
     21 H2         11.1600    2.4750   23.4670 H         1 <0>         0.0000
     22 H3         11.5190   -1.7310   22.9010 H         1 <0>         0.0000
     23 H4         14.9650    1.0060   22.4730 H         1 <0>         0.0000
     24 H5          9.2560   -6.6660   26.5140 H         1 <0>         0.0000
     25 H6          8.1380   -2.7200   26.3350 H         1 <0>         0.0000
     26 H7         11.2930   -3.8080   22.6460 H         1 <0>         0.0000
     27 H8         10.5200   -5.4660   22.2300 H         1 <0>         0.0000
     28 H9          9.6790   -4.0020   21.8250 H         1 <0>         0.0000
     29 H10         9.4880    1.1340   24.2820 H         1 <0>         0.0000
     30 H11         9.2450    0.3260   22.6860 H         1 <0>         0.0000
     31 H12         9.4130   -2.2180   22.9090 H         1 <0>         0.0000
     32 N3         13.6730    5.5030   23.1390 N.am      1 <0>         0.0000
     33 O3         12.4700    7.1410   22.1770 O.2       1 <0>         0.0000
     34 C15        13.0550    4.1890   23.3120 C.3       1 <0>         0.0000
     35 C16        11.8290    4.7140   22.4230 C.3       1 <0>         0.0000
     36 C17        12.6910    5.9350   22.3800 C.2       1 <0>         0.0000
     37 H13        14.2650    6.0320   23.7780 H         1 <0>         0.0000
     38 H14        12.6120    4.0550   24.2970 H         1 <0>         0.0000
     39 H15        10.8660    4.9520   22.9010 H         1 <0>         0.0000
     40 H16        11.6920    4.1490   21.4980 H         1 <0>         0.0000
@<TRIPOS>BOND
     1   35   40 1
     2   13   28 1
     3   11   19 1
     4   33   36 2
     5   13   27 1
     6   35   36 1
     7   32   36 am
     8   35   39 1
     9   34   35 1
    10    4   23 1
    11   13   26 1
    12    7   13 1
    13    4   11 ar
    14    3   11 ar
    15   14   30 1
    16    4   10 ar
    17   10   18 1
    18   18   34 1
    19    3   22 1
    20   16   31 1
    21    3    8 ar
    22    2   10 ar
    23   32   34 1
    24   32   37 1
    25    2    8 ar
    26    2   21 1
    27   34   38 1
    28    8   14 1
    29   14   29 1
    30   12   14 1
    31   12   16 am
    32    9   16 1
    33    7    9 ar
    34    1    7 ar
    35    1   20 1
    36   12   17 2
    37    6    9 ar
    38    1    5 ar
    39    6   25 1
    40    6   15 ar
    41    5   24 1
    42    5   15 ar
@<TRIPOS>MOLECULE
*****
   40    42     0     0     0
SMALL
NO_CHARGES

@<TRIPOS>ATOM
      1 C1          4.2960    2.0670   18.9940 C.ar      1 <0>         0.0000
      2 C2         10.8210    2.1050   23.6540 C.ar      1 <0>         0.0000
      3 C3         11.0970   -0.1690   22.9540 C.ar      1 <0>         0.0000
      4 C4         13.0410    1.1250   23.4250 C.ar      1 <0>         0.0000
      5 C5          4.8060    1.2300   18.0650 C.ar      1 <0>         0.0000
      6 C6          6.5530    0.7040   19.3770 C.ar      1 <0>         0.0000
      7 C7          4.8890    2.1430   20.2680 C.ar      1 <0>         0.0000
      8 C8         10.2400    0.9120   23.3230 C.ar      1 <0>         0.0000
      9 C9          6.1000    1.4880   20.4490 C.ar      1 <0>         0.0000
     10 C10        12.2490    2.2620   23.7540 C.ar      1 <0>         0.0000
     11 C11        12.4380   -0.0650   23.0950 C.ar      1 <0>         0.0000
     12 C12         8.1810    1.2150   21.8680 C.2       1 <0>         0.0000
     13 C13         4.3670    3.0500   21.2800 C.3       1 <0>         0.0000
     14 C14         8.7270    0.7710   23.2180 C.3       1 <0>         0.0000
     15 N1          5.8840    0.5100   18.2400 N.ar      1 <0>         0.0000
     16 N2          6.8600    1.6080   21.6700 N.am      1 <0>         0.0000
     17 O1          8.9190    1.2690   20.8460 O.2       1 <0>         0.0000
     18 O2         12.8210    3.5200   23.9570 O.3       1 <0>         0.0000
     19 Cl1        13.4430   -1.5080   22.7190 Cl        1 <0>         0.0000
     20 H1          3.3850    2.6450   18.8770 H         1 <0>         0.0000
     21 H2         10.2980    3.0330   23.8570 H         1 <0>         0.0000
     22 H3         10.5920   -1.0520   22.5530 H         1 <0>         0.0000
     23 H4         14.1200    1.2790   23.4020 H         1 <0>         0.0000
     24 H5          4.2700    1.1130   17.1320 H         1 <0>         0.0000
     25 H6          7.4140    0.0830   19.5800 H         1 <0>         0.0000
     26 H7          3.3380    3.1420   20.9070 H         1 <0>         0.0000
     27 H8          4.2870    2.5500   22.2510 H         1 <0>         0.0000
     28 H9          4.8950    4.0050   21.2920 H         1 <0>         0.0000
     29 H10         8.4070   -0.2720   23.3750 H         1 <0>         0.0000
     30 H11         8.1880    1.3200   24.0010 H         1 <0>         0.0000
     31 H12         6.3350    1.8390   22.5150 H         1 <0>         0.0000
     32 H13        12.2280    4.6130   20.8670 H         1 <0>         0.0000
     33 H14        11.0940    4.9130   22.3670 H         1 <0>         0.0000
     34 N3         13.8640    5.4320   22.9800 N.am      1 <0>         0.0000
     35 O3         12.5180    7.2470   22.4150 O.2       1 <0>         0.0000
     36 C15        13.2100    4.1800   22.7090 C.3       1 <0>         0.0000
     37 C16        12.0860    4.8990   21.9080 C.3       1 <0>         0.0000
     38 C17        12.9580    6.0670   22.2920 C.2       1 <0>         0.0000
     39 H15        13.9090    5.7540   23.9440 H         1 <0>         0.0000
     40 H16        13.8750    3.4290   22.2730 H         1 <0>         0.0000
@<TRIPOS>BOND
     1    5   24 1
     2    5   15 ar
     3    1    5 ar
     4    6   15 ar
     5    1   20 1
     6    1    7 ar
     7    6   25 1
     8    6    9 ar
     9    7    9 ar
    10    7   13 1
    11    9   16 1
    12   12   17 2
    13   32   37 1
    14   13   26 1
    15   13   28 1
    16   13   27 1
    17   12   16 am
    18   16   31 1
    19   12   14 1
    20   37   38 1
    21   33   37 1
    22   36   37 1
    23   36   40 1
    24   35   38 2
    25   34   38 am
    26    3   22 1
    27   34   36 1
    28   18   36 1
    29   11   19 1
    30    3   11 ar
    31    3    8 ar
    32   34   39 1
    33    4   11 ar
    34    8   14 1
    35   14   29 1
    36   14   30 1
    37    2    8 ar
    38    4   23 1
    39    4   10 ar
    40    2   10 ar
    41    2   21 1
    42   10   18 1
@<TRIPOS>MOLECULE
*****
   40    42     0     0     0
SMALL
NO_CHARGES

@<TRIPOS>ATOM
      1 C1          5.3210    1.8920   18.7270 C.ar      1 <0>         0.0000
      2 C2         11.6610    2.1060   23.6330 C.ar      1 <0>         0.0000
      3 C3         11.7240    0.0580   22.3160 C.ar      1 <0>         0.0000
      4 C4         13.7640    1.3500   22.6340 C.ar      1 <0>         0.0000
      5 C5          6.0910    1.7390   17.6280 C.ar      1 <0>         0.0000
      6 C6          7.7720    1.0450   18.8690 C.ar      1 <0>         0.0000
      7 C7          5.7690    1.5940   19.9770 C.ar      1 <0>         0.0000
      8 C8         11.0270    1.0450   22.9880 C.ar      1 <0>         0.0000
      9 C9          7.0880    1.1920   20.0930 C.ar      1 <0>         0.0000
     10 C10        13.1080    2.3000   23.3780 C.ar      1 <0>         0.0000
     11 C11        13.1300    0.1980   22.1490 C.ar      1 <0>         0.0000
     12 C12         8.9090    1.4610   21.6630 C.2       1 <0>         0.0000
     13 C13         4.8790    1.6640   21.2090 C.3       1 <0>         0.0000
     14 C14         9.5200    0.9830   23.0180 C.3       1 <0>         0.0000
     15 N1          7.2980    1.2690   17.6740 N.ar      1 <0>         0.0000
     16 N2          7.7450    0.9000   21.2680 N.am      1 <0>         0.0000
     17 O1          9.5660    2.2840   21.0350 O.2       1 <0>         0.0000
     18 O2         13.8620    3.4060   23.7020 O.3       1 <0>         0.0000
     19 Cl1        14.1380   -0.9550   21.2660 Cl        1 <0>         0.0000
     20 H1          4.3870    2.3960   18.4860 H         1 <0>         0.0000
     21 H2         11.1170    2.9130   24.1020 H         1 <0>         0.0000
     22 H3         11.2880   -0.6970   21.6740 H         1 <0>         0.0000
     23 H4         14.8330    1.5030   22.5440 H         1 <0>         0.0000
     24 H5          5.7960    2.2310   16.7060 H         1 <0>         0.0000
     25 H6          8.7960    0.6880   18.9510 H         1 <0>         0.0000
     26 H7          5.1890    2.5000   21.8420 H         1 <0>         0.0000
     27 H8          3.8390    1.9280   21.0000 H         1 <0>         0.0000
     28 H9          4.7730    0.6490   21.6220 H         1 <0>         0.0000
     29 H10         9.2210   -0.0560   23.1880 H         1 <0>         0.0000
     30 H11         9.1160    1.6330   23.7970 H         1 <0>         0.0000
     31 H12         7.1800    0.5310   22.0280 H         1 <0>         0.0000
     32 C15        13.0880    4.6410   23.6710 C.3       1 <0>         0.0000
     33 C16        12.2190    5.0260   22.3900 C.3       1 <0>         0.0000
     34 C17        13.1560    6.2120   22.3310 C.2       1 <0>         0.0000
     35 H13        14.1070    6.5640   24.1270 H         1 <0>         0.0000
     36 H14        12.4600    4.7360   24.5600 H         1 <0>         0.0000
     37 H15        11.2170    5.3910   22.6530 H         1 <0>         0.0000
     38 H16        12.1810    4.3740   21.5170 H         1 <0>         0.0000
     39 N3         13.9050    5.8590   23.4100 N.am      1 <0>         0.0000
     40 O3         12.8510    7.3250   21.9500 O.2       1 <0>         0.0000
@<TRIPOS>BOND
     1    5   24 1
     2    5   15 ar
     3    1    5 ar
     4    6   15 ar
     5    1   20 1
     6    1    7 ar
     7    6   25 1
     8    6    9 ar
     9    7    9 ar
    10    7   13 1
    11    9   16 1
    12   13   27 1
    13   12   17 2
    14   13   28 1
    15   13   26 1
    16   11   19 1
    17   12   16 am
    18   16   31 1
    19   33   38 1
    20   12   14 1
    21    3   22 1
    22   34   40 2
    23    3   11 ar
    24    4   11 ar
    25    3    8 ar
    26   33   34 1
    27   34   39 am
    28   33   37 1
    29   32   33 1
    30    4   23 1
    31    4   10 ar
    32    8   14 1
    33    2    8 ar
    34   14   29 1
    35   14   30 1
    36    2   10 ar
    37   10   18 1
    38   32   39 1
    39   35   39 1
    40    2   21 1
    41   18   32 1
    42   32   36 1
@<TRIPOS>MOLECULE
*****
   40    42     0     0     0
SMALL
NO_CHARGES

@<TRIPOS>ATOM
      1 C1          4.1220    0.9240   19.4560 C.ar      1 <0>         0.0000
      2 C2         10.8340    1.9860   23.2900 C.ar      1 <0>         0.0000
      3 C3         11.2900   -0.3040   22.4660 C.ar      1 <0>         0.0000
      4 C4         13.0630    1.2970   22.6490 C.ar      1 <0>         0.0000
      5 C5          4.7860    0.4500   18.2480 C.ar      1 <0>         0.0000
      6 C6          6.5980   -0.0390   19.4620 C.ar      1 <0>         0.0000
      7 C7          4.7230    0.8970   20.7170 C.ar      1 <0>         0.0000
      8 C8         10.3720    0.6320   22.9980 C.ar      1 <0>         0.0000
      9 C9          6.0420    0.3770   20.6900 C.ar      1 <0>         0.0000
     10 C10        12.2100    2.3120   23.0580 C.ar      1 <0>         0.0000
     11 C11        12.6450    0.0400   22.3670 C.ar      1 <0>         0.0000
     12 C12         8.1350    0.6920   21.9490 C.2       1 <0>         0.0000
     13 C13         4.0590    1.4350   21.9040 C.3       1 <0>         0.0000
     14 C14         8.9550    0.2350   23.1790 C.3       1 <0>         0.0000
     15 N1          5.9640   -0.0790   18.2460 N.ar      1 <0>         0.0000
     16 N2          6.8480    0.3250   21.8710 N.am      1 <0>         0.0000
     17 O1          8.7080    1.2570   21.0310 O.2       1 <0>         0.0000
     18 O2         12.8060    3.5370   23.1920 O.3       1 <0>         0.0000
     19 Cl1        13.6950   -1.1970   21.7890 Cl        1 <0>         0.0000
     20 H1          3.1300    1.3080   19.2650 H         1 <0>         0.0000
     21 H2         10.1400    2.7850   23.5140 H         1 <0>         0.0000
     22 H3         10.8640   -1.2850   22.2950 H         1 <0>         0.0000
     23 H4         14.1210    1.4940   22.5800 H         1 <0>         0.0000
     24 H5          4.3320    0.6460   17.2760 H         1 <0>         0.0000
     25 H6          7.6580   -0.2740   19.5430 H         1 <0>         0.0000
     26 H7          4.7130    1.4430   22.7750 H         1 <0>         0.0000
     27 H8          3.7790    2.4580   21.6320 H         1 <0>         0.0000
     28 H9          3.1820    0.8630   22.2210 H         1 <0>         0.0000
     29 H10         8.7820   -0.8350   23.0610 H         1 <0>         0.0000
     30 H11         8.5470    0.6810   24.0870 H         1 <0>         0.0000
     31 H12         6.3770    0.0220   22.7180 H         1 <0>         0.0000
     32 H13        11.8020    5.0370   21.3760 H         1 <0>         0.0000
     33 H14        10.5060    5.9050   22.3740 H         1 <0>         0.0000
     34 N3         12.8190    5.7250   24.0410 N.am      1 <0>         0.0000
     35 O3         12.9810    7.3710   22.4880 O.2       1 <0>         0.0000
     36 C15        11.9860    4.6210   23.5560 C.3       1 <0>         0.0000
     37 C16        11.5310    5.5010   22.3280 C.3       1 <0>         0.0000
     38 C17        12.3910    6.4510   23.0480 C.2       1 <0>         0.0000
     39 H15        13.8230    5.7140   24.1880 H         1 <0>         0.0000
     40 H16        11.1890    4.3820   24.2770 H         1 <0>         0.0000
@<TRIPOS>BOND
     1    5   24 1
     2    5   15 ar
     3    6   15 ar
     4    1    5 ar
     5    1   20 1
     6    1    7 ar
     7    6   25 1
     8    6    9 ar
     9    7    9 ar
    10    9   16 1
    11    7   13 1
    12   12   17 2
    13   32   37 1
    14   13   27 1
    15   11   19 1
    16   12   16 am
    17   16   31 1
    18   13   28 1
    19   13   26 1
    20   12   14 1
    21    3   22 1
    22   33   37 1
    23   37   38 1
    24   36   37 1
    25    3   11 ar
    26    4   11 ar
    27    3    8 ar
    28   35   38 2
    29    4   23 1
    30    4   10 ar
    31    8   14 1
    32    2    8 ar
    33   34   38 am
    34   10   18 1
    35    2   10 ar
    36   14   29 1
    37   14   30 1
    38   18   36 1
    39    2   21 1
    40   34   36 1
    41   36   40 1
    42   34   39 1
@<TRIPOS>MOLECULE
*****
   40    42     0     0     0
SMALL
NO_CHARGES

@<TRIPOS>ATOM
      1 C1          5.5300    2.1560   18.4530 C.ar      1 <0>         0.0000
      2 C2         11.3480    1.2350   23.6300 C.ar      1 <0>         0.0000
      3 C3         11.4570   -1.1140   23.2330 C.ar      1 <0>         0.0000
      4 C4         13.4930    0.0460   23.7380 C.ar      1 <0>         0.0000
      5 C5          6.1030    1.4360   17.4560 C.ar      1 <0>         0.0000
      6 C6          7.6720    0.5720   18.9480 C.ar      1 <0>         0.0000
      7 C7          6.0030    2.0610   19.7990 C.ar      1 <0>         0.0000
      8 C8         10.6840    0.0470   23.3690 C.ar      1 <0>         0.0000
      9 C9          7.1060    1.2470   20.0550 C.ar      1 <0>         0.0000
     10 C10        12.7740    1.2150   23.8520 C.ar      1 <0>         0.0000
     11 C11        12.8770   -1.0920   23.3970 C.ar      1 <0>         0.0000
     12 C12         8.9000    0.8840   21.8410 C.2       1 <0>         0.0000
     13 C13         5.3250    2.7720   20.8810 C.3       1 <0>         0.0000
     14 C14         9.1990    0.1410   23.1330 C.3       1 <0>         0.0000
     15 N1          7.1850    0.7430   17.6860 N.ar      1 <0>         0.0000
     16 N2          7.6110    1.0440   21.4180 N.am      1 <0>         0.0000
     17 O1          9.7860    1.3250   21.0890 O.2       1 <0>         0.0000
     18 O2         13.6350    2.3200   24.0970 O.3       1 <0>         0.0000
     19 Cl1        13.7490   -2.5050   23.1060 Cl        1 <0>         0.0000
     20 H1          4.6360    2.7230   18.2330 H         1 <0>         0.0000
     21 H2         10.8540    2.2050   23.7040 H         1 <0>         0.0000
     22 H3         11.0060   -2.0890   23.1230 H         1 <0>         0.0000
     23 H4         14.5610    0.1530   23.8720 H         1 <0>         0.0000
     24 H5          5.7180    1.5970   16.4530 H         1 <0>         0.0000
     25 H6          8.5750   -0.0120   19.1280 H         1 <0>         0.0000
     26 H7          4.8490    3.6960   20.5180 H         1 <0>         0.0000
     27 H8          4.5440    2.1380   21.3320 H         1 <0>         0.0000
     28 H9          6.0560    2.9930   21.6610 H         1 <0>         0.0000
     29 H10         8.8100   -0.8610   22.9190 H         1 <0>         0.0000
     30 H11         8.5760    0.5510   23.9280 H         1 <0>         0.0000
     31 H12         6.9620    0.8260   22.1730 H         1 <0>         0.0000
     32 H13        14.9930    4.3620   24.3260 H         1 <0>         0.0000
     33 H14        12.2550    3.7340   24.9880 H         1 <0>         0.0000
     34 H15        11.4540    4.6630   23.0730 H         1 <0>         0.0000
     35 H16        12.6580    3.6690   21.9920 H         1 <0>         0.0000
     36 N3         14.0180    4.6580   24.2450 N.am      1 <0>         0.0000
     37 O3         14.4080    5.6700   22.2890 O.2       1 <0>         0.0000
     38 C15        13.0040    3.6130   24.2040 C.3       1 <0>         0.0000
     39 C16        12.4540    4.2830   22.8770 C.3       1 <0>         0.0000
     40 C17        13.6650    5.1920   23.1330 C.2       1 <0>         0.0000
@<TRIPOS>BOND
     1    5   24 1
     2    5   15 ar
     3    1    5 ar
     4    6   15 ar
     5    1   20 1
     6    1    7 ar
     7    6   25 1
     8    6    9 ar
     9    7    9 ar
    10    7   13 1
    11    9   16 1
    12   13   26 1
    13   13   27 1
    14   13   28 1
    15   12   17 2
    16   12   16 am
    17   16   31 1
    18   12   14 1
    19   35   39 1
    20   37   40 2
    21   34   39 1
    22   39   40 1
    23   38   39 1
    24   14   29 1
    25   11   19 1
    26    3   22 1
    27    8   14 1
    28   14   30 1
    29   36   40 am
    30    3    8 ar
    31    3   11 ar
    32    2    8 ar
    33    4   11 ar
    34    2   21 1
    35    2   10 ar
    36    4   10 ar
    37    4   23 1
    38   10   18 1
    39   18   38 1
    40   36   38 1
    41   33   38 1
    42   32   36 1
@<TRIPOS>MOLECULE
*****
   42    44     0     0     0
SMALL
NO_CHARGES

@<TRIPOS>ATOM
      1 C1          6.0360    1.9700   19.7610 C.ar      1 <0>         0.0000
      2 C2          9.3550   -4.4630   22.9340 C.ar      1 <0>         0.0000
      3 C3          9.2460   -2.1900   23.7040 C.ar      1 <0>         0.0000
      4 C4          8.8850   -3.9580   25.2770 C.ar      1 <0>         0.0000
      5 C5          5.8750    1.5350   18.4050 C.ar      1 <0>         0.0000
      6 C6          7.3940   -0.0810   18.6150 C.ar      1 <0>         0.0000
      7 C7          6.9850    1.2740   20.5510 C.ar      1 <0>         0.0000
      8 C8          9.5510   -3.1220   22.6840 C.ar      1 <0>         0.0000
      9 C9          7.5200    0.1780   19.9770 C.ar      1 <0>         0.0000
     10 C10         9.1140   -4.9240   24.2720 C.ar      1 <0>         0.0000
     11 C11         8.9100   -2.6210   25.0190 C.ar      1 <0>         0.0000
     12 C12         8.6580   -1.9790   20.6380 C.2       1 <0>         0.0000
     13 C13         7.4270    1.9730   21.8080 C.3       1 <0>         0.0000
     14 C14         9.8630   -2.6590   21.3270 C.3       1 <0>         0.0000
     15 N1          6.5580    0.5430   17.7950 N.ar      1 <0>         0.0000
     16 N2          8.4140   -0.5880   20.7400 N.am      1 <0>         0.0000
     17 O1          7.8160   -2.6560   20.0730 O.2       1 <0>         0.0000
     18 O2          9.0590   -6.2930   24.6640 O.3       1 <0>         0.0000
     19 Cl1         8.3340   -1.4540   26.2250 Cl        1 <0>         0.0000
     20 H1          5.4390    2.7790   20.1610 H         1 <0>         0.0000
     21 H2          9.5980   -5.1830   22.1510 H         1 <0>         0.0000
     22 H3          9.5000   -1.1430   23.7260 H         1 <0>         0.0000
     23 H4          8.6360   -4.2100   26.3100 H         1 <0>         0.0000
     24 H5          5.2850    2.1660   17.7480 H         1 <0>         0.0000
     25 H6          7.8070   -0.9770   18.1460 H         1 <0>         0.0000
     26 H7          8.4190    2.4080   21.6980 H         1 <0>         0.0000
     27 H8          6.7030    2.7190   22.1500 H         1 <0>         0.0000
     28 H9          7.4190    1.2170   22.6000 H         1 <0>         0.0000
     29 H10        10.7350   -2.0040   21.3850 H         1 <0>         0.0000
     30 H11        10.0790   -3.5300   20.6970 H         1 <0>         0.0000
     31 H12         9.0220    0.0260   21.2910 H         1 <0>         0.0000
     32 H13         8.9990   -7.1260   22.7510 H         1 <0>         0.0000
     33 H14         6.5070   -6.2610   24.2790 H         1 <0>         0.0000
     34 H15         6.6220   -6.9970   22.4760 H         1 <0>         0.0000
     35 N3          8.2470   -8.4730   24.1950 N.3       1 <0>         0.0000
     36 O3          6.1740   -8.7920   24.9590 O.3       1 <0>         0.0000
     37 C15         8.4430   -7.1400   23.6890 C.3       1 <0>         0.0000
     38 C16         6.8830   -6.9750   23.5390 C.3       1 <0>         0.0000
     39 C17         6.9060   -8.3570   24.0950 C.3       1 <0>         0.0000
     40 H16         8.7410   -8.6540   25.0590 H         1 <0>         0.0000
     41 H           6.1740   -8.7920   24.9590 H         1 <0>         0.0000
     42 H           6.9060   -8.3570   24.0950 H         1 <0>         0.0000
@<TRIPOS>BOND
     1    5   24 1
     2    5   15 ar
     3    6   15 ar
     4    6   25 1
     5    1    5 ar
     6    6    9 ar
     7    1   20 1
     8    1    7 ar
     9    7    9 ar
    10    9   16 1
    11   12   17 2
    12    7   13 1
    13   12   16 am
    14   12   14 1
    15   14   30 1
    16   16   31 1
    17   14   29 1
    18    8   14 1
    19   13   26 1
    20   13   27 1
    21   13   28 1
    22    2   21 1
    23   34   38 1
    24    2    8 ar
    25    3    8 ar
    26   32   37 1
    27    2   10 ar
    28   37   38 1
    29   38   39 1
    30   33   38 1
    31   35   37 1
    32   18   37 1
    33    3   22 1
    34    3   11 ar
    35   35   39 1
    36   36   39 1
    37   35   40 1
    38   10   18 1
    39    4   10 ar
    40    4   11 ar
    41   11   19 1
    42    4   23 1
    43   36   41 1
    44   39   42 1
@<TRIPOS>MOLECULE
*****
   40    42     0     0     0
SMALL
NO_CHARGES

@<TRIPOS>ATOM
      1 C1          8.7570    2.1440   29.1860 C.ar      1 <0>         0.0000
      2 C2         11.7570    1.3520   23.3020 C.ar      1 <0>         0.0000
      3 C3         11.9910   -0.8000   22.3160 C.ar      1 <0>         0.0000
      4 C4         13.7760    0.7210   22.2190 C.ar      1 <0>         0.0000
      5 C5          8.1320    1.0220   29.7150 C.ar      1 <0>         0.0000
      6 C6          8.1730   -0.0220   27.6970 C.ar      1 <0>         0.0000
      7 C7          9.2540    2.1770   27.8510 C.ar      1 <0>         0.0000
      8 C8         11.1830    0.0970   22.9930 C.ar      1 <0>         0.0000
      9 C9          8.9820    0.9820   27.1180 C.ar      1 <0>         0.0000
     10 C10        13.0050    1.6920   22.9480 C.ar      1 <0>         0.0000
     11 C11        13.2720   -0.5070   21.9300 C.ar      1 <0>         0.0000
     12 C12         9.8360   -0.2930   25.0710 C.2       1 <0>         0.0000
     13 C13         9.7250    3.5130   27.2260 C.3       1 <0>         0.0000
     14 C14         9.8470   -0.3340   23.5600 C.3       1 <0>         0.0000
     15 N1          7.7490   -0.0640   29.0100 N.ar      1 <0>         0.0000
     16 N2          9.4260    0.8660   25.7710 N.am      1 <0>         0.0000
     17 O1         10.2370   -1.2050   25.7420 O.2       1 <0>         0.0000
     18 O2         13.6660    2.9140   23.2740 O.3       1 <0>         0.0000
     19 Cl1        14.2320   -1.6330   20.9240 Cl        1 <0>         0.0000
     20 H1          8.9990    3.0360   29.7530 H         1 <0>         0.0000
     21 H2         11.1180    2.0380   23.8550 H         1 <0>         0.0000
     22 H3         11.4870   -1.6860   21.9320 H         1 <0>         0.0000
     23 H4         14.7420    1.0750   21.8730 H         1 <0>         0.0000
     24 H5          7.7550    1.0510   30.7260 H         1 <0>         0.0000
     25 H6          8.0040   -0.9130   27.1090 H         1 <0>         0.0000
     26 H7         10.6740    3.3310   26.7210 H         1 <0>         0.0000
     27 H8          8.9610    3.8620   26.5140 H         1 <0>         0.0000
     28 H9          9.8260    4.2520   28.0230 H         1 <0>         0.0000
     29 H10         9.2060    0.4780   23.2050 H         1 <0>         0.0000
     30 H11         9.4820   -1.2830   23.1750 H         1 <0>         0.0000
     31 H12         9.4520    1.7280   25.2260 H         1 <0>         0.0000
     32 C15        12.9520    4.0520   23.4600 C.3       1 <0>         0.0000
     33 C16        11.9690    4.5120   22.3100 C.3       1 <0>         0.0000
     34 C17        12.8920    5.6580   22.1730 C.2       1 <0>         0.0000
     35 H13        13.9340    5.9440   23.8740 H         1 <0>         0.0000
     36 H14        12.4300    4.0600   24.4120 H         1 <0>         0.0000
     37 H15        11.9140    3.8070   21.4710 H         1 <0>         0.0000
     38 H16        10.9130    4.7170   22.5210 H         1 <0>         0.0000
     39 N3         13.7300    5.2830   23.1230 N.am      1 <0>         0.0000
     40 O3         12.6930    6.8240   21.8260 O.2       1 <0>         0.0000
@<TRIPOS>BOND
     1   11   19 1
     2   33   37 1
     3   34   40 2
     4    4   23 1
     5    4   11 ar
     6    3   11 ar
     7    3   22 1
     8   33   34 1
     9   34   39 am
    10    4   10 ar
    11   33   38 1
    12   32   33 1
    13    3    8 ar
    14   10   18 1
    15    2   10 ar
    16    2    8 ar
    17    8   14 1
    18   32   39 1
    19   35   39 1
    20   14   30 1
    21   14   29 1
    22   18   32 1
    23    2   21 1
    24   32   36 1
    25   12   14 1
    26   12   17 2
    27   12   16 am
    28   16   31 1
    29    9   16 1
    30   13   27 1
    31   13   26 1
    32    6   25 1
    33    6    9 ar
    34    7    9 ar
    35    7   13 1
    36   13   28 1
    37    6   15 ar
    38    1    7 ar
    39    5   15 ar
    40    1    5 ar
    41    1   20 1
    42    5   24 1
@<TRIPOS>MOLECULE
*****
   42    44     0     0     0
SMALL
NO_CHARGES

@<TRIPOS>ATOM
      1 C1          4.8010    2.2460   18.5080 C.ar      1 <0>         0.0000
      2 C2         11.0280    1.6060   23.1420 C.ar      1 <0>         0.0000
      3 C3         11.2110   -0.7450   23.0460 C.ar      1 <0>         0.0000
      4 C4         13.1870    0.6820   23.2930 C.ar      1 <0>         0.0000
      5 C5          5.3720    1.5520   17.3780 C.ar      1 <0>         0.0000
      6 C6          7.0090    0.6840   18.7470 C.ar      1 <0>         0.0000
      7 C7          5.2990    2.0680   19.8370 C.ar      1 <0>         0.0000
      8 C8         10.4190    0.3950   22.9310 C.ar      1 <0>         0.0000
      9 C9          6.4270    1.2570   19.9440 C.ar      1 <0>         0.0000
     10 C10        12.3990    1.7610   23.2820 C.ar      1 <0>         0.0000
     11 C11        12.5890   -0.6080   23.1720 C.ar      1 <0>         0.0000
     12 C12         8.4470    1.0740   21.3940 C.2       1 <0>         0.0000
     13 C13         4.5420    2.6270   21.0040 C.3       1 <0>         0.0000
     14 C14         8.9180    0.4040   22.6940 C.3       1 <0>         0.0000
     15 N1          6.4640    0.7760   17.5060 N.ar      1 <0>         0.0000
     16 N2          7.0870    1.0400   21.1870 N.am      1 <0>         0.0000
     17 O1          9.2070    1.5070   20.5470 O.2       1 <0>         0.0000
     18 O2         13.1160    2.9190   23.2000 O.3       1 <0>         0.0000
     19 Cl1        13.6090   -1.9470   23.2510 Cl        1 <0>         0.0000
     20 H1          3.9130    2.8600   18.4050 H         1 <0>         0.0000
     21 H2         10.4090    2.4890   22.9810 H         1 <0>         0.0000
     22 H3         10.9300   -1.7960   23.0690 H         1 <0>         0.0000
     23 H4         14.2540    0.8180   23.4180 H         1 <0>         0.0000
     24 H5          4.8580    1.5960   16.4150 H         1 <0>         0.0000
     25 H6          7.8860    0.0400   18.8470 H         1 <0>         0.0000
     26 H7          3.4630    2.5310   20.8990 H         1 <0>         0.0000
     27 H8          4.8760    2.3010   21.9980 H         1 <0>         0.0000
     28 H9          4.6790    3.6940   21.1780 H         1 <0>         0.0000
     29 H10         8.6190   -0.6390   22.7130 H         1 <0>         0.0000
     30 H11         8.5490    0.9250   23.5830 H         1 <0>         0.0000
     31 H12         6.5570    0.9090   22.0510 H         1 <0>         0.0000
     32 H13        14.2300    5.3090   23.1950 H         1 <0>         0.0000
     33 H14        11.6700    4.1370   24.1660 H         1 <0>         0.0000
     34 H15        10.6780    4.9190   21.9580 H         1 <0>         0.0000
     35 H16        12.1160    4.1680   21.1210 H         1 <0>         0.0000
     36 N3         13.2230    5.3210   23.3740 N.3       1 <0>         0.0000
     37 O3         13.0360    6.6900   21.6070 O.3       1 <0>         0.0000
     38 C15        12.3900    4.1360   23.3430 C.3       1 <0>         0.0000
     39 C16        11.7510    4.7350   21.9830 C.3       1 <0>         0.0000
     40 C17        12.5370    5.9290   22.3840 C.3       1 <0>         0.0000
     41 H          13.0360    6.6900   21.6070 H         1 <0>         0.0000
     42 H          12.5370    5.9290   22.3840 H         1 <0>         0.0000
@<TRIPOS>BOND
     1    5   24 1
     2    5   15 ar
     3    1    5 ar
     4    6   15 ar
     5    1   20 1
     6    1    7 ar
     7    6   25 1
     8    6    9 ar
     9    7    9 ar
    10    7   13 1
    11    9   16 1
    12   12   17 2
    13   13   26 1
    14   13   28 1
    15   13   27 1
    16   35   39 1
    17   12   16 am
    18   16   31 1
    19   12   14 1
    20   37   40 1
    21   34   39 1
    22   39   40 1
    23   38   39 1
    24   36   40 1
    25   14   29 1
    26    8   14 1
    27   14   30 1
    28    3    8 ar
    29    2    8 ar
    30    2   21 1
    31    3   22 1
    32    3   11 ar
    33    2   10 ar
    34   11   19 1
    35    4   11 ar
    36   32   36 1
    37   10   18 1
    38   18   38 1
    39    4   10 ar
    40    4   23 1
    41   36   38 1
    42   33   38 1
    43   37   41 1
    44   40   42 1
@<TRIPOS>MOLECULE
*****
   40    42     0     0     0
SMALL
NO_CHARGES

@<TRIPOS>ATOM
      1 C1          5.8140    2.4850   17.4670 C.ar      1 <0>         0.0000
      2 C2          9.1250    2.1640   22.5830 C.ar      1 <0>         0.0000
      3 C3         10.5310    0.1880   22.7860 C.ar      1 <0>         0.0000
      4 C4         11.5380    2.2480   22.5650 C.ar      1 <0>         0.0000
      5 C5          6.4890    1.6790   16.4900 C.ar      1 <0>         0.0000
      6 C6          7.0460    0.1580   18.0670 C.ar      1 <0>         0.0000
      7 C7          5.8140    2.0780   18.7680 C.ar      1 <0>         0.0000
      8 C8          9.2270    0.7900   22.6630 C.ar      1 <0>         0.0000
      9 C9          6.4990    0.8950   19.1440 C.ar      1 <0>         0.0000
     10 C10        10.3350    2.9130   22.4710 C.ar      1 <0>         0.0000
     11 C11        11.6540    0.8580   22.6530 C.ar      1 <0>         0.0000
     12 C12         7.5180   -0.1850   21.1790 C.2       1 <0>         0.0000
     13 C13         5.1030    2.8980   19.8090 C.3       1 <0>         0.0000
     14 C14         7.9550   -0.0000   22.6130 C.3       1 <0>         0.0000
     15 N1          7.0590    0.5420   16.7970 N.ar      1 <0>         0.0000
     16 N2          6.6470    0.6970   20.5660 N.am      1 <0>         0.0000
     17 O1          8.0980   -1.0450   20.4650 O.2       1 <0>         0.0000
     18 O2         10.4350    4.3270   22.4310 O.3       1 <0>         0.0000
     19 Cl1        13.1670    0.1190   22.9650 Cl        1 <0>         0.0000
     20 H1          5.3730    3.4590   17.2800 H         1 <0>         0.0000
     21 H2          8.1740    2.6700   22.5010 H         1 <0>         0.0000
     22 H3         10.4990   -0.8970   22.8450 H         1 <0>         0.0000
     23 H4         12.3840    2.9400   22.5390 H         1 <0>         0.0000
     24 H5          6.5590    1.9790   15.4560 H         1 <0>         0.0000
     25 H6          7.5990   -0.7670   18.1980 H         1 <0>         0.0000
     26 H7          5.7680    3.3590   20.5380 H         1 <0>         0.0000
     27 H8          4.4980    3.6830   19.3490 H         1 <0>         0.0000
     28 H9          4.3820    2.2620   20.3340 H         1 <0>         0.0000
     29 H10         8.1960   -0.9710   23.0690 H         1 <0>         0.0000
     30 H11         7.2030    0.4020   23.3030 H         1 <0>         0.0000
     31 H12         6.1270    1.3130   21.2000 H         1 <0>         0.0000
     32 H13         8.8750    5.1510   23.5750 H         1 <0>         0.0000
     33 H14         7.1310    5.0550   21.9610 H         1 <0>         0.0000
     34 H15         8.2760    4.6340   20.6360 H         1 <0>         0.0000
     35 N3          9.6010    6.6340   22.3370 N.am      1 <0>         0.0000
     36 O3          7.9130    7.5740   21.0620 O.2       1 <0>         0.0000
     37 C15         9.3290    5.2710   22.5890 C.3       1 <0>         0.0000
     38 C16         8.1220    5.2250   21.5420 C.3       1 <0>         0.0000
     39 C17         8.5920    6.6230   21.4170 C.2       1 <0>         0.0000
     40 H16         9.5660    7.3400   23.0650 H         1 <0>         0.0000
@<TRIPOS>BOND
     1    5   24 1
     2    5   15 ar
     3    1    5 ar
     4    6   15 ar
     5    1   20 1
     6    1    7 ar
     7    6   25 1
     8    6    9 ar
     9    7    9 ar
    10    7   13 1
    11    9   16 1
    12   13   27 1
    13   13   28 1
    14   13   26 1
    15   12   17 2
    16   12   16 am
    17   16   31 1
    18   34   38 1
    19   36   39 2
    20   12   14 1
    21   38   39 1
    22   35   39 am
    23   33   38 1
    24   37   38 1
    25   35   37 1
    26   35   40 1
    27   10   18 1
    28   18   37 1
    29    4   10 ar
    30    2   10 ar
    31    2   21 1
    32    4   23 1
    33    4   11 ar
    34    2    8 ar
    35   32   37 1
    36    8   14 1
    37   14   29 1
    38   14   30 1
    39    3   11 ar
    40   11   19 1
    41    3    8 ar
    42    3   22 1
@<TRIPOS>MOLECULE
*****
   40    42     0     0     0
SMALL
NO_CHARGES

@<TRIPOS>ATOM
      1 C1          4.7090    0.9870   19.0610 C.ar      1 <0>         0.0000
      2 C2         11.8400    1.6910   22.7820 C.ar      1 <0>         0.0000
      3 C3         12.1620   -0.4130   21.5880 C.ar      1 <0>         0.0000
      4 C4         14.0390    1.1720   21.8990 C.ar      1 <0>         0.0000
      5 C5          5.3320    0.7960   17.7930 C.ar      1 <0>         0.0000
      6 C6          7.3890    0.7140   18.8720 C.ar      1 <0>         0.0000
      7 C7          5.4370    0.8650   20.2450 C.ar      1 <0>         0.0000
      8 C8         11.2390    0.4880   22.2730 C.ar      1 <0>         0.0000
      9 C9          6.8060    0.7180   20.1590 C.ar      1 <0>         0.0000
     10 C10        13.2160    2.0450   22.5170 C.ar      1 <0>         0.0000
     11 C11        13.5520   -0.0430   21.4530 C.ar      1 <0>         0.0000
     12 C12         8.8830    1.0040   21.4340 C.2       1 <0>         0.0000
     13 C13         4.7160    0.9680   21.5600 C.3       1 <0>         0.0000
     14 C14         9.7530    0.3070   22.4890 C.3       1 <0>         0.0000
     15 N1          6.6430    0.6390   17.7250 N.ar      1 <0>         0.0000
     16 N2          7.6620    0.5890   21.2850 N.am      1 <0>         0.0000
     17 O1          9.3310    1.8870   20.7440 O.2       1 <0>         0.0000
     18 O2         13.7750    3.3290   22.8510 O.3       1 <0>         0.0000
     19 Cl1        14.7770   -1.0600   20.7870 Cl        1 <0>         0.0000
     20 H1          3.6550    1.2360   19.0990 H         1 <0>         0.0000
     21 H2         11.2650    2.4840   23.2520 H         1 <0>         0.0000
     22 H3         11.7620   -1.3640   21.2570 H         1 <0>         0.0000
     23 H4         15.0390    1.5510   21.7390 H         1 <0>         0.0000
     24 H5          4.8360    0.8730   16.8300 H         1 <0>         0.0000
     25 H6          8.4380    0.4420   18.8600 H         1 <0>         0.0000
     26 H7          3.6620    1.2490   21.4270 H         1 <0>         0.0000
     27 H8          4.8120    0.0570   22.1490 H         1 <0>         0.0000
     28 H9          5.1120    1.8210   22.1110 H         1 <0>         0.0000
     29 H10         9.5540   -0.7630   22.5420 H         1 <0>         0.0000
     30 H11         9.5550    0.7770   23.4600 H         1 <0>         0.0000
     31 H12         7.3200   -0.0230   22.0210 H         1 <0>         0.0000
     32 H13        13.5690    6.2820   24.2060 H         1 <0>         0.0000
     33 H14        12.3320    4.1080   24.1900 H         1 <0>         0.0000
     34 H15        10.8990    5.1570   22.4030 H         1 <0>         0.0000
     35 H16        12.1640    4.4520   21.2120 H         1 <0>         0.0000
     36 N3         13.4690    5.6840   23.3760 N.am      1 <0>         0.0000
     37 O3         12.2800    7.2870   22.3720 O.2       1 <0>         0.0000
     38 C15        12.8710    4.3860   23.2850 C.3       1 <0>         0.0000
     39 C16        11.9400    4.9030   22.1820 C.3       1 <0>         0.0000
     40 C17        12.6690    6.1410   22.4410 C.2       1 <0>         0.0000
@<TRIPOS>BOND
     1    5   24 1
     2    5   15 ar
     3    6   15 ar
     4    1    5 ar
     5    6   25 1
     6    6    9 ar
     7    1   20 1
     8    1    7 ar
     9    7    9 ar
    10    9   16 1
    11    7   13 1
    12   12   17 2
    13   11   19 1
    14   35   39 1
    15    3   22 1
    16   12   16 am
    17   16   31 1
    18   13   26 1
    19   12   14 1
    20    3   11 ar
    21    4   11 ar
    22   13   28 1
    23   13   27 1
    24    3    8 ar
    25    4   23 1
    26    4   10 ar
    27   34   39 1
    28   39   40 1
    29   38   39 1
    30    8   14 1
    31    2    8 ar
    32   37   40 2
    33   36   40 am
    34   14   29 1
    35   14   30 1
    36    2   10 ar
    37   10   18 1
    38    2   21 1
    39   18   38 1
    40   36   38 1
    41   33   38 1
    42   32   36 1
@<TRIPOS>MOLECULE
*****
   40    42     0     0     0
SMALL
NO_CHARGES

@<TRIPOS>ATOM
      1 C1          4.7940    2.5270   19.1540 C.ar      1 <0>         0.0000
      2 C2         11.4360    1.8700   23.0060 C.ar      1 <0>         0.0000
      3 C3         11.8370   -0.0440   21.6630 C.ar      1 <0>         0.0000
      4 C4         13.7060    1.3660   22.2630 C.ar      1 <0>         0.0000
      5 C5          5.2740    2.2170   17.9060 C.ar      1 <0>         0.0000
      6 C6          6.9730    1.0300   18.8210 C.ar      1 <0>         0.0000
      7 C7          5.4660    2.1520   20.3180 C.ar      1 <0>         0.0000
      8 C8         10.8820    0.7270   22.4440 C.ar      1 <0>         0.0000
      9 C9          6.5590    1.3570   20.1710 C.ar      1 <0>         0.0000
     10 C10        12.8150    2.2700   22.8340 C.ar      1 <0>         0.0000
     11 C11        13.2090    0.2460   21.6510 C.ar      1 <0>         0.0000
     12 C12         8.5700    0.9930   21.4550 C.2       1 <0>         0.0000
     13 C13         4.8150    2.4080   21.6890 C.3       1 <0>         0.0000
     14 C14         9.4200    0.3550   22.5760 C.3       1 <0>         0.0000
     15 N1          6.3890    1.5030   17.6840 N.ar      1 <0>         0.0000
     16 N2          7.2440    0.7100   21.2290 N.am      1 <0>         0.0000
     17 O1          9.1100    1.8150   20.7280 O.2       1 <0>         0.0000
     18 O2         13.3510    3.3640   23.4280 O.3       1 <0>         0.0000
     19 Cl1        14.3570   -0.7460   20.7840 Cl        1 <0>         0.0000
     20 H1          3.9680    3.2350   19.1700 H         1 <0>         0.0000
     21 H2         10.7210    2.4040   23.6330 H         1 <0>         0.0000
     22 H3         11.4930   -0.9020   21.0920 H         1 <0>         0.0000
     23 H4         14.6910    1.8040   22.2390 H         1 <0>         0.0000
     24 H5          4.8560    2.6120   16.9870 H         1 <0>         0.0000
     25 H6          7.8690    0.4320   18.6920 H         1 <0>         0.0000
     26 H7          4.0760    1.6490   21.9600 H         1 <0>         0.0000
     27 H8          5.5340    2.4050   22.5050 H         1 <0>         0.0000
     28 H9          4.2750    3.3630   21.7750 H         1 <0>         0.0000
     29 H10         9.2060   -0.7040   22.7320 H         1 <0>         0.0000
     30 H11         8.9720    0.8360   23.4510 H         1 <0>         0.0000
     31 H12         6.7520    0.4640   22.0890 H         1 <0>         0.0000
     32 H13        11.7190    4.1090   24.4230 H         1 <0>         0.0000
     33 H14        12.0410    4.5480   21.4370 H         1 <0>         0.0000
     34 H15        10.5820    5.0070   22.4860 H         1 <0>         0.0000
     35 N3         13.0980    5.7010   23.7800 N.am      1 <0>         0.0000
     36 O3         11.9400    7.3030   22.5980 O.2       1 <0>         0.0000
     37 C15        12.4150    4.3760   23.6260 C.3       1 <0>         0.0000
     38 C16        11.6640    4.8860   22.4060 C.3       1 <0>         0.0000
     39 C17        12.3890    6.1900   22.7380 C.2       1 <0>         0.0000
     40 H16        13.1450    6.2970   24.6080 H         1 <0>         0.0000
@<TRIPOS>BOND
     1    5   24 1
     2    5   15 ar
     3    6   15 ar
     4    1    5 ar
     5    6   25 1
     6    6    9 ar
     7    1   20 1
     8    1    7 ar
     9    7    9 ar
    10    9   16 1
    11    7   13 1
    12   12   17 2
    13   11   19 1
    14    3   22 1
    15   12   16 am
    16   16   31 1
    17   33   38 1
    18   12   14 1
    19    3   11 ar
    20    4   11 ar
    21    3    8 ar
    22   13   28 1
    23   13   26 1
    24   13   27 1
    25    4   23 1
    26    4   10 ar
    27   34   38 1
    28   38   39 1
    29   37   38 1
    30    8   14 1
    31    2    8 ar
    32   14   29 1
    33   14   30 1
    34   36   39 2
    35   35   39 am
    36    2   10 ar
    37   10   18 1
    38    2   21 1
    39   18   37 1
    40   35   37 1
    41   32   37 1
    42   35   40 1
@<TRIPOS>MOLECULE
*****
   40    42     0     0     0
SMALL
NO_CHARGES

@<TRIPOS>ATOM
      1 C1          5.2360    1.7840   19.0720 C.ar      1 <0>         0.0000
      2 C2         11.7640    1.5990   24.2060 C.ar      1 <0>         0.0000
      3 C3         11.1890   -0.5560   23.1840 C.ar      1 <0>         0.0000
      4 C4         13.4880   -0.0860   23.6830 C.ar      1 <0>         0.0000
      5 C5          5.9470    1.0750   18.0670 C.ar      1 <0>         0.0000
      6 C6          7.7520    0.8460   19.5230 C.ar      1 <0>         0.0000
      7 C7          5.7400    1.8960   20.3670 C.ar      1 <0>         0.0000
      8 C8         10.7360    0.7190   23.6840 C.ar      1 <0>         0.0000
      9 C9          7.0280    1.4350   20.6240 C.ar      1 <0>         0.0000
     10 C10        13.1110    1.1590   24.3010 C.ar      1 <0>         0.0000
     11 C11        12.4920   -0.8730   23.0740 C.ar      1 <0>         0.0000
     12 C12         8.8780    1.5870   22.3390 C.2       1 <0>         0.0000
     13 C13         4.7840    2.6300   21.2830 C.3       1 <0>         0.0000
     14 C14         9.2930    1.1000   23.7180 C.3       1 <0>         0.0000
     15 N1          7.1940    0.6320   18.3140 N.ar      1 <0>         0.0000
     16 N2          7.5610    1.5330   21.9210 N.am      1 <0>         0.0000
     17 O1          9.6530    1.8330   21.5180 O.2       1 <0>         0.0000
     18 O2         14.1470    1.8580   24.9360 O.3       1 <0>         0.0000
     19 Cl1        13.0100   -2.1870   22.1960 Cl        1 <0>         0.0000
     20 H1          4.2340    2.1520   18.8730 H         1 <0>         0.0000
     21 H2         11.4610    2.5730   24.5820 H         1 <0>         0.0000
     22 H3         10.4950   -1.3120   22.8420 H         1 <0>         0.0000
     23 H4         14.5450   -0.3390   23.6700 H         1 <0>         0.0000
     24 H5          5.5010    1.0120   17.0850 H         1 <0>         0.0000
     25 H6          8.7350    0.4920   19.8050 H         1 <0>         0.0000
     26 H7          3.7850    2.2820   20.9940 H         1 <0>         0.0000
     27 H8          5.0370    2.2510   22.2700 H         1 <0>         0.0000
     28 H9          4.7920    3.7240   21.2470 H         1 <0>         0.0000
     29 H10         8.6740    0.2460   23.9960 H         1 <0>         0.0000
     30 H11         9.1080    1.8470   24.5000 H         1 <0>         0.0000
     31 H12         6.8780    1.3300   22.6600 H         1 <0>         0.0000
     32 H13        12.9740    3.3650   25.9050 H         1 <0>         0.0000
     33 H14        13.7240    3.8280   22.9930 H         1 <0>         0.0000
     34 H15        12.6550    4.8340   24.0160 H         1 <0>         0.0000
     35 N3         15.0030    4.0520   25.5710 N.am      1 <0>         0.0000
     36 O3         15.6630    5.4100   23.9170 O.2       1 <0>         0.0000
     37 C15        13.8100    3.2450   25.2160 C.3       1 <0>         0.0000
     38 C16        13.5530    4.2120   24.0010 C.3       1 <0>         0.0000
     39 C17        14.7630    4.8930   24.5210 C.2       1 <0>         0.0000
     40 H16        15.9460    3.7400   25.3450 H         1 <0>         0.0000
@<TRIPOS>BOND
     1    5   24 1
     2    5   15 ar
     3    1    5 ar
     4    6   15 ar
     5    1   20 1
     6    1    7 ar
     7    6   25 1
     8    6    9 ar
     9    7    9 ar
    10    7   13 1
    11    9   16 1
    12   13   26 1
    13   13   28 1
    14   13   27 1
    15   12   17 2
    16   12   16 am
    17   16   31 1
    18   11   19 1
    19   12   14 1
    20    3   22 1
    21   33   38 1
    22    3   11 ar
    23    4   11 ar
    24    3    8 ar
    25    4   23 1
    26    4   10 ar
    27    8   14 1
    28    2    8 ar
    29   14   29 1
    30   14   30 1
    31   36   39 2
    32   34   38 1
    33   38   39 1
    34   37   38 1
    35    2   10 ar
    36    2   21 1
    37   10   18 1
    38   35   39 am
    39   18   37 1
    40   35   37 1
    41   32   37 1
    42   35   40 1
@<TRIPOS>MOLECULE
*****
   40    42     0     0     0
SMALL
NO_CHARGES

@<TRIPOS>ATOM
      1 C1          5.6260    1.2740   19.8420 C.ar      1 <0>         0.0000
      2 C2         12.9970    2.2020   23.6490 C.ar      1 <0>         0.0000
      3 C3         12.8070   -0.0620   22.7190 C.ar      1 <0>         0.0000
      4 C4         14.9600    1.1010   22.9140 C.ar      1 <0>         0.0000
      5 C5          6.0710    0.5930   18.6900 C.ar      1 <0>         0.0000
      6 C6          7.9480   -0.0410   19.7840 C.ar      1 <0>         0.0000
      7 C7          6.3620    1.3770   20.9720 C.ar      1 <0>         0.0000
      8 C8         12.1930    1.0590   23.2830 C.ar      1 <0>         0.0000
      9 C9          7.5930    0.7060   20.9250 C.ar      1 <0>         0.0000
     10 C10        14.3690    2.2510   23.3810 C.ar      1 <0>         0.0000
     11 C11        14.1800   -0.0850   22.5670 C.ar      1 <0>         0.0000
     12 C12         9.8600    0.9150   22.0770 C.2       1 <0>         0.0000
     13 C13         5.8440    2.1240   22.1830 C.3       1 <0>         0.0000
     14 C14        10.6210    1.1630   23.4080 C.3       1 <0>         0.0000
     15 N1          7.2380   -0.0530   18.6950 N.ar      1 <0>         0.0000
     16 N2          8.4760    0.8760   22.0440 N.am      1 <0>         0.0000
     17 O1         10.4490    0.5790   21.0630 O.2       1 <0>         0.0000
     18 O2         15.2570    3.3310   23.4250 O.3       1 <0>         0.0000
     19 Cl1        14.9860   -1.4810   22.0580 Cl        1 <0>         0.0000
     20 H1          4.7550    1.9090   19.6970 H         1 <0>         0.0000
     21 H2         12.3980    3.0240   24.0260 H         1 <0>         0.0000
     22 H3         12.2430   -0.9070   22.3450 H         1 <0>         0.0000
     23 H4         16.0440    1.0650   22.9470 H         1 <0>         0.0000
     24 H5          5.4030    0.7380   17.8400 H         1 <0>         0.0000
     25 H6          8.9190   -0.5330   19.7310 H         1 <0>         0.0000
     26 H7          5.6890    1.4980   23.0680 H         1 <0>         0.0000
     27 H8          6.5480    2.8980   22.5110 H         1 <0>         0.0000
     28 H9          4.9500    2.6790   21.9130 H         1 <0>         0.0000
     29 H10        10.2170    0.3980   24.0660 H         1 <0>         0.0000
     30 H11        10.2850    2.1470   23.7510 H         1 <0>         0.0000
     31 H12         8.1320    1.5280   22.7540 H         1 <0>         0.0000
     32 H13        14.1620    4.9120   24.2260 H         1 <0>         0.0000
     33 H14        13.0800    5.5860   22.1410 H         1 <0>         0.0000
     34 H15        14.0150    4.2480   21.2000 H         1 <0>         0.0000
     35 N3         15.7890    5.5320   23.0220 N.am      1 <0>         0.0000
     36 O3         15.3810    6.9420   21.2330 O.2       1 <0>         0.0000
     37 C15        14.7530    4.6070   23.3610 C.3       1 <0>         0.0000
     38 C16        14.0040    5.0280   21.9750 C.3       1 <0>         0.0000
     39 C17        15.2350    5.9160   21.8430 C.2       1 <0>         0.0000
     40 H16        16.4640    6.0260   23.6140 H         1 <0>         0.0000
@<TRIPOS>BOND
     1    5   24 1
     2    5   15 ar
     3    1    5 ar
     4    6   15 ar
     5    1   20 1
     6    6   25 1
     7    6    9 ar
     8    1    7 ar
     9    7    9 ar
    10    9   16 1
    11    7   13 1
    12   12   17 2
    13   34   38 1
    14   36   39 2
    15   38   39 1
    16   35   39 am
    17   13   28 1
    18   33   38 1
    19   37   38 1
    20   12   16 am
    21   16   31 1
    22   11   19 1
    23   12   14 1
    24   13   27 1
    25   13   26 1
    26    3   22 1
    27    3   11 ar
    28    4   11 ar
    29    3    8 ar
    30    4   23 1
    31    4   10 ar
    32   35   37 1
    33   35   40 1
    34    8   14 1
    35    2    8 ar
    36   18   37 1
    37   32   37 1
    38   10   18 1
    39    2   10 ar
    40   14   30 1
    41   14   29 1
    42    2   21 1
@<TRIPOS>MOLECULE
*****
   40    42     0     0     0
SMALL
NO_CHARGES

@<TRIPOS>ATOM
      1 C1          5.1890    1.0250   19.4860 C.ar      1 <0>         0.0000
      2 C2         12.1840    0.7900   23.3460 C.ar      1 <0>         0.0000
      3 C3         12.2590   -1.3240   22.2740 C.ar      1 <0>         0.0000
      4 C4         14.2680   -0.1070   22.6120 C.ar      1 <0>         0.0000
      5 C5          5.6890    0.6120   18.2770 C.ar      1 <0>         0.0000
      6 C6          7.5700   -0.4050   19.3210 C.ar      1 <0>         0.0000
      7 C7          5.7870    0.6440   20.6830 C.ar      1 <0>         0.0000
      8 C8         11.5010   -0.4030   22.9330 C.ar      1 <0>         0.0000
      9 C9          7.0600   -0.0760   20.6280 C.ar      1 <0>         0.0000
     10 C10        13.5660    0.9300   23.2090 C.ar      1 <0>         0.0000
     11 C11        13.6350   -1.2260   22.1020 C.ar      1 <0>         0.0000
     12 C12         9.0930    0.0410   21.8930 C.2       1 <0>         0.0000
     13 C13         5.2070    1.1660   22.0670 C.3       1 <0>         0.0000
     14 C14         9.9530   -0.5050   23.0220 C.3       1 <0>         0.0000
     15 N1          6.8840   -0.1150   18.2010 N.ar      1 <0>         0.0000
     16 N2          7.7630   -0.3110   21.7770 N.am      1 <0>         0.0000
     17 O1          9.5120    0.8700   21.0950 O.2       1 <0>         0.0000
     18 O2         14.2640    2.0110   23.6820 O.3       1 <0>         0.0000
     19 Cl1        14.5470   -2.4600   21.2640 Cl        1 <0>         0.0000
     20 H1          4.2790    1.6210   19.4550 H         1 <0>         0.0000
     21 H2         11.5650    1.5110   23.8600 H         1 <0>         0.0000
     22 H3         11.8370   -2.2610   21.9180 H         1 <0>         0.0000
     23 H4         15.3480   -0.0240   22.4780 H         1 <0>         0.0000
     24 H5          5.2440    0.9290   17.3400 H         1 <0>         0.0000
     25 H6          8.4590   -0.9980   19.1710 H         1 <0>         0.0000
     26 H7          4.1530    0.8500   22.0760 H         1 <0>         0.0000
     27 H8          5.7760    0.7230   22.8920 H         1 <0>         0.0000
     28 H9          5.3410    2.2460   22.0900 H         1 <0>         0.0000
     29 H10         9.6930   -1.5600   23.1310 H         1 <0>         0.0000
     30 H11         9.7630   -0.0040   23.9650 H         1 <0>         0.0000
     31 H12         7.2990   -0.5860   22.6430 H         1 <0>         0.0000
     32 C15        13.6430    3.2540   23.9730 C.3       1 <0>         0.0000
     33 C16        12.8390    4.0060   22.7680 C.3       1 <0>         0.0000
     34 C17        14.0520    4.8220   22.8940 C.2       1 <0>         0.0000
     35 H13        15.6670    4.0480   23.8600 H         1 <0>         0.0000
     36 H14        13.1730    3.2560   24.9590 H         1 <0>         0.0000
     37 H15        12.6960    3.4060   21.8540 H         1 <0>         0.0000
     38 H16        11.9280    4.4780   23.1300 H         1 <0>         0.0000
     39 N3         14.6730    4.2900   23.9070 N.am      1 <0>         0.0000
     40 O3         14.6200    5.4650   22.0410 O.2       1 <0>         0.0000
@<TRIPOS>BOND
     1    5   24 1
     2    5   15 ar
     3    6   15 ar
     4    1    5 ar
     5    6   25 1
     6    6    9 ar
     7    1   20 1
     8    1    7 ar
     9    7    9 ar
    10    9   16 1
    11    7   13 1
    12   12   17 2
    13   11   19 1
    14   12   16 am
    15   16   31 1
    16   33   37 1
    17   12   14 1
    18    3   22 1
    19   34   40 2
    20   13   26 1
    21   13   28 1
    22   13   27 1
    23    3   11 ar
    24    4   11 ar
    25    3    8 ar
    26    4   23 1
    27    4   10 ar
    28   33   34 1
    29   33   38 1
    30   32   33 1
    31   34   39 am
    32    8   14 1
    33    2    8 ar
    34   14   29 1
    35   14   30 1
    36    2   10 ar
    37   10   18 1
    38    2   21 1
    39   18   32 1
    40   35   39 1
    41   32   39 1
    42   32   36 1
@<TRIPOS>MOLECULE
*****
   40    42     0     0     0
SMALL
NO_CHARGES

@<TRIPOS>ATOM
      1 C1          4.7320    1.2610   19.9380 C.ar      1 <0>         0.0000
      2 C2         11.1660    0.6110   23.7830 C.ar      1 <0>         0.0000
      3 C3         11.9020   -1.4750   22.8140 C.ar      1 <0>         0.0000
      4 C4         13.4970    0.0770   23.7540 C.ar      1 <0>         0.0000
      5 C5          5.2360    1.3120   18.6310 C.ar      1 <0>         0.0000
      6 C6          7.0890    0.1310   19.2820 C.ar      1 <0>         0.0000
      7 C7          5.3880    0.5810   20.9720 C.ar      1 <0>         0.0000
      8 C8         10.8520   -0.6130   23.2310 C.ar      1 <0>         0.0000
      9 C9          6.6590   -0.0060   20.6150 C.ar      1 <0>         0.0000
     10 C10        12.4650    0.9670   24.0580 C.ar      1 <0>         0.0000
     11 C11        13.2660   -1.1070   23.0190 C.ar      1 <0>         0.0000
     12 C12         8.7630   -0.3030   21.8930 C.2       1 <0>         0.0000
     13 C13         4.8910    0.4740   22.3930 C.3       1 <0>         0.0000
     14 C14         9.4020   -0.9980   23.0980 C.3       1 <0>         0.0000
     15 N1          6.3990    0.6980   18.2870 N.ar      1 <0>         0.0000
     16 N2          7.4440   -0.6560   21.6060 N.am      1 <0>         0.0000
     17 O1          9.3940    0.4390   21.1460 O.2       1 <0>         0.0000
     18 O2         12.7710    2.1670   24.8020 O.3       1 <0>         0.0000
     19 Cl1        14.5500   -2.1990   22.8000 Cl        1 <0>         0.0000
     20 H1          3.7510    1.7100   20.1140 H         1 <0>         0.0000
     21 H2         10.3200    1.2590   23.9840 H         1 <0>         0.0000
     22 H3         11.8070   -2.4790   22.4070 H         1 <0>         0.0000
     23 H4         14.4600    0.4010   24.1420 H         1 <0>         0.0000
     24 H5          4.7730    1.9080   17.8450 H         1 <0>         0.0000
     25 H6          8.0700   -0.2700   19.0720 H         1 <0>         0.0000
     26 H7          5.3210    1.2020   23.0910 H         1 <0>         0.0000
     27 H8          3.8440    0.7810   22.2490 H         1 <0>         0.0000
     28 H9          4.9610   -0.5010   22.8660 H         1 <0>         0.0000
     29 H10         9.2910   -2.0580   22.8650 H         1 <0>         0.0000
     30 H11         8.9440   -0.6760   24.0360 H         1 <0>         0.0000
     31 H12         7.0010   -1.2360   22.3210 H         1 <0>         0.0000
     32 C15        13.0250    3.2340   23.8810 C.3       1 <0>         0.0000
     33 C16        14.4200    3.1920   23.0730 C.3       1 <0>         0.0000
     34 C17        14.6630    4.3950   23.9670 C.2       1 <0>         0.0000
     35 H13        13.3940    4.5170   25.5310 H         1 <0>         0.0000
     36 H14        12.1640    3.3190   23.2220 H         1 <0>         0.0000
     37 H15        15.1320    2.3750   23.2550 H         1 <0>         0.0000
     38 H16        14.2960    3.3860   22.0060 H         1 <0>         0.0000
     39 N3         13.4360    4.4430   24.5140 N.am      1 <0>         0.0000
     40 O3         15.6690    4.7880   24.4510 O.2       1 <0>         0.0000
@<TRIPOS>BOND
     1    5   24 1
     2    5   15 ar
     3    6   15 ar
     4    1    5 ar
     5    6   25 1
     6    6    9 ar
     7    1   20 1
     8    1    7 ar
     9    7    9 ar
    10    9   16 1
    11    7   13 1
    12   12   17 2
    13   12   16 am
    14   16   31 1
    15   12   14 1
    16   33   38 1
    17   13   27 1
    18   13   28 1
    19   13   26 1
    20    3   22 1
    21   11   19 1
    22    3   11 ar
    23    3    8 ar
    24   14   29 1
    25    4   11 ar
    26   33   37 1
    27   32   33 1
    28   33   34 1
    29    8   14 1
    30   14   30 1
    31   32   36 1
    32    2    8 ar
    33    4   10 ar
    34    4   23 1
    35    2   21 1
    36    2   10 ar
    37   32   39 1
    38   18   32 1
    39   34   40 2
    40   34   39 am
    41   10   18 1
    42   35   39 1
@<TRIPOS>MOLECULE
*****
   40    42     0     0     0
SMALL
NO_CHARGES

@<TRIPOS>ATOM
      1 C1          3.8500    2.3230   20.3010 C.ar      1 <0>         0.0000
      2 C2         11.2480    3.3380   23.2970 C.ar      1 <0>         0.0000
      3 C3         11.2350    0.9410   23.0460 C.ar      1 <0>         0.0000
      4 C4         13.3130    2.1200   23.1720 C.ar      1 <0>         0.0000
      5 C5          3.9610    1.4000   19.2030 C.ar      1 <0>         0.0000
      6 C6          6.1130    0.8910   19.9920 C.ar      1 <0>         0.0000
      7 C7          4.8990    2.6900   21.1500 C.ar      1 <0>         0.0000
      8 C8         10.5520    2.1400   23.1740 C.ar      1 <0>         0.0000
      9 C9          6.0530    1.9470   20.9830 C.ar      1 <0>         0.0000
     10 C10        12.6780    3.3240   23.4170 C.ar      1 <0>         0.0000
     11 C11        12.5950    0.9050   22.9040 C.ar      1 <0>         0.0000
     12 C12         8.3340    1.7040   22.0570 C.2       1 <0>         0.0000
     13 C13         4.7480    3.6800   22.2450 C.3       1 <0>         0.0000
     14 C14         9.0740    2.0990   23.3870 C.3       1 <0>         0.0000
     15 N1          5.0990    0.6730   19.0960 N.ar      1 <0>         0.0000
     16 N2          7.0670    2.2330   21.9230 N.am      1 <0>         0.0000
     17 O1          8.7950    0.9690   21.1840 O.2       1 <0>         0.0000
     18 O2         13.4670    4.3890   23.7560 O.3       1 <0>         0.0000
     19 Cl1        13.5400   -0.5720   22.5990 Cl        1 <0>         0.0000
     20 H1          2.9440    2.9130   20.4030 H         1 <0>         0.0000
     21 H2         10.6890    4.2600   23.4550 H         1 <0>         0.0000
     22 H3         10.7120   -0.0010   22.9290 H         1 <0>         0.0000
     23 H4         14.3900    2.0760   23.1610 H         1 <0>         0.0000
     24 H5          3.1620    1.3010   18.4740 H         1 <0>         0.0000
     25 H6          6.9660    0.2180   19.9080 H         1 <0>         0.0000
     26 H7          4.2840    4.6460   21.9920 H         1 <0>         0.0000
     27 H8          4.0520    3.2630   22.9810 H         1 <0>         0.0000
     28 H9          5.5830    3.8800   22.9290 H         1 <0>         0.0000
     29 H10         8.7670    1.3190   24.0910 H         1 <0>         0.0000
     30 H11         8.7560    3.0380   23.8400 H         1 <0>         0.0000
     31 H12         6.9470    3.0540   22.5090 H         1 <0>         0.0000
     32 H13        12.9980    6.8220   22.7140 H         1 <0>         0.0000
     33 H14        11.5290    7.2780   23.8480 H         1 <0>         0.0000
     34 N3         13.7170    6.1420   25.3610 N.am      1 <0>         0.0000
     35 O3         14.2260    8.2100   24.5510 O.2       1 <0>         0.0000
     36 C15        12.8260    5.4070   24.5070 C.3       1 <0>         0.0000
     37 C16        12.4830    6.7670   23.6740 C.3       1 <0>         0.0000
     38 C17        13.4730    7.2570   24.6950 C.2       1 <0>         0.0000
     39 H15        14.6710    5.7870   25.4840 H         1 <0>         0.0000
     40 H16        11.9590    5.0140   25.0570 H         1 <0>         0.0000
@<TRIPOS>BOND
     1    5   24 1
     2    5   15 ar
     3    6   15 ar
     4    1    5 ar
     5    6   25 1
     6    6    9 ar
     7    1   20 1
     8    1    7 ar
     9    7    9 ar
    10    9   16 1
    11    7   13 1
    12   12   17 2
    13   12   16 am
    14   16   31 1
    15   13   26 1
    16   12   14 1
    17   13   28 1
    18   13   27 1
    19   11   19 1
    20   32   37 1
    21    3   11 ar
    22    4   11 ar
    23    3   22 1
    24    3    8 ar
    25    4   23 1
    26    4   10 ar
    27    2    8 ar
    28    8   14 1
    29    2   10 ar
    30    2   21 1
    31   14   30 1
    32   14   29 1
    33   10   18 1
    34   33   37 1
    35   36   37 1
    36   37   38 1
    37   18   36 1
    38   36   40 1
    39   34   36 1
    40   35   38 2
    41   34   38 am
    42   34   39 1
@<TRIPOS>MOLECULE
*****
   40    42     0     0     0
SMALL
NO_CHARGES

@<TRIPOS>ATOM
      1 C1          6.0720    2.3440   17.9530 C.ar      1 <0>         0.0000
      2 C2         12.1540    1.1330   23.0620 C.ar      1 <0>         0.0000
      3 C3         12.2080   -0.6950   21.5630 C.ar      1 <0>         0.0000
      4 C4         14.2190    0.0080   22.7780 C.ar      1 <0>         0.0000
      5 C5          6.6790    2.0400   16.7870 C.ar      1 <0>         0.0000
      6 C6          8.1900    0.6120   17.8060 C.ar      1 <0>         0.0000
      7 C7          6.4470    1.7220   19.1720 C.ar      1 <0>         0.0000
      8 C8         11.4590    0.1870   22.2840 C.ar      1 <0>         0.0000
      9 C9          7.5850    0.8230   19.1260 C.ar      1 <0>         0.0000
     10 C10        13.5450    1.0820   23.2920 C.ar      1 <0>         0.0000
     11 C11        13.5680   -0.8840   21.9240 C.ar      1 <0>         0.0000
     12 C12         9.5390    0.5900   20.6490 C.2       1 <0>         0.0000
     13 C13         5.6620    1.9910   20.4530 C.3       1 <0>         0.0000
     14 C14         9.9760    0.3400   22.1040 C.3       1 <0>         0.0000
     15 N1          7.7090    1.1670   16.6610 N.ar      1 <0>         0.0000
     16 N2          8.2020    0.3070   20.2900 N.am      1 <0>         0.0000
     17 O1         10.3710    0.9130   19.7750 O.2       1 <0>         0.0000
     18 O2         14.2880    1.9630   24.1080 O.3       1 <0>         0.0000
     19 Cl1        14.4800   -2.1950   21.1710 Cl        1 <0>         0.0000
     20 H1          5.1940    2.9770   17.9440 H         1 <0>         0.0000
     21 H2         11.5460    1.9600   23.4200 H         1 <0>         0.0000
     22 H3         11.8410   -1.4260   20.8550 H         1 <0>         0.0000
     23 H4         15.2760   -0.2020   22.9010 H         1 <0>         0.0000
     24 H5          6.3600    2.5580   15.8820 H         1 <0>         0.0000
     25 H6          9.0890    0.0090   17.8060 H         1 <0>         0.0000
     26 H7          5.5530    1.1450   21.1330 H         1 <0>         0.0000
     27 H8          6.2450    2.7610   20.9730 H         1 <0>         0.0000
     28 H9          4.7190    2.4820   20.1950 H         1 <0>         0.0000
     29 H10         9.5560   -0.6050   22.4700 H         1 <0>         0.0000
     30 H11         9.6080    1.1320   22.7620 H         1 <0>         0.0000
     31 H12         7.5570    0.2350   21.0820 H         1 <0>         0.0000
     32 H13        16.1470    3.7070   24.0740 H         1 <0>         0.0000
     33 H14        13.2390    3.7820   24.4130 H         1 <0>         0.0000
     34 H15        13.1610    4.4990   22.0370 H         1 <0>         0.0000
     35 H16        14.2040    2.9990   21.6140 H         1 <0>         0.0000
     36 N3         15.2810    4.2480   23.9540 N.am      1 <0>         0.0000
     37 O3         16.1000    4.7950   21.8430 O.2       1 <0>         0.0000
     38 C15        14.0850    3.3830   23.8320 C.3       1 <0>         0.0000
     39 C16        13.9490    3.7920   22.3200 C.3       1 <0>         0.0000
     40 C17        15.2260    4.5340   22.6600 C.2       1 <0>         0.0000
@<TRIPOS>BOND
     1    5   24 1
     2    5   15 ar
     3    6   15 ar
     4    1    5 ar
     5    6   25 1
     6    6    9 ar
     7    1   20 1
     8    1    7 ar
     9    7    9 ar
    10    9   16 1
    11    7   13 1
    12   12   17 2
    13   13   28 1
    14   12   16 am
    15   16   31 1
    16   13   27 1
    17   13   26 1
    18   12   14 1
    19    3   22 1
    20   11   19 1
    21    3   11 ar
    22    3    8 ar
    23   35   39 1
    24   37   40 2
    25    4   11 ar
    26   34   39 1
    27    8   14 1
    28   14   29 1
    29   14   30 1
    30    2    8 ar
    31   39   40 1
    32   38   39 1
    33   36   40 am
    34    4   23 1
    35    4   10 ar
    36    2   10 ar
    37    2   21 1
    38   10   18 1
    39   36   38 1
    40   18   38 1
    41   33   38 1
    42   32   36 1
@<TRIPOS>MOLECULE
*****
   40    42     0     0     0
SMALL
NO_CHARGES

@<TRIPOS>ATOM
      1 C1          5.4200    0.0320   20.6700 C.ar      1 <0>         0.0000
      2 C2         13.1110    1.3760   22.6690 C.ar      1 <0>         0.0000
      3 C3         13.0690   -0.7660   21.5940 C.ar      1 <0>         0.0000
      4 C4         15.1920    0.4490   21.7540 C.ar      1 <0>         0.0000
      5 C5          5.6140    0.3110   19.3340 C.ar      1 <0>         0.0000
      6 C6          7.8980    0.2930   19.5860 C.ar      1 <0>         0.0000
      7 C7          6.4520   -0.2000   21.5390 C.ar      1 <0>         0.0000
      8 C8         12.4160    0.2520   22.3220 C.ar      1 <0>         0.0000
      9 C9          7.7490   -0.0300   20.9670 C.ar      1 <0>         0.0000
     10 C10        14.5270    1.5020   22.3940 C.ar      1 <0>         0.0000
     11 C11        14.4320   -0.6630   21.3400 C.ar      1 <0>         0.0000
     12 C12        10.1150    0.3910   21.6140 C.2       1 <0>         0.0000
     13 C13         6.1930   -0.5390   22.9580 C.3       1 <0>         0.0000
     14 C14        11.0440    0.0710   22.7450 C.3       1 <0>         0.0000
     15 N1          6.8380    0.4460   18.8090 N.ar      1 <0>         0.0000
     16 N2          8.9060   -0.2410   21.7500 N.am      1 <0>         0.0000
     17 O1         10.4050    1.2250   20.8330 O.2       1 <0>         0.0000
     18 O2         15.2860    2.6340   22.6410 O.3       1 <0>         0.0000
     19 Cl1        15.2260   -2.0420   20.3950 Cl        1 <0>         0.0000
     20 H1          4.3990   -0.0720   21.0220 H         1 <0>         0.0000
     21 H2         12.5520    2.0760   23.2780 H         1 <0>         0.0000
     22 H3         12.5120   -1.6650   21.3740 H         1 <0>         0.0000
     23 H4         16.2570    0.5080   21.5790 H         1 <0>         0.0000
     24 H5          4.7670    0.6060   18.7280 H         1 <0>         0.0000
     25 H6          8.8980    0.3550   19.1810 H         1 <0>         0.0000
     26 H7          6.9580   -0.0760   23.5780 H         1 <0>         0.0000
     27 H8          5.1530   -0.2800   23.1740 H         1 <0>         0.0000
     28 H9          6.2950   -1.5970   23.2290 H         1 <0>         0.0000
     29 H10        10.8460   -0.8660   23.2780 H         1 <0>         0.0000
     30 H11        10.8260    0.8780   23.4550 H         1 <0>         0.0000
     31 H12         8.8120   -0.8240   22.5770 H         1 <0>         0.0000
     32 H13        13.4260    3.6420   20.9770 H         1 <0>         0.0000
     33 H14        12.5440    4.5320   22.2290 H         1 <0>         0.0000
     34 N3         15.3140    5.1140   22.8320 N.am      1 <0>         0.0000
     35 O3         14.2160    6.5710   21.4810 O.2       1 <0>         0.0000
     36 C15        14.5540    3.8560   22.9960 C.3       1 <0>         0.0000
     37 C16        13.5450    4.2570   21.8710 C.3       1 <0>         0.0000
     38 C17        14.4980    5.4530   21.8390 C.2       1 <0>         0.0000
     39 H15        15.3650    5.7590   23.6260 H         1 <0>         0.0000
     40 H16        14.0910    3.7560   23.9780 H         1 <0>         0.0000
@<TRIPOS>BOND
     1    5   24 1
     2    5   15 ar
     3    6   15 ar
     4    6   25 1
     5    1    5 ar
     6    6    9 ar
     7   11   19 1
     8    1   20 1
     9    1    7 ar
    10   12   17 2
    11    7    9 ar
    12    9   16 1
    13   32   37 1
    14    3   11 ar
    15    4   11 ar
    16    3   22 1
    17   35   38 2
    18    7   13 1
    19    4   23 1
    20    3    8 ar
    21   12   16 am
    22   12   14 1
    23   16   31 1
    24    4   10 ar
    25   37   38 1
    26   34   38 am
    27   33   37 1
    28   36   37 1
    29    2    8 ar
    30    8   14 1
    31   10   18 1
    32    2   10 ar
    33   18   36 1
    34    2   21 1
    35   14   29 1
    36   14   30 1
    37   34   36 1
    38   34   39 1
    39   13   27 1
    40   13   28 1
    41   13   26 1
    42   36   40 1
@<TRIPOS>MOLECULE
*****
   40    42     0     0     0
SMALL
NO_CHARGES

@<TRIPOS>ATOM
      1 C1          5.7910    1.3960   20.0350 C.ar      1 <0>         0.0000
      2 C2         13.1930    1.5850   23.1470 C.ar      1 <0>         0.0000
      3 C3         13.0430   -0.6190   22.3740 C.ar      1 <0>         0.0000
      4 C4         15.1280    0.5560   22.1810 C.ar      1 <0>         0.0000
      5 C5          6.1800    0.7950   18.7890 C.ar      1 <0>         0.0000
      6 C6          8.0620    0.0590   19.9600 C.ar      1 <0>         0.0000
      7 C7          6.5230    1.3650   21.2070 C.ar      1 <0>         0.0000
      8 C8         12.4510    0.4410   23.0060 C.ar      1 <0>         0.0000
      9 C9          7.8180    0.7540   21.1240 C.ar      1 <0>         0.0000
     10 C10        14.5710    1.6710   22.7290 C.ar      1 <0>         0.0000
     11 C11        14.3950   -0.5790   21.9600 C.ar      1 <0>         0.0000
     12 C12        10.0190    0.6480   22.1730 C.2       1 <0>         0.0000
     13 C13         5.9970    1.9250   22.4860 C.3       1 <0>         0.0000
     14 C14        10.9110    0.3970   23.3880 C.3       1 <0>         0.0000
     15 N1          7.3190    0.0750   18.8030 N.ar      1 <0>         0.0000
     16 N2          8.6500    0.6090   22.2780 N.am      1 <0>         0.0000
     17 O1         10.4740    1.0820   21.0850 O.2       1 <0>         0.0000
     18 O2         15.3310    2.8350   22.7420 O.3       1 <0>         0.0000
     19 Cl1        15.0860   -1.8720   21.0380 Cl        1 <0>         0.0000
     20 H1          4.8300    1.8940   19.9930 H         1 <0>         0.0000
     21 H2         12.6450    2.4020   23.5900 H         1 <0>         0.0000
     22 H3         12.4020   -1.4880   22.2390 H         1 <0>         0.0000
     23 H4         16.1310    0.5330   21.7810 H         1 <0>         0.0000
     24 H5          5.4850    0.9830   17.9800 H         1 <0>         0.0000
     25 H6          8.9110   -0.6150   19.9120 H         1 <0>         0.0000
     26 H7          4.9890    2.3630   22.4940 H         1 <0>         0.0000
     27 H8          6.1230    1.2300   23.3190 H         1 <0>         0.0000
     28 H9          6.5600    2.8450   22.6590 H         1 <0>         0.0000
     29 H10        10.6930   -0.5830   23.8230 H         1 <0>         0.0000
     30 H11        10.6810    1.0970   24.1980 H         1 <0>         0.0000
     31 H12         8.2970    0.5750   23.2260 H         1 <0>         0.0000
     32 N3         15.6150    5.2350   23.0450 N.am      1 <0>         0.0000
     33 O3         14.7530    7.0630   22.0410 O.2       1 <0>         0.0000
     34 C15        14.7610    4.0530   23.0390 C.3       1 <0>         0.0000
     35 C16        13.9180    4.7240   21.8870 C.3       1 <0>         0.0000
     36 C17        14.8400    5.8530   22.1470 C.2       1 <0>         0.0000
     37 H13        15.9210    5.6620   23.9130 H         1 <0>         0.0000
     38 H14        14.2510    4.0590   24.0150 H         1 <0>         0.0000
     39 H15        14.1260    4.1670   20.9710 H         1 <0>         0.0000
     40 H16        12.8930    4.8460   22.2430 H         1 <0>         0.0000
@<TRIPOS>BOND
     1    5   24 1
     2    5   15 ar
     3    1    5 ar
     4    6   15 ar
     5    6   25 1
     6    6    9 ar
     7    1   20 1
     8    1    7 ar
     9   35   39 1
    10   11   19 1
    11   12   17 2
    12    7    9 ar
    13    9   16 1
    14    7   13 1
    15    4   23 1
    16   35   36 1
    17   35   40 1
    18   34   35 1
    19    4   11 ar
    20    3   11 ar
    21   33   36 2
    22   32   36 am
    23   12   16 am
    24   12   14 1
    25    4   10 ar
    26    3   22 1
    27   16   31 1
    28    3    8 ar
    29   13   26 1
    30   13   28 1
    31   13   27 1
    32   10   18 1
    33    2   10 ar
    34   18   34 1
    35    2    8 ar
    36    8   14 1
    37   32   34 1
    38   34   38 1
    39   32   37 1
    40    2   21 1
    41   14   29 1
    42   14   30 1
@<TRIPOS>MOLECULE
*****
   40    42     0     0     0
SMALL
NO_CHARGES

@<TRIPOS>ATOM
      1 C1          5.0900    1.2740   19.2220 C.ar      1 <0>         0.0000
      2 C2         11.7000    1.9080   23.4770 C.ar      1 <0>         0.0000
      3 C3         12.0900   -0.2390   22.3830 C.ar      1 <0>         0.0000
      4 C4         13.9720    1.2280   22.8650 C.ar      1 <0>         0.0000
      5 C5          5.7870    1.2050   17.9940 C.ar      1 <0>         0.0000
      6 C6          7.6760    0.4200   18.9990 C.ar      1 <0>         0.0000
      7 C7          5.7340    0.9060   20.4110 C.ar      1 <0>         0.0000
      8 C8         11.2150    0.6580   23.0680 C.ar      1 <0>         0.0000
      9 C9          7.0870    0.4740   20.2350 C.ar      1 <0>         0.0000
     10 C10        13.1330    2.1550   23.4870 C.ar      1 <0>         0.0000
     11 C11        13.4530    0.0220   22.3320 C.ar      1 <0>         0.0000
     12 C12         8.9820    0.7440   21.7900 C.2       1 <0>         0.0000
     13 C13         5.0640    0.9060   21.7360 C.3       1 <0>         0.0000
     14 C14         9.7420    0.3400   23.0460 C.3       1 <0>         0.0000
     15 N1          7.0620    0.8070   17.8550 N.ar      1 <0>         0.0000
     16 N2          7.8160    0.0790   21.3960 N.am      1 <0>         0.0000
     17 O1          9.4980    1.6010   21.0700 O.2       1 <0>         0.0000
     18 O2         13.6180    3.2500   24.1460 O.3       1 <0>         0.0000
     19 Cl1        14.5990   -1.1480   21.7240 Cl        1 <0>         0.0000
     20 H1          4.0450    1.5790   19.2460 H         1 <0>         0.0000
     21 H2         11.0800    2.6540   23.9830 H         1 <0>         0.0000
     22 H3         11.7130   -1.1470   21.9340 H         1 <0>         0.0000
     23 H4         15.0190    1.4770   22.7550 H         1 <0>         0.0000
     24 H5          5.2680    1.3970   17.0570 H         1 <0>         0.0000
     25 H6          8.6890    0.0440   18.9860 H         1 <0>         0.0000
     26 H7          4.8470   -0.0920   22.1170 H         1 <0>         0.0000
     27 H8          5.6120    1.4980   22.4720 H         1 <0>         0.0000
     28 H9          4.1380    1.4540   21.5580 H         1 <0>         0.0000
     29 H10         9.6110   -0.7260   23.2510 H         1 <0>         0.0000
     30 H11         9.3290    0.9320   23.8800 H         1 <0>         0.0000
     31 H12         7.4570   -0.6460   22.0140 H         1 <0>         0.0000
     32 C15        12.7880    4.4360   24.2100 C.3       1 <0>         0.0000
     33 C16        12.3460    5.1710   22.9230 C.3       1 <0>         0.0000
     34 C17        13.1180    6.2910   23.5240 C.2       1 <0>         0.0000
     35 H13        14.5460    5.7200   24.7410 H         1 <0>         0.0000
     36 H14        11.9560    4.2770   24.8950 H         1 <0>         0.0000
     37 H15        12.7250    4.7260   21.9900 H         1 <0>         0.0000
     38 H16        11.2840    5.4040   22.8020 H         1 <0>         0.0000
     39 N3         13.5300    5.6710   24.6180 N.am      1 <0>         0.0000
     40 O3         13.6350    7.2230   22.9750 O.2       1 <0>         0.0000
@<TRIPOS>BOND
     1    5   24 1
     2    5   15 ar
     3    6   15 ar
     4    1    5 ar
     5    6   25 1
     6    6    9 ar
     7    1   20 1
     8    1    7 ar
     9    7    9 ar
    10    9   16 1
    11    7   13 1
    12   12   17 2
    13   12   16 am
    14   16   31 1
    15   13   28 1
    16   11   19 1
    17   13   26 1
    18   13   27 1
    19   12   14 1
    20    3   22 1
    21   33   37 1
    22    3   11 ar
    23    4   11 ar
    24    3    8 ar
    25    4   23 1
    26   33   38 1
    27    4   10 ar
    28   33   34 1
    29   32   33 1
    30   34   40 2
    31    8   14 1
    32   14   29 1
    33   14   30 1
    34    2    8 ar
    35    2   10 ar
    36    2   21 1
    37   10   18 1
    38   34   39 am
    39   18   32 1
    40   32   39 1
    41   32   36 1
    42   35   39 1
@<TRIPOS>MOLECULE
*****
   40    42     0     0     0
SMALL
NO_CHARGES

@<TRIPOS>ATOM
      1 C1          5.6360    1.4810   19.7070 C.ar      1 <0>         0.0000
      2 C2         12.7770    1.1400   23.1360 C.ar      1 <0>         0.0000
      3 C3         13.0050   -0.8380   21.7670 C.ar      1 <0>         0.0000
      4 C4         14.9650    0.4160   22.3740 C.ar      1 <0>         0.0000
      5 C5          6.0580    1.3650   18.4010 C.ar      1 <0>         0.0000
      6 C6          8.1940    0.8180   19.2050 C.ar      1 <0>         0.0000
      7 C7          6.4430    1.2280   20.7930 C.ar      1 <0>         0.0000
      8 C8         12.1930    0.0040   22.5140 C.ar      1 <0>         0.0000
      9 C9          7.7680    0.8700   20.5340 C.ar      1 <0>         0.0000
     10 C10        14.1930    1.3990   22.9800 C.ar      1 <0>         0.0000
     11 C11        14.3940   -0.6890   21.7670 C.ar      1 <0>         0.0000
     12 C12         9.9040    0.5820   21.7430 C.2       1 <0>         0.0000
     13 C13         5.8690    1.2220   22.1460 C.3       1 <0>         0.0000
     14 C14        10.7460   -0.3390   22.6260 C.3       1 <0>         0.0000
     15 N1          7.3470    1.0290   18.1610 N.ar      1 <0>         0.0000
     16 N2          8.5250    0.4310   21.6730 N.am      1 <0>         0.0000
     17 O1         10.4130    1.4300   21.0040 O.2       1 <0>         0.0000
     18 O2         14.8260    2.6060   23.4750 O.3       1 <0>         0.0000
     19 Cl1        15.3400   -1.7390   20.7610 Cl        1 <0>         0.0000
     20 H1          4.5680    1.5920   19.8100 H         1 <0>         0.0000
     21 H2         12.0770    1.8470   23.5590 H         1 <0>         0.0000
     22 H3         12.5060   -1.6650   21.2710 H         1 <0>         0.0000
     23 H4         16.0490    0.5300   22.4010 H         1 <0>         0.0000
     24 H5          5.3900    1.4270   17.5460 H         1 <0>         0.0000
     25 H6          9.1940    0.5950   18.8570 H         1 <0>         0.0000
     26 H7          4.9150    1.7320   22.2280 H         1 <0>         0.0000
     27 H8          5.6940    0.1920   22.4940 H         1 <0>         0.0000
     28 H9          6.5790    1.7130   22.8150 H         1 <0>         0.0000
     29 H10        10.6110   -1.3330   22.2010 H         1 <0>         0.0000
     30 H11        10.3880   -0.3710   23.6610 H         1 <0>         0.0000
     31 H12         8.1340   -0.1800   22.3940 H         1 <0>         0.0000
     32 H13        15.4460    5.2280   23.8440 H         1 <0>         0.0000
     33 H14        13.1640    3.3060   24.5080 H         1 <0>         0.0000
     34 H15        13.4540    3.5610   21.5300 H         1 <0>         0.0000
     35 H16        12.0340    4.1060   22.4770 H         1 <0>         0.0000
     36 N3         14.4530    4.9910   23.8870 N.am      1 <0>         0.0000
     37 O3         14.3090    6.2090   21.9440 O.2       1 <0>         0.0000
     38 C15        13.8820    3.6300   23.7580 C.3       1 <0>         0.0000
     39 C16        13.1310    4.0650   22.4470 C.3       1 <0>         0.0000
     40 C17        13.8230    5.3620   22.7270 C.2       1 <0>         0.0000
@<TRIPOS>BOND
     1    5   24 1
     2    5   15 ar
     3    6   15 ar
     4    1    5 ar
     5    6   25 1
     6    6    9 ar
     7    1   20 1
     8    1    7 ar
     9    7    9 ar
    10    9   16 1
    11   11   19 1
    12    7   13 1
    13   12   17 2
    14    3   22 1
    15   34   39 1
    16   12   16 am
    17   16   31 1
    18   12   14 1
    19    3   11 ar
    20    3    8 ar
    21    4   11 ar
    22   37   40 2
    23   13   26 1
    24   13   27 1
    25   13   28 1
    26   14   29 1
    27    4   23 1
    28    4   10 ar
    29   35   39 1
    30   39   40 1
    31   38   39 1
    32    8   14 1
    33    2    8 ar
    34   14   30 1
    35   36   40 am
    36    2   10 ar
    37   10   18 1
    38    2   21 1
    39   18   38 1
    40   36   38 1
    41   33   38 1
    42   32   36 1
@<TRIPOS>MOLECULE
*****
   40    42     0     0     0
SMALL
NO_CHARGES

@<TRIPOS>ATOM
      1 C1          6.7480    2.1850   18.4850 C.ar      1 <0>         0.0000
      2 C2         10.0090   -2.4950   22.9140 C.ar      1 <0>         0.0000
      3 C3         11.2620   -2.7980   20.8800 C.ar      1 <0>         0.0000
      4 C4         12.3860   -2.0610   22.9030 C.ar      1 <0>         0.0000
      5 C5          6.6400    1.7260   17.1780 C.ar      1 <0>         0.0000
      6 C6          7.7960   -0.1700   17.6280 C.ar      1 <0>         0.0000
      7 C7          7.4330    1.3740   19.4180 C.ar      1 <0>         0.0000
      8 C8         10.0460   -2.8110   21.5400 C.ar      1 <0>         0.0000
      9 C9          7.9770    0.1310   18.9690 C.ar      1 <0>         0.0000
     10 C10        11.1930   -2.1500   23.6550 C.ar      1 <0>         0.0000
     11 C11        12.4260   -2.3690   21.5460 C.ar      1 <0>         0.0000
     12 C12         8.2790   -2.2010   19.7840 C.2       1 <0>         0.0000
     13 C13         7.8400    1.9860   20.7260 C.3       1 <0>         0.0000
     14 C14         8.7280   -3.1730   20.9140 C.3       1 <0>         0.0000
     15 N1          7.1130    0.5830   16.7130 N.ar      1 <0>         0.0000
     16 N2          8.5420   -0.8170   19.8250 N.am      1 <0>         0.0000
     17 O1          7.5120   -2.7250   18.9100 O.2       1 <0>         0.0000
     18 O2         11.2940   -1.8780   25.0140 O.3       1 <0>         0.0000
     19 Cl1        13.9080   -2.2440   20.6980 Cl        1 <0>         0.0000
     20 H1          6.2850    3.0770   18.8740 H         1 <0>         0.0000
     21 H2          9.0950   -2.4420   23.4940 H         1 <0>         0.0000
     22 H3         11.3450   -2.9900   19.8100 H         1 <0>         0.0000
     23 H4         13.2840   -1.7120   23.3970 H         1 <0>         0.0000
     24 H5          6.1530    2.4410   16.5200 H         1 <0>         0.0000
     25 H6          8.2330   -1.0620   17.1980 H         1 <0>         0.0000
     26 H7          7.9730    1.1880   21.4600 H         1 <0>         0.0000
     27 H8          8.7270    2.6090   20.6340 H         1 <0>         0.0000
     28 H9          7.0240    2.5580   21.1880 H         1 <0>         0.0000
     29 H10         8.7090   -4.2110   20.5780 H         1 <0>         0.0000
     30 H11         7.8980   -3.1390   21.6250 H         1 <0>         0.0000
     31 H12         8.8630   -0.5480   20.7560 H         1 <0>         0.0000
     32 H13        11.3720   -1.6710   27.6580 H         1 <0>         0.0000
     33 H14         9.6690   -2.2740   28.0770 H         1 <0>         0.0000
     34 N3         10.6770   -4.0360   26.1180 N.am      1 <0>         0.0000
     35 O3         10.8700   -4.7030   28.2930 O.2       1 <0>         0.0000
     36 C15        10.3160   -2.5750   25.9390 C.3       1 <0>         0.0000
     37 C16        10.5650   -2.3980   27.4690 C.3       1 <0>         0.0000
     38 C17        10.9130   -3.8670   27.3920 C.2       1 <0>         0.0000
     39 H15        10.6390   -4.9070   25.5840 H         1 <0>         0.0000
     40 H16         9.2800   -2.5370   25.5780 H         1 <0>         0.0000
@<TRIPOS>BOND
     1    5   24 1
     2    5   15 ar
     3    6   15 ar
     4    1    5 ar
     5    6   25 1
     6    6    9 ar
     7    1   20 1
     8    1    7 ar
     9   12   17 2
    10    7    9 ar
    11    9   16 1
    12    7   13 1
    13   12   16 am
    14   12   14 1
    15    3   22 1
    16   16   31 1
    17   14   29 1
    18   13   27 1
    19   11   19 1
    20   13   28 1
    21   13   26 1
    22    3    8 ar
    23    3   11 ar
    24    8   14 1
    25   14   30 1
    26    2    8 ar
    27    4   11 ar
    28    4   23 1
    29    4   10 ar
    30    2   21 1
    31    2   10 ar
    32   10   18 1
    33   18   36 1
    34   36   40 1
    35   34   39 1
    36   34   36 1
    37   36   37 1
    38   34   38 am
    39   37   38 1
    40   35   38 2
    41   32   37 1
    42   33   37 1
@<TRIPOS>MOLECULE
*****
   40    42     0     0     0
SMALL
NO_CHARGES

@<TRIPOS>ATOM
      1 C1          5.5430    2.3590   18.9320 C.ar      1 <0>         0.0000
      2 C2         10.7850    0.1190   22.5450 C.ar      1 <0>         0.0000
      3 C3         11.4540   -1.8460   21.4930 C.ar      1 <0>         0.0000
      4 C4         13.1180   -0.2830   22.2910 C.ar      1 <0>         0.0000
      5 C5          5.5710    1.8190   17.6090 C.ar      1 <0>         0.0000
      6 C6          7.1690    0.2840   18.3290 C.ar      1 <0>         0.0000
      7 C7          6.2520    1.8370   19.9650 C.ar      1 <0>         0.0000
      8 C8         10.3980   -1.1580   22.0990 C.ar      1 <0>         0.0000
      9 C9          7.1100    0.7390   19.6350 C.ar      1 <0>         0.0000
     10 C10        12.0640    0.5080   22.7160 C.ar      1 <0>         0.0000
     11 C11        12.8110   -1.4100   21.5780 C.ar      1 <0>         0.0000
     12 C12         8.1070   -1.1850   20.8400 C.2       1 <0>         0.0000
     13 C13         6.1080    2.3910   21.3120 C.3       1 <0>         0.0000
     14 C14         8.9350   -1.6980   21.9690 C.3       1 <0>         0.0000
     15 N1          6.3260    0.7600   17.3420 N.ar      1 <0>         0.0000
     16 N2          8.0500    0.1720   20.5510 N.am      1 <0>         0.0000
     17 O1          7.2020   -1.9430   20.4390 O.2       1 <0>         0.0000
     18 O2         12.3120    1.7510   23.3290 O.3       1 <0>         0.0000
     19 Cl1        14.0890   -2.4240   20.9700 Cl        1 <0>         0.0000
     20 H1          4.8810    3.2130   18.9970 H         1 <0>         0.0000
     21 H2          9.9700    0.7550   22.8640 H         1 <0>         0.0000
     22 H3         11.3610   -2.7870   20.9620 H         1 <0>         0.0000
     23 H4         14.1840   -0.1390   22.3960 H         1 <0>         0.0000
     24 H5          4.9780    2.2660   16.8300 H         1 <0>         0.0000
     25 H6          7.9640   -0.3920   18.0310 H         1 <0>         0.0000
     26 H7          6.6460    3.3230   21.5270 H         1 <0>         0.0000
     27 H8          5.0380    2.4680   21.4890 H         1 <0>         0.0000
     28 H9          6.5330    1.6710   22.0140 H         1 <0>         0.0000
     29 H10         8.9180   -2.7840   21.9180 H         1 <0>         0.0000
     30 H11         8.2930   -1.4370   22.8130 H         1 <0>         0.0000
     31 H12         8.6360    0.8440   21.0500 H         1 <0>         0.0000
     32 C15        13.3820    2.5860   22.8130 C.3       1 <0>         0.0000
     33 C16        14.7690    2.3480   23.5540 C.3       1 <0>         0.0000
     34 C17        14.6320    3.8210   23.7600 C.2       1 <0>         0.0000
     35 H13        13.0460    4.7680   22.7130 H         1 <0>         0.0000
     36 H14        13.5080    2.5520   21.7280 H         1 <0>         0.0000
     37 H15        14.5630    1.6940   24.3990 H         1 <0>         0.0000
     38 H16        15.6810    2.0770   23.0000 H         1 <0>         0.0000
     39 N3         13.3990    3.9630   23.2310 N.am      1 <0>         0.0000
     40 O3         15.5170    4.6720   23.9170 O.2       1 <0>         0.0000
@<TRIPOS>BOND
     1    5   24 1
     2    5   15 ar
     3    6   15 ar
     4    1    5 ar
     5    6   25 1
     6    6    9 ar
     7    1   20 1
     8    1    7 ar
     9    7    9 ar
    10    9   16 1
    11    7   13 1
    12   12   17 2
    13   12   16 am
    14   16   31 1
    15   12   14 1
    16    3   22 1
    17   11   19 1
    18   13   27 1
    19   13   26 1
    20   13   28 1
    21    3   11 ar
    22    3    8 ar
    23    4   11 ar
    24   32   36 1
    25   14   29 1
    26    8   14 1
    27   14   30 1
    28    2    8 ar
    29    4   23 1
    30    4   10 ar
    31    2   10 ar
    32    2   21 1
    33   35   39 1
    34   10   18 1
    35   32   39 1
    36   18   32 1
    37   32   33 1
    38   33   38 1
    39   34   39 am
    40   33   34 1
    41   33   37 1
    42   34   40 2
@<TRIPOS>MOLECULE
*****
   40    42     0     0     0
SMALL
NO_CHARGES

@<TRIPOS>ATOM
      1 C1          4.8460    1.0070   20.7730 C.ar      1 <0>         0.0000
      2 C2         12.3500    0.4510   23.9640 C.ar      1 <0>         0.0000
      3 C3         12.3040   -1.2740   22.2530 C.ar      1 <0>         0.0000
      4 C4         14.4260   -0.2210   22.8870 C.ar      1 <0>         0.0000
      5 C5          5.2840    1.4650   19.5250 C.ar      1 <0>         0.0000
      6 C6          7.3880    0.6930   19.9210 C.ar      1 <0>         0.0000
      7 C7          5.7040    0.6140   21.6520 C.ar      1 <0>         0.0000
      8 C8         11.5970   -0.4690   23.1060 C.ar      1 <0>         0.0000
      9 C9          7.0010    0.3410   21.2470 C.ar      1 <0>         0.0000
     10 C10        13.7330    0.5860   23.8000 C.ar      1 <0>         0.0000
     11 C11        13.6820   -1.2270   22.1960 C.ar      1 <0>         0.0000
     12 C12         9.1950    0.2510   22.4080 C.2       1 <0>         0.0000
     13 C13         5.1800    0.5980   23.1330 C.3       1 <0>         0.0000
     14 C14        10.0360   -0.5880   23.3130 C.3       1 <0>         0.0000
     15 N1          6.5190    1.2310   19.0850 N.ar      1 <0>         0.0000
     16 N2          7.9080   -0.1080   22.2160 N.am      1 <0>         0.0000
     17 O1          9.6510    1.2290   21.8220 O.2       1 <0>         0.0000
     18 O2         14.4830    1.4970   24.5720 O.3       1 <0>         0.0000
     19 Cl1        14.6300   -2.4420   21.3130 Cl        1 <0>         0.0000
     20 H1          3.8050    1.1660   21.0510 H         1 <0>         0.0000
     21 H2         11.8630    1.0500   24.7240 H         1 <0>         0.0000
     22 H3         11.7850   -2.0900   21.7600 H         1 <0>         0.0000
     23 H4         15.5020   -0.2150   22.8060 H         1 <0>         0.0000
     24 H5          4.6040    1.8140   18.7520 H         1 <0>         0.0000
     25 H6          8.3970    0.6050   19.5320 H         1 <0>         0.0000
     26 H7          5.6520    1.4510   23.6290 H         1 <0>         0.0000
     27 H8          4.0940    0.7200   23.1830 H         1 <0>         0.0000
     28 H9          5.4160   -0.3210   23.6660 H         1 <0>         0.0000
     29 H10         9.8610   -1.6520   23.1790 H         1 <0>         0.0000
     30 H11         9.7960   -0.3390   24.3510 H         1 <0>         0.0000
     31 H12         7.6160   -0.8960   22.7940 H         1 <0>         0.0000
     32 H13        13.1430    3.1200   24.8770 H         1 <0>         0.0000
     33 H14        14.3370    2.6900   22.0260 H         1 <0>         0.0000
     34 H15        13.0500    3.9470   22.5970 H         1 <0>         0.0000
     35 N3         15.0230    3.8090   24.6320 N.am      1 <0>         0.0000
     36 O3         16.0670    4.6440   22.7100 O.2       1 <0>         0.0000
     37 C15        14.0450    2.8850   24.2960 C.3       1 <0>         0.0000
     38 C16        13.9650    3.3810   22.7840 C.3       1 <0>         0.0000
     39 C17        15.0580    4.2290   23.3270 C.2       1 <0>         0.0000
     40 H16        15.9540    3.5840   24.9700 H         1 <0>         0.0000
@<TRIPOS>BOND
     1    5   24 1
     2    5   15 ar
     3    6   15 ar
     4    1    5 ar
     5    6   25 1
     6    6    9 ar
     7    1   20 1
     8    1    7 ar
     9    7    9 ar
    10    9   16 1
    11   11   19 1
    12    7   13 1
    13    3   22 1
    14   12   17 2
    15   33   38 1
    16    3   11 ar
    17    4   11 ar
    18   12   16 am
    19   16   31 1
    20    3    8 ar
    21   12   14 1
    22   34   38 1
    23   36   39 2
    24   38   39 1
    25   37   38 1
    26    4   23 1
    27    4   10 ar
    28    8   14 1
    29    2    8 ar
    30   13   27 1
    31   13   26 1
    32   13   28 1
    33   14   29 1
    34   14   30 1
    35   35   39 am
    36    2   10 ar
    37   10   18 1
    38    2   21 1
    39   18   37 1
    40   35   37 1
    41   32   37 1
    42   35   40 1
@<TRIPOS>MOLECULE
*****
   40    42     0     0     0
SMALL
NO_CHARGES

@<TRIPOS>ATOM
      1 C1          4.0980    0.8850   18.2900 C.ar      1 <0>         0.0000
      2 C2         10.4360   -0.3090   23.1720 C.ar      1 <0>         0.0000
      3 C3         10.9690   -1.9500   21.5370 C.ar      1 <0>         0.0000
      4 C4         12.7690   -0.9570   22.7960 C.ar      1 <0>         0.0000
      5 C5          4.8120    0.8290   17.0750 C.ar      1 <0>         0.0000
      6 C6          6.6180   -0.1340   18.1550 C.ar      1 <0>         0.0000
      7 C7          4.6140    0.3340   19.4630 C.ar      1 <0>         0.0000
      8 C8         10.0150   -1.2540   22.2170 C.ar      1 <0>         0.0000
      9 C9          5.9330   -0.1380   19.3930 C.ar      1 <0>         0.0000
     10 C10        11.8010   -0.2000   23.5360 C.ar      1 <0>         0.0000
     11 C11        12.3580   -1.9000   21.8420 C.ar      1 <0>         0.0000
     12 C12         7.9120   -0.4520   20.9520 C.2       1 <0>         0.0000
     13 C13         3.9850    0.5020   20.7890 C.3       1 <0>         0.0000
     14 C14         8.4750   -1.3930   21.9750 C.3       1 <0>         0.0000
     15 N1          6.0640    0.2830   17.0010 N.ar      1 <0>         0.0000
     16 N2          6.6030   -0.5280   20.5740 N.am      1 <0>         0.0000
     17 O1          8.6860    0.1940   20.2810 O.2       1 <0>         0.0000
     18 O2         12.2240    0.7360   24.4800 O.3       1 <0>         0.0000
     19 Cl1        13.4780   -2.7910   20.8120 Cl        1 <0>         0.0000
     20 H1          3.0670    1.2480   18.2800 H         1 <0>         0.0000
     21 H2          9.7250    0.2360   23.7950 H         1 <0>         0.0000
     22 H3         10.7480   -2.6310   20.7180 H         1 <0>         0.0000
     23 H4         13.8360   -0.8860   22.9750 H         1 <0>         0.0000
     24 H5          4.3900    1.1880   16.1380 H         1 <0>         0.0000
     25 H6          7.6540   -0.4380   18.2560 H         1 <0>         0.0000
     26 H7          3.1760    1.2390   20.6900 H         1 <0>         0.0000
     27 H8          3.7470   -0.4940   21.1660 H         1 <0>         0.0000
     28 H9          4.6580    0.9620   21.5140 H         1 <0>         0.0000
     29 H10         8.2380   -2.4440   21.7570 H         1 <0>         0.0000
     30 H11         8.0120   -1.1930   22.9460 H         1 <0>         0.0000
     31 H12         6.0320   -0.9130   21.3310 H         1 <0>         0.0000
     32 H13        11.1960    2.2800   23.6590 H         1 <0>         0.0000
     33 H14        14.2700    1.9390   23.0560 H         1 <0>         0.0000
     34 H15        13.1050    3.0570   22.2270 H         1 <0>         0.0000
     35 N3         12.5960    2.9720   25.0550 N.am      1 <0>         0.0000
     36 O3         13.7880    4.7430   24.1930 O.2       1 <0>         0.0000
     37 C15        12.1850    2.0330   24.0810 C.3       1 <0>         0.0000
     38 C16        13.3940    2.5910   23.1650 C.3       1 <0>         0.0000
     39 C17        13.5400    3.5390   24.3050 C.2       1 <0>         0.0000
     40 H16        11.8330    3.5490   25.3980 H         1 <0>         0.0000
@<TRIPOS>BOND
     1    5   24 1
     2    5   15 ar
     3    6   15 ar
     4    1    5 ar
     5    6   25 1
     6    6    9 ar
     7    1   20 1
     8    1    7 ar
     9    7    9 ar
    10    9   16 1
    11    7   13 1
    12   12   17 2
    13   12   16 am
    14   16   31 1
    15   13   26 1
    16    3   22 1
    17   13   27 1
    18   13   28 1
    19   11   19 1
    20   12   14 1
    21    3   11 ar
    22    3    8 ar
    23   14   29 1
    24    4   11 ar
    25    8   14 1
    26   14   30 1
    27    2    8 ar
    28   34   38 1
    29    4   23 1
    30    4   10 ar
    31   33   38 1
    32   37   38 1
    33   38   39 1
    34    2   10 ar
    35    2   21 1
    36   10   18 1
    37   32   37 1
    38   18   37 1
    39   35   37 1
    40   36   39 2
    41   35   39 am
    42   35   40 1
@<TRIPOS>MOLECULE
*****
   40    42     0     0     0
SMALL
NO_CHARGES

@<TRIPOS>ATOM
      1 C1          5.1250    0.8760   19.3620 C.ar      1 <0>         0.0000
      2 C2         12.0230    1.0180   23.6610 C.ar      1 <0>         0.0000
      3 C3         11.8840   -1.1120   22.6020 C.ar      1 <0>         0.0000
      4 C4         14.0370   -0.0230   22.9360 C.ar      1 <0>         0.0000
      5 C5          5.9090    0.7160   18.1940 C.ar      1 <0>         0.0000
      6 C6          7.7570    0.1140   19.3800 C.ar      1 <0>         0.0000
      7 C7          5.7030    0.4980   20.6200 C.ar      1 <0>         0.0000
      8 C8         11.2690   -0.1190   23.2170 C.ar      1 <0>         0.0000
      9 C9          7.0820    0.2030   20.6480 C.ar      1 <0>         0.0000
     10 C10        13.4340    1.0640   23.5740 C.ar      1 <0>         0.0000
     11 C11        13.2830   -1.0730   22.4070 C.ar      1 <0>         0.0000
     12 C12         9.1390    0.1940   22.0500 C.2       1 <0>         0.0000
     13 C13         4.8770    0.6420   21.8620 C.3       1 <0>         0.0000
     14 C14         9.7770   -0.1920   23.3750 C.3       1 <0>         0.0000
     15 N1          7.1520    0.2290   18.1890 N.ar      1 <0>         0.0000
     16 N2          7.8330    0.0210   21.8350 N.am      1 <0>         0.0000
     17 O1          9.9430    0.7680   21.2820 O.2       1 <0>         0.0000
     18 O2         14.2830    2.0490   24.1640 O.3       1 <0>         0.0000
     19 Cl1        14.0360   -2.4350   21.6780 Cl        1 <0>         0.0000
     20 H1          4.0560    0.9930   19.1630 H         1 <0>         0.0000
     21 H2         11.5220    1.8310   24.1890 H         1 <0>         0.0000
     22 H3         11.3550   -1.9930   22.2580 H         1 <0>         0.0000
     23 H4         15.1060   -0.0400   22.7240 H         1 <0>         0.0000
     24 H5          5.3790    0.9130   17.2660 H         1 <0>         0.0000
     25 H6          8.8140   -0.1170   19.4350 H         1 <0>         0.0000
     26 H7          3.8340    0.9030   21.6490 H         1 <0>         0.0000
     27 H8          4.8440   -0.2650   22.4770 H         1 <0>         0.0000
     28 H9          5.1220    1.5760   22.3840 H         1 <0>         0.0000
     29 H10         9.3960   -1.1740   23.6520 H         1 <0>         0.0000
     30 H11         9.4180    0.5180   24.1250 H         1 <0>         0.0000
     31 H12         7.3000   -0.3460   22.6210 H         1 <0>         0.0000
     32 H13        15.7340    3.7780   24.3730 H         1 <0>         0.0000
     33 H14        12.9020    3.5460   24.8420 H         1 <0>         0.0000
     34 H15        13.6090    3.5080   21.9070 H         1 <0>         0.0000
     35 H16        12.4770    4.6220   22.7960 H         1 <0>         0.0000
     36 N3         14.8480    4.2790   24.3070 N.am      1 <0>         0.0000
     37 O3         15.4200    5.3640   22.4260 O.2       1 <0>         0.0000
     38 C15        13.7240    3.3400   24.1470 C.3       1 <0>         0.0000
     39 C16        13.4450    4.1200   22.8010 C.3       1 <0>         0.0000
     40 C17        14.6030    4.9200   23.1680 C.2       1 <0>         0.0000
@<TRIPOS>BOND
     1    5   24 1
     2    5   15 ar
     3    6   15 ar
     4    1    5 ar
     5    1   20 1
     6    1    7 ar
     7    6   25 1
     8    6    9 ar
     9    7    9 ar
    10    7   13 1
    11    9   16 1
    12   12   17 2
    13   13   26 1
    14   11   19 1
    15   12   16 am
    16   16   31 1
    17   13   28 1
    18   13   27 1
    19   34   39 1
    20   12   14 1
    21    3   22 1
    22    3   11 ar
    23    4   11 ar
    24   37   40 2
    25    3    8 ar
    26    4   23 1
    27   35   39 1
    28   39   40 1
    29   38   39 1
    30    4   10 ar
    31   36   40 am
    32    8   14 1
    33    2    8 ar
    34   14   29 1
    35   14   30 1
    36    2   10 ar
    37   10   18 1
    38    2   21 1
    39   18   38 1
    40   36   38 1
    41   33   38 1
    42   32   36 1
@<TRIPOS>MOLECULE
*****
   40    42     0     0     0
SMALL
NO_CHARGES

@<TRIPOS>ATOM
      1 C1          5.0390    1.4060   19.7640 C.ar      1 <0>         0.0000
      2 C2         12.2000    1.4950   23.5300 C.ar      1 <0>         0.0000
      3 C3         12.6070   -0.3610   22.0720 C.ar      1 <0>         0.0000
      4 C4         14.4430    1.0220   22.8320 C.ar      1 <0>         0.0000
      5 C5          5.4390    1.2010   18.4310 C.ar      1 <0>         0.0000
      6 C6          7.4780    0.6120   19.0590 C.ar      1 <0>         0.0000
      7 C7          5.8650    1.0630   20.8040 C.ar      1 <0>         0.0000
      8 C8         11.7170    0.4480   22.7040 C.ar      1 <0>         0.0000
      9 C9          7.1510    0.5500   20.4310 C.ar      1 <0>         0.0000
     10 C10        13.5680    1.8380   23.5260 C.ar      1 <0>         0.0000
     11 C11        13.9830   -0.0400   22.1410 C.ar      1 <0>         0.0000
     12 C12         9.4580    0.6460   21.5950 C.2       1 <0>         0.0000
     13 C13         5.4220    1.2870   22.1630 C.3       1 <0>         0.0000
     14 C14        10.2930    0.1030   22.7550 C.3       1 <0>         0.0000
     15 N1          6.6230    0.9280   18.0780 N.ar      1 <0>         0.0000
     16 N2          8.1010    0.2790   21.4710 N.am      1 <0>         0.0000
     17 O1          9.8180    1.5070   20.8670 O.2       1 <0>         0.0000
     18 O2         14.0630    2.9670   24.0850 O.3       1 <0>         0.0000
     19 Cl1        15.0960   -1.0650   21.2610 Cl        1 <0>         0.0000
     20 H1          4.0360    1.7450   20.0000 H         1 <0>         0.0000
     21 H2         11.4770    2.0430   24.1230 H         1 <0>         0.0000
     22 H3         12.3290   -1.2530   21.5260 H         1 <0>         0.0000
     23 H4         15.4970    1.3130   22.8390 H         1 <0>         0.0000
     24 H5          4.7200    1.2560   17.6240 H         1 <0>         0.0000
     25 H6          8.4170    0.1810   18.7350 H         1 <0>         0.0000
     26 H7          4.8190    2.1980   22.2480 H         1 <0>         0.0000
     27 H8          4.7610    0.4820   22.5120 H         1 <0>         0.0000
     28 H9          6.3430    1.3280   22.7600 H         1 <0>         0.0000
     29 H10        10.2480   -0.9790   22.8180 H         1 <0>         0.0000
     30 H11         9.9670    0.5840   23.6780 H         1 <0>         0.0000
     31 H12         7.7410   -0.2840   22.2290 H         1 <0>         0.0000
     32 H13        14.6890    5.2900   25.1290 H         1 <0>         0.0000
     33 H14        12.2550    3.8780   24.5960 H         1 <0>         0.0000
     34 H15        13.6760    4.5010   21.9280 H         1 <0>         0.0000
     35 H16        11.9580    4.9660   22.4630 H         1 <0>         0.0000
     36 N3         13.7840    5.2790   24.6480 N.am      1 <0>         0.0000
     37 O3         14.5580    6.7550   23.0310 O.2       1 <0>         0.0000
     38 C15        13.2100    4.0980   24.1000 C.3       1 <0>         0.0000
     39 C16        13.0020    4.8150   22.7320 C.3       1 <0>         0.0000
     40 C17        13.6880    5.9610   23.4930 C.2       1 <0>         0.0000
@<TRIPOS>BOND
     1    5   24 1
     2    5   15 ar
     3    6   15 ar
     4    1    5 ar
     5    6   25 1
     6    6    9 ar
     7    1   20 1
     8    1    7 ar
     9    7    9 ar
    10    9   16 1
    11    7   13 1
    12   12   17 2
    13   11   19 1
    14   12   16 am
    15   16   31 1
    16    3   22 1
    17   12   14 1
    18   34   39 1
    19    3   11 ar
    20    3    8 ar
    21    4   11 ar
    22   13   26 1
    23   13   27 1
    24   13   28 1
    25   35   39 1
    26    8   14 1
    27    2    8 ar
    28   39   40 1
    29   38   39 1
    30   14   29 1
    31   14   30 1
    32    4   23 1
    33    4   10 ar
    34   37   40 2
    35   36   40 am
    36    2   10 ar
    37   10   18 1
    38    2   21 1
    39   18   38 1
    40   33   38 1
    41   36   38 1
    42   32   36 1
@<TRIPOS>MOLECULE
*****
   40    42     0     0     0
SMALL
NO_CHARGES

@<TRIPOS>ATOM
      1 C1          5.4500    1.0210   18.9650 C.ar      1 <0>         0.0000
      2 C2         12.0300    0.7680   23.4070 C.ar      1 <0>         0.0000
      3 C3         12.0610   -1.1270   21.9830 C.ar      1 <0>         0.0000
      4 C4         14.0990   -0.0180   22.4610 C.ar      1 <0>         0.0000
      5 C5          6.1330    0.7170   17.7270 C.ar      1 <0>         0.0000
      6 C6          7.7870   -0.1560   18.9690 C.ar      1 <0>         0.0000
      7 C7          5.9170    0.5970   20.2020 C.ar      1 <0>         0.0000
      8 C8         11.3430   -0.2560   22.8080 C.ar      1 <0>         0.0000
      9 C9          7.1690    0.0530   20.2130 C.ar      1 <0>         0.0000
     10 C10        13.4220    0.9350   23.2270 C.ar      1 <0>         0.0000
     11 C11        13.4150   -1.0330   21.8600 C.ar      1 <0>         0.0000
     12 C12         8.9830    0.2350   21.7570 C.2       1 <0>         0.0000
     13 C13         4.9900    0.8930   21.4280 C.3       1 <0>         0.0000
     14 C14         9.8390   -0.2800   22.9250 C.3       1 <0>         0.0000
     15 N1          7.2870    0.0930   17.7630 N.ar      1 <0>         0.0000
     16 N2          7.7640   -0.3200   21.3720 N.am      1 <0>         0.0000
     17 O1          9.6080    0.9490   21.0050 O.2       1 <0>         0.0000
     18 O2         14.1660    1.9680   23.7750 O.3       1 <0>         0.0000
     19 Cl1        14.2060   -2.2140   20.8900 Cl        1 <0>         0.0000
     20 H1          4.4330    1.3960   18.8760 H         1 <0>         0.0000
     21 H2         11.4270    1.4200   24.0250 H         1 <0>         0.0000
     22 H3         11.5110   -1.8350   21.3750 H         1 <0>         0.0000
     23 H4         15.1720   -0.0050   22.2500 H         1 <0>         0.0000
     24 H5          5.6600    0.9830   16.7880 H         1 <0>         0.0000
     25 H6          8.7970   -0.5560   18.9920 H         1 <0>         0.0000
     26 H7          5.5240    0.9960   22.3820 H         1 <0>         0.0000
     27 H8          4.2970    1.7230   21.3150 H         1 <0>         0.0000
     28 H9          4.4720   -0.0450   21.6330 H         1 <0>         0.0000
     29 H10         9.4410   -1.2990   23.0230 H         1 <0>         0.0000
     30 H11         9.4880    0.1800   23.8640 H         1 <0>         0.0000
     31 H12         7.2770   -0.9350   22.0350 H         1 <0>         0.0000
     32 N3         14.3210    4.3130   23.9930 N.am      1 <0>         0.0000
     33 O3         14.5830    5.7610   22.2110 O.2       1 <0>         0.0000
     34 C15        13.4480    3.2160   23.8150 C.3       1 <0>         0.0000
     35 C16        12.9600    3.8960   22.4090 C.3       1 <0>         0.0000
     36 C17        14.0580    4.8210   22.7980 C.2       1 <0>         0.0000
     37 H13        15.2070    4.1700   24.4710 H         1 <0>         0.0000
     38 H14        12.7150    3.3320   24.6220 H         1 <0>         0.0000
     39 H15        13.1300    3.3830   21.4530 H         1 <0>         0.0000
     40 H16        12.0510    4.4980   22.4340 H         1 <0>         0.0000
@<TRIPOS>BOND
     1    5   24 1
     2    5   15 ar
     3    1    5 ar
     4    6   15 ar
     5    1   20 1
     6    1    7 ar
     7    6   25 1
     8    6    9 ar
     9    7    9 ar
    10    7   13 1
    11    9   16 1
    12   11   19 1
    13   12   17 2
    14   13   27 1
    15   12   16 am
    16   16   31 1
    17    3   22 1
    18   13   28 1
    19   13   26 1
    20   35   39 1
    21   12   14 1
    22    3   11 ar
    23    4   11 ar
    24    3    8 ar
    25   33   36 2
    26    4   23 1
    27   35   40 1
    28   35   36 1
    29   34   35 1
    30    4   10 ar
    31   32   36 am
    32    8   14 1
    33    2    8 ar
    34   14   29 1
    35   14   30 1
    36    2   10 ar
    37   10   18 1
    38    2   21 1
    39   18   34 1
    40   32   34 1
    41   34   38 1
    42   32   37 1
@<TRIPOS>MOLECULE
*****
   40    42     0     0     0
SMALL
NO_CHARGES

@<TRIPOS>ATOM
      1 C1          5.3150    1.3710   19.2660 C.ar      1 <0>         0.0000
      2 C2         12.1090    1.1740   23.6160 C.ar      1 <0>         0.0000
      3 C3         11.8260   -0.7970   22.3480 C.ar      1 <0>         0.0000
      4 C4         14.0310    0.0280   22.9200 C.ar      1 <0>         0.0000
      5 C5          5.7840    0.8460   18.1400 C.ar      1 <0>         0.0000
      6 C6          7.5800    0.0180   19.2720 C.ar      1 <0>         0.0000
      7 C7          5.8550    1.1780   20.5100 C.ar      1 <0>         0.0000
      8 C8         11.2760    0.2090   23.0430 C.ar      1 <0>         0.0000
      9 C9          7.0970    0.4510   20.5080 C.ar      1 <0>         0.0000
     10 C10        13.4840    1.1770   23.5520 C.ar      1 <0>         0.0000
     11 C11        13.2270   -0.9320   22.2870 C.ar      1 <0>         0.0000
     12 C12         9.1110    0.5860   21.9310 C.2       1 <0>         0.0000
     13 C13         5.2850    1.6180   21.8190 C.3       1 <0>         0.0000
     14 C14         9.8050    0.2470   23.2500 C.3       1 <0>         0.0000
     15 N1          6.9600    0.1630   18.0860 N.ar      1 <0>         0.0000
     16 N2          7.7990    0.3200   21.6720 N.am      1 <0>         0.0000
     17 O1          9.6940    1.1790   21.0580 O.2       1 <0>         0.0000
     18 O2         14.3080    2.1260   24.1400 O.3       1 <0>         0.0000
     19 Cl1        13.8920   -2.3820   21.5730 Cl        1 <0>         0.0000
     20 H1          4.5170    2.0590   18.9960 H         1 <0>         0.0000
     21 H2         11.5360    1.9030   24.1780 H         1 <0>         0.0000
     22 H3         11.1540   -1.5740   22.0000 H         1 <0>         0.0000
     23 H4         15.0880   -0.2080   22.9590 H         1 <0>         0.0000
     24 H5          5.2500    1.0770   17.2220 H         1 <0>         0.0000
     25 H6          8.5460   -0.4700   19.3170 H         1 <0>         0.0000
     26 H7          4.5710    0.8750   22.1940 H         1 <0>         0.0000
     27 H8          6.0400    1.8380   22.5770 H         1 <0>         0.0000
     28 H9          4.7530    2.5680   21.7580 H         1 <0>         0.0000
     29 H10         9.4980   -0.7390   23.6090 H         1 <0>         0.0000
     30 H11         9.5480    0.9810   24.0130 H         1 <0>         0.0000
     31 H12         7.3020    0.0370   22.5120 H         1 <0>         0.0000
     32 N3         15.0120    4.4010   24.2100 N.am      1 <0>         0.0000
     33 O3         15.0330    5.3670   22.1560 O.2       1 <0>         0.0000
     34 C15        13.9110    3.5010   24.3920 C.3       1 <0>         0.0000
     35 C16        13.0930    4.2570   23.2220 C.3       1 <0>         0.0000
     36 C17        14.4050    5.0060   23.1330 C.2       1 <0>         0.0000
     37 H13        15.9880    4.1480   24.0840 H         1 <0>         0.0000
     38 H14        13.4870    3.6670   25.3900 H         1 <0>         0.0000
     39 H15        12.3490    4.8880   23.7160 H         1 <0>         0.0000
     40 H16        12.6890    3.6980   22.3820 H         1 <0>         0.0000
@<TRIPOS>BOND
     1    5   24 1
     2    5   15 ar
     3    6   15 ar
     4    1    5 ar
     5    1   20 1
     6    1    7 ar
     7    6   25 1
     8    6    9 ar
     9    7    9 ar
    10    9   16 1
    11    7   13 1
    12   12   17 2
    13   11   19 1
    14   12   16 am
    15   16   31 1
    16   13   28 1
    17   13   26 1
    18   13   27 1
    19   12   14 1
    20    3   22 1
    21   33   36 2
    22    3   11 ar
    23    4   11 ar
    24    3    8 ar
    25   35   40 1
    26    4   23 1
    27    4   10 ar
    28    8   14 1
    29    2    8 ar
    30   35   36 1
    31   32   36 am
    32   35   39 1
    33   34   35 1
    34   14   29 1
    35   14   30 1
    36    2   10 ar
    37   10   18 1
    38    2   21 1
    39   32   37 1
    40   18   34 1
    41   32   34 1
    42   34   38 1
@<TRIPOS>MOLECULE
*****
   40    42     0     0     0
SMALL
NO_CHARGES

@<TRIPOS>ATOM
      1 C1          4.0960    1.7560   18.6080 C.ar      1 <0>         0.0000
      2 C2          7.9120   -3.7240   23.3510 C.ar      1 <0>         0.0000
      3 C3          8.5600   -2.6230   21.2720 C.ar      1 <0>         0.0000
      4 C4         10.1260   -3.0280   23.0880 C.ar      1 <0>         0.0000
      5 C5          4.4590    1.3650   17.3150 C.ar      1 <0>         0.0000
      6 C6          5.5860   -0.3870   18.2100 C.ar      1 <0>         0.0000
      7 C7          4.4720    0.9340   19.7590 C.ar      1 <0>         0.0000
      8 C8          7.5830   -3.1770   22.1240 C.ar      1 <0>         0.0000
      9 C9          5.2380   -0.1780   19.5170 C.ar      1 <0>         0.0000
     10 C10         9.2090   -3.6250   23.9350 C.ar      1 <0>         0.0000
     11 C11         9.9010   -2.5400   21.7890 C.ar      1 <0>         0.0000
     12 C12         5.7190   -2.4000   20.5010 C.2       1 <0>         0.0000
     13 C13         3.9750    1.4290   21.0270 C.3       1 <0>         0.0000
     14 C14         6.1130   -3.2420   21.7180 C.3       1 <0>         0.0000
     15 N1          5.2530    0.3230   17.1570 N.ar      1 <0>         0.0000
     16 N2          5.6510   -1.0710   20.5320 N.am      1 <0>         0.0000
     17 O1          5.3050   -2.9230   19.4560 O.2       1 <0>         0.0000
     18 O2          9.6270   -4.0720   25.1540 O.3       1 <0>         0.0000
     19 Cl1        11.2300   -1.8220   20.9620 Cl        1 <0>         0.0000
     20 H1          3.5940    2.7040   18.7570 H         1 <0>         0.0000
     21 H2          7.1050   -4.1580   23.9290 H         1 <0>         0.0000
     22 H3          8.3190   -2.2540   20.2850 H         1 <0>         0.0000
     23 H4         11.1780   -2.9810   23.3450 H         1 <0>         0.0000
     24 H5          4.2540    1.9340   16.4160 H         1 <0>         0.0000
     25 H6          6.2710   -1.2040   18.0010 H         1 <0>         0.0000
     26 H7          4.8010    1.9670   21.5010 H         1 <0>         0.0000
     27 H8          3.0420    2.0030   20.9420 H         1 <0>         0.0000
     28 H9          3.7220    0.5630   21.6430 H         1 <0>         0.0000
     29 H10         5.9250   -4.3100   21.5920 H         1 <0>         0.0000
     30 H11         5.4940   -2.9380   22.5690 H         1 <0>         0.0000
     31 H12         5.7580   -0.5870   21.4160 H         1 <0>         0.0000
     32 H13         6.6870   -4.3380   26.8900 H         1 <0>         0.0000
     33 H14         7.8530   -2.8930   26.7240 H         1 <0>         0.0000
     34 N3          9.3220   -5.3040   27.1340 N.am      1 <0>         0.0000
     35 O3          8.9320   -3.9090   28.8800 O.2       1 <0>         0.0000
     36 C15         8.7360   -4.7690   25.9530 C.3       1 <0>         0.0000
     37 C16         7.7190   -3.9760   26.8180 C.3       1 <0>         0.0000
     38 C17         8.6060   -4.4950   27.8960 C.2       1 <0>         0.0000
     39 H15        10.3200   -5.2900   27.3480 H         1 <0>         0.0000
     40 H16         8.2830   -5.4990   25.2710 H         1 <0>         0.0000
@<TRIPOS>BOND
     1    5   24 1
     2    5   15 ar
     3    6   15 ar
     4    1    5 ar
     5    6   25 1
     6    6    9 ar
     7    1   20 1
     8    1    7 ar
     9   12   17 2
    10    7    9 ar
    11    9   16 1
    12    7   13 1
    13    3   22 1
    14   12   16 am
    15   12   14 1
    16   16   31 1
    17   13   27 1
    18   11   19 1
    19   13   26 1
    20   13   28 1
    21    3   11 ar
    22    3    8 ar
    23   14   29 1
    24    8   14 1
    25   14   30 1
    26    4   11 ar
    27    2    8 ar
    28    4   23 1
    29    4   10 ar
    30    2   21 1
    31    2   10 ar
    32   10   18 1
    33   18   36 1
    34   36   40 1
    35   36   37 1
    36   34   36 1
    37   33   37 1
    38   32   37 1
    39   37   38 1
    40   34   39 1
    41   34   38 am
    42   35   38 2
@<TRIPOS>MOLECULE
*****
   40    42     0     0     0
SMALL
NO_CHARGES

@<TRIPOS>ATOM
      1 C1          5.0890    2.2260   18.5560 C.ar      1 <0>         0.0000
      2 C2         11.8110    2.3940   23.1120 C.ar      1 <0>         0.0000
      3 C3         11.7300    0.0070   22.8480 C.ar      1 <0>         0.0000
      4 C4         13.8530    1.0780   23.1250 C.ar      1 <0>         0.0000
      5 C5          5.7230    1.5740   17.4610 C.ar      1 <0>         0.0000
      6 C6          7.4920    0.9970   18.8090 C.ar      1 <0>         0.0000
      7 C7          5.6740    2.1730   19.8720 C.ar      1 <0>         0.0000
      8 C8         11.0880    1.2130   22.9130 C.ar      1 <0>         0.0000
      9 C9          6.8950    1.5550   20.0050 C.ar      1 <0>         0.0000
     10 C10        13.2930    2.3440   23.2360 C.ar      1 <0>         0.0000
     11 C11        13.0820   -0.0270   22.9520 C.ar      1 <0>         0.0000
     12 C12         8.9340    1.3340   21.5330 C.2       1 <0>         0.0000
     13 C13         4.9740    2.7130   21.1070 C.3       1 <0>         0.0000
     14 C14         9.5290    1.2070   22.9010 C.3       1 <0>         0.0000
     15 N1          6.9420    1.0090   17.6170 N.ar      1 <0>         0.0000
     16 N2          7.5600    1.3720   21.2440 N.am      1 <0>         0.0000
     17 O1          9.6180    1.7090   20.5830 O.2       1 <0>         0.0000
     18 O2         14.2300    3.4120   23.4270 O.3       1 <0>         0.0000
     19 Cl1        13.9030   -1.6290   22.6910 Cl        1 <0>         0.0000
     20 H1          4.1180    2.7010   18.3970 H         1 <0>         0.0000
     21 H2         11.3230    3.3470   23.2540 H         1 <0>         0.0000
     22 H3         11.2450   -0.9480   22.6800 H         1 <0>         0.0000
     23 H4         14.9180    0.8270   23.1490 H         1 <0>         0.0000
     24 H5          5.2500    1.6060   16.4800 H         1 <0>         0.0000
     25 H6          8.4190    0.4480   18.8780 H         1 <0>         0.0000
     26 H7          3.9650    3.0190   20.8130 H         1 <0>         0.0000
     27 H8          5.0730    2.0470   21.9710 H         1 <0>         0.0000
     28 H9          5.5150    3.6470   21.2580 H         1 <0>         0.0000
     29 H10         9.1320    0.3100   23.3870 H         1 <0>         0.0000
     30 H11         9.1420    2.0560   23.4650 H         1 <0>         0.0000
     31 H12         6.9710    1.3560   22.0720 H         1 <0>         0.0000
     32 H13        12.8000    4.8370   24.0890 H         1 <0>         0.0000
     33 H14        13.2360    4.7540   21.1330 H         1 <0>         0.0000
     34 H15        11.8230    5.3560   22.0400 H         1 <0>         0.0000
     35 N3         14.5360    5.7670   23.4380 N.am      1 <0>         0.0000
     36 O3         13.4850    7.5450   22.5350 O.2       1 <0>         0.0000
     37 C15        13.5700    4.7040   23.3330 C.3       1 <0>         0.0000
     38 C16        12.9190    5.2460   22.0570 C.3       1 <0>         0.0000
     39 C17        13.8250    6.3510   22.4610 C.2       1 <0>         0.0000
     40 H16        14.6030    6.3990   24.2380 H         1 <0>         0.0000
@<TRIPOS>BOND
     1    5   24 1
     2    5   15 ar
     3    1    5 ar
     4    6   15 ar
     5    1   20 1
     6    1    7 ar
     7    6   25 1
     8    6    9 ar
     9    7    9 ar
    10    7   13 1
    11    9   16 1
    12   12   17 2
    13   13   26 1
    14   13   28 1
    15   13   27 1
    16   33   38 1
    17   12   16 am
    18   16   31 1
    19   12   14 1
    20   34   38 1
    21   38   39 1
    22   37   38 1
    23   36   39 2
    24   35   39 am
    25    3   22 1
    26   11   19 1
    27    3    8 ar
    28    3   11 ar
    29    8   14 1
    30   14   29 1
    31   14   30 1
    32    2    8 ar
    33    4   11 ar
    34    2   10 ar
    35    2   21 1
    36    4   23 1
    37    4   10 ar
    38   10   18 1
    39   18   37 1
    40   35   37 1
    41   32   37 1
    42   35   40 1
@<TRIPOS>MOLECULE
*****
   42    44     0     0     0
SMALL
NO_CHARGES

@<TRIPOS>ATOM
      1 C1          4.2180    1.5360   19.2670 C.ar      1 <0>         0.0000
      2 C2         11.0860    1.8590   23.0220 C.ar      1 <0>         0.0000
      3 C3         11.2080   -0.5000   22.6560 C.ar      1 <0>         0.0000
      4 C4         13.1890    0.8170   22.6250 C.ar      1 <0>         0.0000
      5 C5          4.9340    1.2910   18.0980 C.ar      1 <0>         0.0000
      6 C6          6.7680    0.7010   19.3370 C.ar      1 <0>         0.0000
      7 C7          4.7800    1.3600   20.5380 C.ar      1 <0>         0.0000
      8 C8         10.4520    0.6150   22.9080 C.ar      1 <0>         0.0000
      9 C9          6.1090    0.9190   20.5770 C.ar      1 <0>         0.0000
     10 C10        12.5260    1.9720   22.9050 C.ar      1 <0>         0.0000
     11 C11        12.5900   -0.4070   22.5390 C.ar      1 <0>         0.0000
     12 C12         8.0620    1.1410   22.0840 C.2       1 <0>         0.0000
     13 C13         3.9970    1.7180   21.8020 C.3       1 <0>         0.0000
     14 C14         8.8870    0.3790   23.1100 C.3       1 <0>         0.0000
     15 N1          6.1760    0.8300   18.1150 N.ar      1 <0>         0.0000
     16 N2          6.7810    0.7770   21.8230 N.am      1 <0>         0.0000
     17 O1          8.5850    2.0240   21.3800 O.2       1 <0>         0.0000
     18 O2         13.2590    3.1020   23.0920 O.3       1 <0>         0.0000
     19 Cl1        13.5360   -1.8240   22.1560 Cl        1 <0>         0.0000
     20 H1          3.2160    1.9570   19.2390 H         1 <0>         0.0000
     21 H2         10.5860    2.8050   23.2020 H         1 <0>         0.0000
     22 H3         10.6920   -1.4490   22.7460 H         1 <0>         0.0000
     23 H4         14.2720    0.9140   22.6300 H         1 <0>         0.0000
     24 H5          4.3680    1.4150   17.1860 H         1 <0>         0.0000
     25 H6          7.7920    0.3660   19.4190 H         1 <0>         0.0000
     26 H7          3.9970    0.8410   22.4560 H         1 <0>         0.0000
     27 H8          4.4900    2.5270   22.3570 H         1 <0>         0.0000
     28 H9          2.9380    1.9300   21.6460 H         1 <0>         0.0000
     29 H10         8.5990   -0.6680   23.0190 H         1 <0>         0.0000
     30 H11         8.5760    0.6990   24.1120 H         1 <0>         0.0000
     31 H12         6.1910    0.5060   22.6190 H         1 <0>         0.0000
     32 C15        12.6040    4.3130   23.4060 C.3       1 <0>         0.0000
     33 C16        11.9130    5.0260   22.1520 C.3       1 <0>         0.0000
     34 C17        13.0140    6.0130   22.3240 C.3       1 <0>         0.0000
     35 H13        13.5630    6.0160   24.2970 H         1 <0>         0.0000
     36 H14        11.9830    4.2530   24.3030 H         1 <0>         0.0000
     37 H15        10.8920    5.3850   22.2830 H         1 <0>         0.0000
     38 H16        12.0410    4.4120   21.2500 H         1 <0>         0.0000
     39 N3         13.4750    5.4620   23.4330 N.3       1 <0>         0.0000
     40 O3         12.8740    7.2310   22.2160 O.3       1 <0>         0.0000
     41 H          13.0140    6.0130   22.3240 H         1 <0>         0.0000
     42 H          12.8740    7.2310   22.2160 H         1 <0>         0.0000
@<TRIPOS>BOND
     1    5   24 1
     2    5   15 ar
     3    1    5 ar
     4    6   15 ar
     5    1   20 1
     6    1    7 ar
     7    6   25 1
     8    6    9 ar
     9    7    9 ar
    10    7   13 1
    11    9   16 1
    12   33   38 1
    13   12   17 2
    14   13   28 1
    15   13   27 1
    16   13   26 1
    17   12   16 am
    18   16   31 1
    19   12   14 1
    20   33   37 1
    21   33   34 1
    22   32   33 1
    23   11   19 1
    24   34   40 1
    25   34   39 1
    26    4   11 ar
    27    3   11 ar
    28    4   23 1
    29    4   10 ar
    30    3   22 1
    31    3    8 ar
    32    2   10 ar
    33   10   18 1
    34    2    8 ar
    35    8   14 1
    36   14   29 1
    37    2   21 1
    38   18   32 1
    39   14   30 1
    40   32   39 1
    41   32   36 1
    42   35   39 1
    43   34   41 1
    44   40   42 1
@<TRIPOS>MOLECULE
*****
   42    44     0     0     0
SMALL
NO_CHARGES

@<TRIPOS>ATOM
      1 C1          5.1090    1.1740   20.1350 C.ar      1 <0>         0.0000
      2 C2         12.1760    0.6400   23.9280 C.ar      1 <0>         0.0000
      3 C3         11.9670   -1.1320   22.3060 C.ar      1 <0>         0.0000
      4 C4         14.1210   -0.3380   23.1210 C.ar      1 <0>         0.0000
      5 C5          5.6950    1.3260   18.8820 C.ar      1 <0>         0.0000
      6 C6          7.6760    0.4880   19.6130 C.ar      1 <0>         0.0000
      7 C7          5.8690    0.5960   21.1800 C.ar      1 <0>         0.0000
      8 C8         11.3480   -0.2340   23.2170 C.ar      1 <0>         0.0000
      9 C9          7.1790    0.1470   20.9000 C.ar      1 <0>         0.0000
     10 C10        13.4910    0.6930   23.7460 C.ar      1 <0>         0.0000
     11 C11        13.4020   -1.2160   22.2470 C.ar      1 <0>         0.0000
     12 C12         9.1850    0.1630   22.1690 C.2       1 <0>         0.0000
     13 C13         5.3900    0.4720   22.5220 C.3       1 <0>         0.0000
     14 C14         9.8890   -0.3060   23.4100 C.3       1 <0>         0.0000
     15 N1          6.9530    0.9110   18.5590 N.ar      1 <0>         0.0000
     16 N2          7.9860   -0.3990   21.8740 N.am      1 <0>         0.0000
     17 O1          9.6250    1.2290   21.6210 O.2       1 <0>         0.0000
     18 O2         14.3380    1.6630   24.2930 O.3       1 <0>         0.0000
     19 Cl1        14.2170   -2.4270   21.2560 Cl        1 <0>         0.0000
     20 H1          4.1380    1.5910   20.3920 H         1 <0>         0.0000
     21 H2         11.6140    1.3480   24.5300 H         1 <0>         0.0000
     22 H3         11.4790   -1.8230   21.6170 H         1 <0>         0.0000
     23 H4         15.2030   -0.3470   23.1120 H         1 <0>         0.0000
     24 H5          5.1030    1.8250   18.1180 H         1 <0>         0.0000
     25 H6          8.6740    0.1160   19.3930 H         1 <0>         0.0000
     26 H7          6.0010    1.1180   23.1600 H         1 <0>         0.0000
     27 H8          4.3460    0.8160   22.5100 H         1 <0>         0.0000
     28 H9          5.4200   -0.5840   22.8130 H         1 <0>         0.0000
     29 H10         9.5970   -1.3420   23.5790 H         1 <0>         0.0000
     30 H11         9.5820    0.2950   24.2740 H         1 <0>         0.0000
     31 H12         7.5830   -1.1380   22.4680 H         1 <0>         0.0000
     32 H13        13.3590    3.1250   25.4350 H         1 <0>         0.0000
     33 H14        12.8910    3.0070   22.3730 H         1 <0>         0.0000
     34 H15        12.2150    4.1470   23.5960 H         1 <0>         0.0000
     35 N3         14.9520    3.9820   24.2350 N.3       1 <0>         0.0000
     36 O3         14.9500    4.6430   22.0470 O.3       1 <0>         0.0000
     37 C15        13.9060    3.0240   24.4930 C.3       1 <0>         0.0000
     38 C16        13.1000    3.5990   23.2700 C.3       1 <0>         0.0000
     39 C17        14.3550    4.4350   23.1180 C.3       1 <0>         0.0000
     40 H16        15.8270    3.4720   24.1110 H         1 <0>         0.0000
     41 H          14.9500    4.6430   22.0470 H         1 <0>         0.0000
     42 H          14.3550    4.4350   23.1180 H         1 <0>         0.0000
@<TRIPOS>BOND
     1    5   24 1
     2    5   15 ar
     3    6   15 ar
     4    1    5 ar
     5    6   25 1
     6    6    9 ar
     7    1   20 1
     8    1    7 ar
     9    7    9 ar
    10    9   16 1
    11    7   13 1
    12   11   19 1
    13    3   22 1
    14   12   17 2
    15   12   16 am
    16   16   31 1
    17   36   39 1
    18   12   14 1
    19    3   11 ar
    20    4   11 ar
    21    3    8 ar
    22   33   38 1
    23   13   27 1
    24   13   28 1
    25   13   26 1
    26    4   23 1
    27   38   39 1
    28   35   39 1
    29    4   10 ar
    30    8   14 1
    31    2    8 ar
    32   34   38 1
    33   37   38 1
    34   14   29 1
    35   14   30 1
    36    2   10 ar
    37   10   18 1
    38    2   21 1
    39   35   40 1
    40   35   37 1
    41   18   37 1
    42   32   37 1
    43   36   41 1
    44   39   42 1
@<TRIPOS>MOLECULE
*****
   40    42     0     0     0
SMALL
NO_CHARGES

@<TRIPOS>ATOM
      1 C1          5.1470    0.8600   19.6640 C.ar      1 <0>         0.0000
      2 C2         12.1240    0.8160   23.3280 C.ar      1 <0>         0.0000
      3 C3         12.2610   -1.2940   22.1760 C.ar      1 <0>         0.0000
      4 C4         14.1960    0.1090   22.3740 C.ar      1 <0>         0.0000
      5 C5          5.6060    0.9400   18.3660 C.ar      1 <0>         0.0000
      6 C6          7.5620   -0.0660   19.0890 C.ar      1 <0>         0.0000
      7 C7          5.9050    0.5080   20.7630 C.ar      1 <0>         0.0000
      8 C8         11.4490   -0.3580   22.8550 C.ar      1 <0>         0.0000
      9 C9          7.1840    0.0500   20.4970 C.ar      1 <0>         0.0000
     10 C10        13.4980    1.0280   23.0810 C.ar      1 <0>         0.0000
     11 C11        13.6040   -1.0390   21.9630 C.ar      1 <0>         0.0000
     12 C12         9.2580   -0.0050   21.8340 C.2       1 <0>         0.0000
     13 C13         5.3790    0.6270   22.2170 C.3       1 <0>         0.0000
     14 C14         9.9770   -0.5390   23.0320 C.3       1 <0>         0.0000
     15 N1          6.7730    0.3800   18.1000 N.ar      1 <0>         0.0000
     16 N2          8.0200   -0.4360   21.5310 N.am      1 <0>         0.0000
     17 O1          9.7330    0.9250   21.1480 O.2       1 <0>         0.0000
     18 O2         14.2090    2.1830   23.4640 O.3       1 <0>         0.0000
     19 Cl1        14.6110   -2.3080   21.2330 Cl        1 <0>         0.0000
     20 H1          4.2350    1.3820   19.9240 H         1 <0>         0.0000
     21 H2         11.4930    1.5230   23.8510 H         1 <0>         0.0000
     22 H3         11.7740   -2.1610   21.7390 H         1 <0>         0.0000
     23 H4         15.2730    0.1300   22.2590 H         1 <0>         0.0000
     24 H5          5.0410    1.3470   17.5330 H         1 <0>         0.0000
     25 H6          8.5370   -0.4800   18.8310 H         1 <0>         0.0000
     26 H7          4.3780    1.0650   22.2300 H         1 <0>         0.0000
     27 H8          5.4300   -0.2870   22.8150 H         1 <0>         0.0000
     28 H9          6.0900    1.3330   22.6560 H         1 <0>         0.0000
     29 H10         9.7680   -1.6160   23.0790 H         1 <0>         0.0000
     30 H11         9.6520   -0.0690   23.9700 H         1 <0>         0.0000
     31 H12         7.5990   -1.0310   22.2450 H         1 <0>         0.0000
     32 H13        12.6070    3.3170   24.4760 H         1 <0>         0.0000
     33 H14        11.5010    3.8640   22.6970 H         1 <0>         0.0000
     34 H15        12.8960    3.7590   21.4930 H         1 <0>         0.0000
     35 N3         14.1200    4.6230   23.8480 N.am      1 <0>         0.0000
     36 O3         12.9710    6.4030   22.9110 O.2       1 <0>         0.0000
     37 C15        13.3700    3.3760   23.6920 C.3       1 <0>         0.0000
     38 C16        12.5610    4.0240   22.5020 C.3       1 <0>         0.0000
     39 C17        13.3340    5.2520   23.0030 C.2       1 <0>         0.0000
     40 H16        14.2270    5.0680   24.7590 H         1 <0>         0.0000
@<TRIPOS>BOND
     1    5   24 1
     2    5   15 ar
     3    6   15 ar
     4    1    5 ar
     5    6   25 1
     6    6    9 ar
     7    1   20 1
     8    1    7 ar
     9    7    9 ar
    10    9   16 1
    11    7   13 1
    12   12   17 2
    13   11   19 1
    14   34   38 1
    15   12   16 am
    16   16   31 1
    17    3   22 1
    18   12   14 1
    19    3   11 ar
    20    4   11 ar
    21    3    8 ar
    22   13   26 1
    23   13   28 1
    24   13   27 1
    25    4   23 1
    26    4   10 ar
    27   33   38 1
    28   38   39 1
    29   37   38 1
    30    8   14 1
    31    2    8 ar
    32   36   39 2
    33   35   39 am
    34   14   29 1
    35   14   30 1
    36    2   10 ar
    37   10   18 1
    38    2   21 1
    39   18   37 1
    40   35   37 1
    41   32   37 1
    42   35   40 1
@<TRIPOS>MOLECULE
*****
   40    42     0     0     0
SMALL
NO_CHARGES

@<TRIPOS>ATOM
      1 C1          5.6510    3.1130   19.1340 C.ar      1 <0>         0.0000
      2 C2         11.9170    2.6470   23.4280 C.ar      1 <0>         0.0000
      3 C3         11.8560    0.2770   22.9900 C.ar      1 <0>         0.0000
      4 C4         13.9120    1.5490   22.6760 C.ar      1 <0>         0.0000
      5 C5          6.2230    2.5270   18.0910 C.ar      1 <0>         0.0000
      6 C6          7.4090    1.0670   19.4470 C.ar      1 <0>         0.0000
      7 C7          6.0880    2.8570   20.4280 C.ar      1 <0>         0.0000
      8 C8         11.1850    1.5050   23.1620 C.ar      1 <0>         0.0000
      9 C9          7.0490    1.8560   20.5720 C.ar      1 <0>         0.0000
     10 C10        13.2970    2.7260   23.1700 C.ar      1 <0>         0.0000
     11 C11        13.2630    0.3130   22.6930 C.ar      1 <0>         0.0000
     12 C12         9.0830    1.5820   21.8910 C.2       1 <0>         0.0000
     13 C13         5.5380    3.6880   21.5130 C.3       1 <0>         0.0000
     14 C14         9.6720    1.5120   23.2630 C.3       1 <0>         0.0000
     15 N1          7.0670    1.4130   18.1900 N.ar      1 <0>         0.0000
     16 N2          7.7290    1.7580   21.8290 N.am      1 <0>         0.0000
     17 O1          9.7330    1.2240   20.9380 O.2       1 <0>         0.0000
     18 O2         14.1050    3.8620   23.5010 O.3       1 <0>         0.0000
     19 Cl1        13.9300   -1.1900   22.3080 Cl        1 <0>         0.0000
     20 H1          4.9560    3.9040   18.8860 H         1 <0>         0.0000
     21 H2         11.5050    3.5620   23.8250 H         1 <0>         0.0000
     22 H3         11.3000   -0.6470   23.0800 H         1 <0>         0.0000
     23 H4         14.9560    1.5130   22.4080 H         1 <0>         0.0000
     24 H5          6.0380    2.9010   17.0930 H         1 <0>         0.0000
     25 H6          8.1280    0.2580   19.5140 H         1 <0>         0.0000
     26 H7          6.2970    4.4220   21.7950 H         1 <0>         0.0000
     27 H8          4.7110    4.3130   21.1650 H         1 <0>         0.0000
     28 H9          5.0900    3.0260   22.2510 H         1 <0>         0.0000
     29 H10         9.2870    0.5810   23.6930 H         1 <0>         0.0000
     30 H11         9.2380    2.2500   23.9450 H         1 <0>         0.0000
     31 H12         7.3640    2.2780   22.6220 H         1 <0>         0.0000
     32 C15        13.6310    5.1390   23.0940 C.3       1 <0>         0.0000
     33 C16        14.6890    5.8260   22.1330 C.3       1 <0>         0.0000
     34 C17        14.6520    6.8010   23.2550 C.2       1 <0>         0.0000
     35 H13        13.1700    6.7390   24.6840 H         1 <0>         0.0000
     36 H14        12.6250    5.2570   22.6810 H         1 <0>         0.0000
     37 H15        14.4010    6.2870   21.1870 H         1 <0>         0.0000
     38 H16        15.6330    5.2760   22.1070 H         1 <0>         0.0000
     39 N3         13.7710    6.2040   24.0680 N.am      1 <0>         0.0000
     40 O3         14.8190    8.0320   23.2710 O.2       1 <0>         0.0000
@<TRIPOS>BOND
     1    5   24 1
     2    5   15 ar
     3    1    5 ar
     4    6   15 ar
     5    1   20 1
     6    1    7 ar
     7    6   25 1
     8    6    9 ar
     9    7    9 ar
    10    7   13 1
    11    9   16 1
    12   12   17 2
    13   13   27 1
    14   33   37 1
    15   13   26 1
    16   13   28 1
    17   12   16 am
    18   16   31 1
    19   12   14 1
    20   33   38 1
    21   32   33 1
    22   33   34 1
    23   11   19 1
    24    4   23 1
    25    4   11 ar
    26    4   10 ar
    27   32   36 1
    28    3   11 ar
    29    3   22 1
    30    3    8 ar
    31   18   32 1
    32   32   39 1
    33    8   14 1
    34    2    8 ar
    35    2   10 ar
    36   10   18 1
    37   34   40 2
    38   34   39 am
    39   14   29 1
    40   14   30 1
    41    2   21 1
    42   35   39 1
@<TRIPOS>MOLECULE
*****
   40    42     0     0     0
SMALL
NO_CHARGES

@<TRIPOS>ATOM
      1 C1          3.8280    1.2280   19.4110 C.ar      1 <0>         0.0000
      2 C2         10.7950    1.8550   23.1000 C.ar      1 <0>         0.0000
      3 C3         11.2370   -0.1450   21.8590 C.ar      1 <0>         0.0000
      4 C4         13.0460    1.3840   22.3520 C.ar      1 <0>         0.0000
      5 C5          4.4330    1.1630   18.1580 C.ar      1 <0>         0.0000
      6 C6          6.3060    0.1550   19.0450 C.ar      1 <0>         0.0000
      7 C7          4.5010    0.7850   20.5310 C.ar      1 <0>         0.0000
      8 C8         10.3130    0.6650   22.6200 C.ar      1 <0>         0.0000
      9 C9          5.8360    0.3730   20.3070 C.ar      1 <0>         0.0000
     10 C10        12.1360    2.2130   23.0630 C.ar      1 <0>         0.0000
     11 C11        12.5700    0.2560   21.7590 C.ar      1 <0>         0.0000
     12 C12         8.0120    0.6150   21.5280 C.2       1 <0>         0.0000
     13 C13         3.8750    0.7610   21.8750 C.3       1 <0>         0.0000
     14 C14         8.8220    0.2990   22.7030 C.3       1 <0>         0.0000
     15 N1          5.5730    0.4930   17.9300 N.ar      1 <0>         0.0000
     16 N2          6.6980    0.2140   21.3910 N.am      1 <0>         0.0000
     17 O1          8.4090    1.4730   20.7100 O.2       1 <0>         0.0000
     18 O2         12.6380    3.3300   23.6960 O.3       1 <0>         0.0000
     19 Cl1        13.5180   -0.7330   20.7930 Cl        1 <0>         0.0000
     20 H1          2.8390    1.6670   19.4660 H         1 <0>         0.0000
     21 H2         10.0670    2.4680   23.6230 H         1 <0>         0.0000
     22 H3         10.9360   -1.0540   21.3370 H         1 <0>         0.0000
     23 H4         14.1230    1.4960   22.3760 H         1 <0>         0.0000
     24 H5          3.9240    1.5190   17.2570 H         1 <0>         0.0000
     25 H6          7.2820   -0.2690   18.8530 H         1 <0>         0.0000
     26 H7          4.1390   -0.0250   22.6030 H         1 <0>         0.0000
     27 H8          4.1010    1.6490   22.4660 H         1 <0>         0.0000
     28 H9          2.7870    0.7100   21.7640 H         1 <0>         0.0000
     29 H10         8.7550   -0.7550   23.0000 H         1 <0>         0.0000
     30 H11         8.2500    0.8070   23.4860 H         1 <0>         0.0000
     31 H12         6.3670   -0.1710   22.2800 H         1 <0>         0.0000
     32 N3         12.3800    5.5900   24.4610 N.am      1 <0>         0.0000
     33 O3         12.5210    7.2780   22.9220 O.2       1 <0>         0.0000
     34 C15        11.7350    4.3950   23.9710 C.3       1 <0>         0.0000
     35 C16        11.2190    5.1980   22.7160 C.3       1 <0>         0.0000
     36 C17        11.9580    6.2910   23.4270 C.2       1 <0>         0.0000
     37 H13        13.3570    5.5630   24.7590 H         1 <0>         0.0000
     38 H14        10.9610    4.0390   24.6640 H         1 <0>         0.0000
     39 H15        10.1520    5.4070   22.5930 H         1 <0>         0.0000
     40 H16        11.6480    4.8470   21.7660 H         1 <0>         0.0000
@<TRIPOS>BOND
     1    5   24 1
     2    5   15 ar
     3    6   15 ar
     4    1    5 ar
     5    6   25 1
     6    6    9 ar
     7    1   20 1
     8    1    7 ar
     9    7    9 ar
    10    9   16 1
    11    7   13 1
    12   12   17 2
    13   11   19 1
    14    3   22 1
    15   12   16 am
    16   16   31 1
    17   12   14 1
    18    3   11 ar
    19    4   11 ar
    20   13   28 1
    21   35   40 1
    22    3    8 ar
    23   13   27 1
    24   13   26 1
    25    4   23 1
    26    4   10 ar
    27   35   39 1
    28    8   14 1
    29    2    8 ar
    30   14   29 1
    31   14   30 1
    32   35   36 1
    33   34   35 1
    34   33   36 2
    35    2   10 ar
    36   10   18 1
    37    2   21 1
    38   32   36 am
    39   18   34 1
    40   32   34 1
    41   34   38 1
    42   32   37 1
@<TRIPOS>MOLECULE
*****
   40    42     0     0     0
SMALL
NO_CHARGES

@<TRIPOS>ATOM
      1 C1          5.6060    0.3490   20.4890 C.ar      1 <0>         0.0000
      2 C2         13.1820    1.8130   23.4060 C.ar      1 <0>         0.0000
      3 C3         13.0670   -0.2050   22.1360 C.ar      1 <0>         0.0000
      4 C4         15.0900    0.9230   22.2940 C.ar      1 <0>         0.0000
      5 C5          5.9820    0.4850   19.1470 C.ar      1 <0>         0.0000
      6 C6          8.1450    0.4680   19.8340 C.ar      1 <0>         0.0000
      7 C7          6.4280    0.4060   21.5620 C.ar      1 <0>         0.0000
      8 C8         12.4140    0.6920   23.0130 C.ar      1 <0>         0.0000
      9 C9          7.7860    0.4910   21.2470 C.ar      1 <0>         0.0000
     10 C10        14.5630    1.9830   23.0040 C.ar      1 <0>         0.0000
     11 C11        14.3530   -0.1000   21.7460 C.ar      1 <0>         0.0000
     12 C12         9.9620    0.9830   22.3170 C.2       1 <0>         0.0000
     13 C13         5.7910    0.3370   23.0070 C.3       1 <0>         0.0000
     14 C14        10.9380    0.4820   23.4000 C.3       1 <0>         0.0000
     15 N1          7.2800    0.4970   18.7590 N.ar      1 <0>         0.0000
     16 N2          8.7280    0.4100   22.3400 N.am      1 <0>         0.0000
     17 O1         10.3430    1.8820   21.5900 O.2       1 <0>         0.0000
     18 O2         15.3500    3.0540   23.2750 O.3       1 <0>         0.0000
     19 Cl1        15.0840   -1.1440   20.4710 Cl        1 <0>         0.0000
     20 H1          4.5420    0.1840   20.5950 H         1 <0>         0.0000
     21 H2         12.6280    2.5050   24.0260 H         1 <0>         0.0000
     22 H3         12.5040   -1.0040   21.6660 H         1 <0>         0.0000
     23 H4         16.1510    0.9000   22.0500 H         1 <0>         0.0000
     24 H5          5.1690    0.5630   18.4360 H         1 <0>         0.0000
     25 H6          9.2100    0.4670   19.6350 H         1 <0>         0.0000
     26 H7          5.8130   -0.6460   23.4900 H         1 <0>         0.0000
     27 H8          6.3620    0.9830   23.6820 H         1 <0>         0.0000
     28 H9          4.7700    0.7140   23.0320 H         1 <0>         0.0000
     29 H10        10.7810   -0.5700   23.6410 H         1 <0>         0.0000
     30 H11        10.7530    1.1010   24.2790 H         1 <0>         0.0000
     31 H12         8.4980    0.0900   23.2850 H         1 <0>         0.0000
     32 C15        14.7210    4.2230   23.7850 C.3       1 <0>         0.0000
     33 C16        13.6710    4.8240   22.8560 C.3       1 <0>         0.0000
     34 C17        14.5960    6.0340   23.0270 C.2       1 <0>         0.0000
     35 H13        16.0620    5.9080   24.4200 H         1 <0>         0.0000
     36 H14        14.2820    3.9300   24.7430 H         1 <0>         0.0000
     37 H15        12.6630    4.9000   23.2820 H         1 <0>         0.0000
     38 H16        13.6860    4.4230   21.8320 H         1 <0>         0.0000
     39 N3         15.5710    5.4200   23.6800 N.am      1 <0>         0.0000
     40 O3         14.1550    7.1840   23.1090 O.2       1 <0>         0.0000
@<TRIPOS>BOND
     1    5   24 1
     2    5   15 ar
     3    6   15 ar
     4    1    5 ar
     5    6   25 1
     6    6    9 ar
     7   11   19 1
     8    1   20 1
     9    1    7 ar
    10    7    9 ar
    11    9   16 1
    12    7   13 1
    13   12   17 2
    14    3   22 1
    15    3   11 ar
    16    4   11 ar
    17   33   38 1
    18    4   23 1
    19    3    8 ar
    20    4   10 ar
    21   12   16 am
    22   12   14 1
    23   16   31 1
    24   33   34 1
    25   33   37 1
    26   32   33 1
    27   10   18 1
    28    2   10 ar
    29   13   28 1
    30   13   26 1
    31   13   27 1
    32    8   14 1
    33    2    8 ar
    34   34   40 2
    35   34   39 am
    36   18   32 1
    37   14   29 1
    38   14   30 1
    39    2   21 1
    40   32   39 1
    41   35   39 1
    42   32   36 1
@<TRIPOS>MOLECULE
*****
   40    42     0     0     0
SMALL
NO_CHARGES

@<TRIPOS>ATOM
      1 C1          5.3400    0.6360   20.2110 C.ar      1 <0>         0.0000
      2 C2         12.7120    0.8280   22.8760 C.ar      1 <0>         0.0000
      3 C3         12.6040   -1.2960   21.7980 C.ar      1 <0>         0.0000
      4 C4         14.5740   -0.0040   21.7310 C.ar      1 <0>         0.0000
      5 C5          5.7120    0.6000   18.8910 C.ar      1 <0>         0.0000
      6 C6          7.8490   -0.0930   19.4450 C.ar      1 <0>         0.0000
      7 C7          6.2070    0.2820   21.2240 C.ar      1 <0>         0.0000
      8 C8         11.9650   -0.3400   22.5490 C.ar      1 <0>         0.0000
      9 C9          7.5120   -0.0400   20.8260 C.ar      1 <0>         0.0000
     10 C10        14.0260    1.0050   22.3900 C.ar      1 <0>         0.0000
     11 C11        13.8900   -1.1650   21.3750 C.ar      1 <0>         0.0000
     12 C12         9.6380    0.0780   21.9760 C.2       1 <0>         0.0000
     13 C13         5.7910    0.2470   22.6160 C.3       1 <0>         0.0000
     14 C14        10.5650   -0.4840   23.0630 C.3       1 <0>         0.0000
     15 N1          6.9350    0.2800   18.4520 N.ar      1 <0>         0.0000
     16 N2          8.3560   -0.4690   21.8560 N.am      1 <0>         0.0000
     17 O1          9.9770    1.0710   21.3780 O.2       1 <0>         0.0000
     18 O2         14.7870    2.1040   22.6280 O.3       1 <0>         0.0000
     19 Cl1        14.7240   -2.3880   20.5180 Cl        1 <0>         0.0000
     20 H1          4.2990    0.8410   20.4230 H         1 <0>         0.0000
     21 H2         12.2230    1.5990   23.4670 H         1 <0>         0.0000
     22 H3         12.0550   -2.1930   21.5270 H         1 <0>         0.0000
     23 H4         15.5420    0.2420   21.2950 H         1 <0>         0.0000
     24 H5          4.9750    0.8140   18.1170 H         1 <0>         0.0000
     25 H6          8.8300   -0.3280   19.0650 H         1 <0>         0.0000
     26 H7          5.7600   -0.7770   23.0090 H         1 <0>         0.0000
     27 H8          6.5090    0.8040   23.2270 H         1 <0>         0.0000
     28 H9          4.7950    0.6690   22.7930 H         1 <0>         0.0000
     29 H10        10.3590   -1.5480   23.1940 H         1 <0>         0.0000
     30 H11        10.4200   -0.0060   24.0430 H         1 <0>         0.0000
     31 H12         8.1050   -1.0930   22.6310 H         1 <0>         0.0000
     32 H13        14.1020    4.0270   20.8770 H         1 <0>         0.0000
     33 H14        12.9340    4.8330   21.9540 H         1 <0>         0.0000
     34 N3         15.2190    4.2580   23.5330 N.am      1 <0>         0.0000
     35 O3         15.7020    6.0550   22.2940 O.2       1 <0>         0.0000
     36 C15        14.1770    3.3220   23.0410 C.3       1 <0>         0.0000
     37 C16        13.9220    4.3750   21.8990 C.3       1 <0>         0.0000
     38 C17        14.9730    5.1500   22.6040 C.2       1 <0>         0.0000
     39 H15        16.1920    4.0250   23.7200 H         1 <0>         0.0000
     40 H16        13.3210    3.1680   23.6860 H         1 <0>         0.0000
@<TRIPOS>BOND
     1    5   24 1
     2    5   15 ar
     3    6   15 ar
     4    1    5 ar
     5    6   25 1
     6    6    9 ar
     7    1   20 1
     8    1    7 ar
     9   11   19 1
    10    7    9 ar
    11    9   16 1
    12   32   37 1
    13    7   13 1
    14    4   23 1
    15    4   11 ar
    16    3   11 ar
    17   12   17 2
    18    3   22 1
    19    4   10 ar
    20    3    8 ar
    21   12   16 am
    22   16   31 1
    23   33   37 1
    24   37   38 1
    25   36   37 1
    26   12   14 1
    27   35   38 2
    28   10   18 1
    29    2   10 ar
    30    2    8 ar
    31    8   14 1
    32   34   38 am
    33   13   28 1
    34   13   26 1
    35   13   27 1
    36   18   36 1
    37    2   21 1
    38   34   36 1
    39   36   40 1
    40   14   29 1
    41   14   30 1
    42   34   39 1
@<TRIPOS>MOLECULE
*****
   42    44     0     0     0
SMALL
NO_CHARGES

@<TRIPOS>ATOM
      1 C1          5.4710    0.8870   19.5820 C.ar      1 <0>         0.0000
      2 C2         12.4140    3.7010   23.4630 C.ar      1 <0>         0.0000
      3 C3         12.3920    1.3720   22.8250 C.ar      1 <0>         0.0000
      4 C4         14.4810    2.6230   22.9040 C.ar      1 <0>         0.0000
      5 C5          6.0900    0.2640   18.5040 C.ar      1 <0>         0.0000
      6 C6          8.1210    0.3540   19.6310 C.ar      1 <0>         0.0000
      7 C7          6.1220    1.2990   20.7080 C.ar      1 <0>         0.0000
      8 C8         11.6580    2.5690   23.1430 C.ar      1 <0>         0.0000
      9 C9          7.5400    1.0210   20.7620 C.ar      1 <0>         0.0000
     10 C10        13.8160    3.8430   23.3380 C.ar      1 <0>         0.0000
     11 C11        13.7900    1.3980   22.7170 C.ar      1 <0>         0.0000
     12 C12         9.5460    1.8540   21.9590 C.2       1 <0>         0.0000
     13 C13         5.4160    2.0130   21.8070 C.3       1 <0>         0.0000
     14 C14        10.1430    2.5350   23.2330 C.3       1 <0>         0.0000
     15 N1          7.4760   -0.0260   18.5040 N.ar      1 <0>         0.0000
     16 N2          8.2730    1.3300   21.9350 N.am      1 <0>         0.0000
     17 O1         10.1920    1.7140   20.9560 O.2       1 <0>         0.0000
     18 O2         14.6080    4.9220   23.6050 O.3       1 <0>         0.0000
     19 Cl1        14.6890   -0.0150   22.5340 Cl        1 <0>         0.0000
     20 H1          4.4500    1.2060   19.4190 H         1 <0>         0.0000
     21 H2         11.7970    4.5560   23.7160 H         1 <0>         0.0000
     22 H3         11.9230    0.4010   22.7250 H         1 <0>         0.0000
     23 H4         15.5530    2.6370   22.7630 H         1 <0>         0.0000
     24 H5          5.4460    0.1600   17.6400 H         1 <0>         0.0000
     25 H6          9.1430    0.0110   19.6690 H         1 <0>         0.0000
     26 H7          5.8520    2.9590   22.1640 H         1 <0>         0.0000
     27 H8          4.4270    2.2450   21.3880 H         1 <0>         0.0000
     28 H9          5.2880    1.3360   22.6530 H         1 <0>         0.0000
     29 H10         9.8170    2.0500   24.1710 H         1 <0>         0.0000
     30 H11         9.6490    3.5030   23.3210 H         1 <0>         0.0000
     31 H12         7.6930    1.4580   22.7580 H         1 <0>         0.0000
     32 H13        12.2170    7.2650   23.3250 H         1 <0>         0.0000
     33 H14        13.4790    6.9730   22.1130 H         1 <0>         0.0000
     34 N3         14.6950    7.0840   24.7190 N.3       1 <0>         0.0000
     35 O3         13.7230    9.0830   24.4160 O.3       1 <0>         0.0000
     36 C15        13.9000    6.0310   24.1740 C.3       1 <0>         0.0000
     37 C16        13.2970    7.0950   23.1830 C.3       1 <0>         0.0000
     38 C17        14.1180    8.0210   23.9600 C.3       1 <0>         0.0000
     39 H15        14.5160    7.3560   25.6830 H         1 <0>         0.0000
     40 H16        13.2450    5.6630   24.9630 H         1 <0>         0.0000
     41 H          13.7230    9.0830   24.4160 H         1 <0>         0.0000
     42 H          14.1180    8.0210   23.9600 H         1 <0>         0.0000
@<TRIPOS>BOND
     1    5   24 1
     2    5   15 ar
     3    1    5 ar
     4    6   15 ar
     5    1   20 1
     6    1    7 ar
     7    6   25 1
     8    6    9 ar
     9    7    9 ar
    10    7   13 1
    11    9   16 1
    12   12   17 2
    13   13   27 1
    14   13   26 1
    15   13   28 1
    16   12   16 am
    17   16   31 1
    18   12   14 1
    19   33   37 1
    20   11   19 1
    21    3   11 ar
    22    4   11 ar
    23    3   22 1
    24    4   23 1
    25    3    8 ar
    26    4   10 ar
    27    8   14 1
    28    2    8 ar
    29   32   37 1
    30   37   38 1
    31   36   37 1
    32   14   30 1
    33   14   29 1
    34    2   10 ar
    35   10   18 1
    36    2   21 1
    37   18   36 1
    38   35   38 1
    39   34   38 1
    40   34   36 1
    41   36   40 1
    42   34   39 1
    43   35   41 1
    44   38   42 1
@<TRIPOS>MOLECULE
*****
   40    42     0     0     0
SMALL
NO_CHARGES

@<TRIPOS>ATOM
      1 C1          6.0400    2.0020   19.3800 C.ar      1 <0>         0.0000
      2 C2         12.0360    0.9490   23.3280 C.ar      1 <0>         0.0000
      3 C3         12.3600   -1.2460   22.4280 C.ar      1 <0>         0.0000
      4 C4         14.2540    0.2190   22.7060 C.ar      1 <0>         0.0000
      5 C5          6.1980    1.2600   18.1780 C.ar      1 <0>         0.0000
      6 C6          8.0790    0.2770   19.0540 C.ar      1 <0>         0.0000
      7 C7          6.8770    1.8580   20.4490 C.ar      1 <0>         0.0000
      8 C8         11.5100   -0.2580   22.9440 C.ar      1 <0>         0.0000
      9 C9          7.9810    0.9860   20.2430 C.ar      1 <0>         0.0000
     10 C10        13.3720    1.2330   23.2060 C.ar      1 <0>         0.0000
     11 C11        13.7410   -0.9960   22.2740 C.ar      1 <0>         0.0000
     12 C12         9.2770   -0.3520   21.7670 C.2       1 <0>         0.0000
     13 C13         6.7040    2.5670   21.7570 C.3       1 <0>         0.0000
     14 C14         9.9960   -0.4420   23.0970 C.3       1 <0>         0.0000
     15 N1          7.2320    0.4150   18.0150 N.ar      1 <0>         0.0000
     16 N2          8.8180    0.8340   21.3230 N.am      1 <0>         0.0000
     17 O1          9.0210   -1.3730   21.1420 O.2       1 <0>         0.0000
     18 O2         13.9580    2.4030   23.6090 O.3       1 <0>         0.0000
     19 Cl1        14.8540   -2.2650   21.7900 Cl        1 <0>         0.0000
     20 H1          5.2000    2.6800   19.4470 H         1 <0>         0.0000
     21 H2         11.3900    1.7030   23.7790 H         1 <0>         0.0000
     22 H3         11.9500   -2.2290   22.2270 H         1 <0>         0.0000
     23 H4         15.3350    0.1920   22.7520 H         1 <0>         0.0000
     24 H5          5.4810    1.3580   17.3680 H         1 <0>         0.0000
     25 H6          8.9410   -0.3730   18.9300 H         1 <0>         0.0000
     26 H7          6.7660    1.9650   22.6590 H         1 <0>         0.0000
     27 H8          7.4200    3.3960   21.8140 H         1 <0>         0.0000
     28 H9          5.7120    3.0190   21.8120 H         1 <0>         0.0000
     29 H10         9.9420   -1.4940   23.4000 H         1 <0>         0.0000
     30 H11         9.7040    0.2100   23.9320 H         1 <0>         0.0000
     31 H12         9.0110    1.6230   21.9350 H         1 <0>         0.0000
     32 C15        13.4950    3.6390   23.0280 C.3       1 <0>         0.0000
     33 C16        14.1220    4.1950   21.6890 C.3       1 <0>         0.0000
     34 C17        14.2600    5.4520   22.5400 C.2       1 <0>         0.0000
     35 H13        13.1670    5.3850   24.2230 H         1 <0>         0.0000
     36 H14        12.4060    3.6620   22.9790 H         1 <0>         0.0000
     37 H15        15.1100    3.7810   21.4520 H         1 <0>         0.0000
     38 H16        13.4920    4.2870   20.7990 H         1 <0>         0.0000
     39 N3         13.8810    4.8750   23.6980 N.am      1 <0>         0.0000
     40 O3         14.1260    6.5620   22.0890 O.2       1 <0>         0.0000
@<TRIPOS>BOND
     1    5   24 1
     2    5   15 ar
     3    6   15 ar
     4    1    5 ar
     5    6   25 1
     6    6    9 ar
     7    1   20 1
     8    1    7 ar
     9    7    9 ar
    10    9   16 1
    11    7   13 1
    12   33   38 1
    13   12   17 2
    14   12   16 am
    15   16   31 1
    16   33   37 1
    17   33   34 1
    18   32   33 1
    19   13   28 1
    20   13   27 1
    21   13   26 1
    22   12   14 1
    23   11   19 1
    24   34   40 2
    25    3   22 1
    26    3   11 ar
    27    4   11 ar
    28    3    8 ar
    29   34   39 am
    30    4   23 1
    31    4   10 ar
    32    8   14 1
    33    2    8 ar
    34   32   36 1
    35   18   32 1
    36   32   39 1
    37   14   29 1
    38   14   30 1
    39    2   10 ar
    40   10   18 1
    41    2   21 1
    42   35   39 1
@<TRIPOS>MOLECULE
*****
   40    42     0     0     0
SMALL
NO_CHARGES

@<TRIPOS>ATOM
      1 C1          5.5500    1.0790   19.3850 C.ar      1 <0>         0.0000
      2 C2         12.5370    1.6880   23.3450 C.ar      1 <0>         0.0000
      3 C3         12.8250   -0.5520   22.5430 C.ar      1 <0>         0.0000
      4 C4         14.7590    0.8370   22.8400 C.ar      1 <0>         0.0000
      5 C5          6.2320    0.8400   18.2010 C.ar      1 <0>         0.0000
      6 C6          8.0840    0.2460   19.3110 C.ar      1 <0>         0.0000
      7 C7          6.2550    0.9920   20.6090 C.ar      1 <0>         0.0000
      8 C8         11.9750    0.4700   23.0060 C.ar      1 <0>         0.0000
      9 C9          7.5420    0.4960   20.6070 C.ar      1 <0>         0.0000
     10 C10        13.9950    1.8780   23.2400 C.ar      1 <0>         0.0000
     11 C11        14.1920   -0.3840   22.4810 C.ar      1 <0>         0.0000
     12 C12         9.5170    0.7760   22.0500 C.2       1 <0>         0.0000
     13 C13         5.5230    1.4000   21.9140 C.3       1 <0>         0.0000
     14 C14        10.4650    0.2900   23.1470 C.3       1 <0>         0.0000
     15 N1          7.4880    0.4490   18.1360 N.ar      1 <0>         0.0000
     16 N2          8.2740    0.3010   21.8010 N.am      1 <0>         0.0000
     17 O1         10.0750    1.5150   21.2460 O.2       1 <0>         0.0000
     18 O2         14.6990    2.9760   23.5150 O.3       1 <0>         0.0000
     19 Cl1        15.1890   -1.7150   22.0860 Cl        1 <0>         0.0000
     20 H1          4.5010    1.3810   19.4340 H         1 <0>         0.0000
     21 H2         11.9240    2.5070   23.6990 H         1 <0>         0.0000
     22 H3         12.3680   -1.5300   22.4750 H         1 <0>         0.0000
     23 H4         15.8010    1.0200   22.6220 H         1 <0>         0.0000
     24 H5          5.7270    1.0420   17.2540 H         1 <0>         0.0000
     25 H6          9.1350   -0.0370   19.3740 H         1 <0>         0.0000
     26 H7          5.1810    2.4340   21.8930 H         1 <0>         0.0000
     27 H8          4.5900    0.8180   21.9400 H         1 <0>         0.0000
     28 H9          6.0230    1.2110   22.8700 H         1 <0>         0.0000
     29 H10        10.3340   -0.7530   23.4480 H         1 <0>         0.0000
     30 H11        10.1850    0.8830   24.0260 H         1 <0>         0.0000
     31 H12         7.8140   -0.1200   22.6070 H         1 <0>         0.0000
     32 C15        13.9850    4.0980   23.8190 C.3       1 <0>         0.0000
     33 C16        13.3650    4.8680   22.5730 C.3       1 <0>         0.0000
     34 C17        14.0160    6.0160   23.2820 C.2       1 <0>         0.0000
     35 H13        14.4240    5.5580   25.2280 H         1 <0>         0.0000
     36 H14        13.2360    3.8460   24.5660 H         1 <0>         0.0000
     37 H15        12.2760    4.8050   22.5680 H         1 <0>         0.0000
     38 H16        13.8160    4.5780   21.6220 H         1 <0>         0.0000
     39 N3         14.6470    5.3030   24.2680 N.am      1 <0>         0.0000
     40 O3         13.6710    7.1990   23.3820 O.2       1 <0>         0.0000
@<TRIPOS>BOND
     1    5   24 1
     2    5   15 ar
     3    6   15 ar
     4    1    5 ar
     5    6   25 1
     6    6    9 ar
     7    1   20 1
     8    1    7 ar
     9    7    9 ar
    10    9   16 1
    11    7   13 1
    12   12   17 2
    13   33   38 1
    14   12   16 am
    15   16   31 1
    16   13   26 1
    17   13   27 1
    18   13   28 1
    19   12   14 1
    20   11   19 1
    21    3   22 1
    22    3   11 ar
    23    4   11 ar
    24    3    8 ar
    25   33   37 1
    26   33   34 1
    27   32   33 1
    28    4   23 1
    29    4   10 ar
    30    8   14 1
    31    2    8 ar
    32   14   29 1
    33   14   30 1
    34    2   10 ar
    35   10   18 1
    36   34   40 2
    37   34   39 am
    38    2   21 1
    39   18   32 1
    40   32   39 1
    41   32   36 1
    42   35   39 1
@<TRIPOS>MOLECULE
*****
   40    42     0     0     0
SMALL
NO_CHARGES

@<TRIPOS>ATOM
      1 C1          6.4480    1.0260   20.0350 C.ar      1 <0>         0.0000
      2 C2         12.7180    0.6200   23.1240 C.ar      1 <0>         0.0000
      3 C3         13.2830   -1.5300   22.0890 C.ar      1 <0>         0.0000
      4 C4         14.6750    0.4610   21.6250 C.ar      1 <0>         0.0000
      5 C5          6.4000    0.1090   19.0120 C.ar      1 <0>         0.0000
      6 C6          8.1690   -1.0650   19.7800 C.ar      1 <0>         0.0000
      7 C7          7.3660    0.8390   21.0860 C.ar      1 <0>         0.0000
      8 C8         12.4290   -0.7580   22.9450 C.ar      1 <0>         0.0000
      9 C9          8.2480   -0.2890   20.9760 C.ar      1 <0>         0.0000
     10 C10        13.7820    1.2410   22.3180 C.ar      1 <0>         0.0000
     11 C11        14.4510   -0.9360   21.5330 C.ar      1 <0>         0.0000
     12 C12         9.9900   -1.5790   22.2990 C.2       1 <0>         0.0000
     13 C13         7.5900    1.9780   22.0340 C.3       1 <0>         0.0000
     14 C14        11.0970   -1.4070   23.3720 C.3       1 <0>         0.0000
     15 N1          7.1850   -0.9280   18.8480 N.ar      1 <0>         0.0000
     16 N2          9.2110   -0.4730   22.0270 N.am      1 <0>         0.0000
     17 O1          9.5660   -2.6320   21.8870 O.2       1 <0>         0.0000
     18 O2         13.9500    2.6000   22.1120 O.3       1 <0>         0.0000
     19 Cl1        15.5630   -1.9470   20.8220 Cl        1 <0>         0.0000
     20 H1          5.7500    1.8500   19.9450 H         1 <0>         0.0000
     21 H2         12.0810    1.2060   23.7750 H         1 <0>         0.0000
     22 H3         13.1000   -2.5430   21.7440 H         1 <0>         0.0000
     23 H4         15.5510    0.8250   21.1090 H         1 <0>         0.0000
     24 H5          5.6670    0.2710   18.2290 H         1 <0>         0.0000
     25 H6          8.8940   -1.8590   19.7950 H         1 <0>         0.0000
     26 H7          7.0280    2.8650   21.7170 H         1 <0>         0.0000
     27 H8          7.3940    1.7460   23.0820 H         1 <0>         0.0000
     28 H9          8.6580    2.2000   21.9750 H         1 <0>         0.0000
     29 H10        11.3460   -2.4340   23.6560 H         1 <0>         0.0000
     30 H11        10.7440   -0.8610   24.2540 H         1 <0>         0.0000
     31 H12         9.4690    0.3570   22.5680 H         1 <0>         0.0000
     32 H13        11.4410    2.9230   21.1730 H         1 <0>         0.0000
     33 H14        10.7840    3.3790   22.8540 H         1 <0>         0.0000
     34 N3         13.2670    4.7960   22.4070 N.am      1 <0>         0.0000
     35 O3         11.3030    5.9340   21.9320 O.2       1 <0>         0.0000
     36 C15        13.0290    3.4330   22.7180 C.3       1 <0>         0.0000
     37 C16        11.5780    3.4730   22.1150 C.3       1 <0>         0.0000
     38 C17        11.9970    4.9010   21.9630 C.2       1 <0>         0.0000
     39 H15        13.6700    5.4970   23.0380 H         1 <0>         0.0000
     40 H16        12.9160    3.3040   23.8030 H         1 <0>         0.0000
@<TRIPOS>BOND
     1    5   24 1
     2    5   15 ar
     3    6   15 ar
     4    1    5 ar
     5    6   25 1
     6    6    9 ar
     7    1   20 1
     8    1    7 ar
     9   11   19 1
    10    7    9 ar
    11    9   16 1
    12    7   13 1
    13    4   23 1
    14   32   37 1
    15    4   11 ar
    16    3   11 ar
    17    4   10 ar
    18   13   26 1
    19    3   22 1
    20   12   17 2
    21   35   38 2
    22   37   38 1
    23   34   38 am
    24   13   28 1
    25   12   16 am
    26   16   31 1
    27   13   27 1
    28    3    8 ar
    29   10   18 1
    30   18   36 1
    31   36   37 1
    32   33   37 1
    33   12   14 1
    34    2   10 ar
    35   34   36 1
    36   34   39 1
    37   36   40 1
    38    2    8 ar
    39    8   14 1
    40    2   21 1
    41   14   29 1
    42   14   30 1
@<TRIPOS>MOLECULE
*****
   40    42     0     0     0
SMALL
NO_CHARGES

@<TRIPOS>ATOM
      1 C1          5.1350    1.1450   19.6240 C.ar      1 <0>         0.0000
      2 C2         12.0710    0.8690   23.0980 C.ar      1 <0>         0.0000
      3 C3         12.4280   -1.1300   21.8680 C.ar      1 <0>         0.0000
      4 C4         14.2190    0.4460   22.1270 C.ar      1 <0>         0.0000
      5 C5          5.7040    1.1380   18.3950 C.ar      1 <0>         0.0000
      6 C6          7.7850    0.2900   19.1380 C.ar      1 <0>         0.0000
      7 C7          5.9000    0.6980   20.7290 C.ar      1 <0>         0.0000
      8 C8         11.5770   -0.2920   22.5640 C.ar      1 <0>         0.0000
      9 C9          7.2660    0.2620   20.4680 C.ar      1 <0>         0.0000
     10 C10        13.3730    1.3050   22.8700 C.ar      1 <0>         0.0000
     11 C11        13.7390   -0.7830   21.6480 C.ar      1 <0>         0.0000
     12 C12         9.3460    0.1580   21.6800 C.2       1 <0>         0.0000
     13 C13         5.3510    0.8320   22.1150 C.3       1 <0>         0.0000
     14 C14        10.1490   -0.6050   22.6750 C.3       1 <0>         0.0000
     15 N1          6.9050    0.7040   18.1490 N.ar      1 <0>         0.0000
     16 N2          8.0630   -0.2730   21.4740 N.am      1 <0>         0.0000
     17 O1          9.7540    1.1710   21.1030 O.2       1 <0>         0.0000
     18 O2         13.9390    2.5070   23.2590 O.3       1 <0>         0.0000
     19 Cl1        14.8390   -1.7400   20.7730 Cl        1 <0>         0.0000
     20 H1          4.1010    1.4360   19.7260 H         1 <0>         0.0000
     21 H2         11.3500    1.4680   23.6540 H         1 <0>         0.0000
     22 H3         12.0570   -2.0640   21.4620 H         1 <0>         0.0000
     23 H4         15.1820    0.8050   21.7780 H         1 <0>         0.0000
     24 H5          5.1060    1.4750   17.5530 H         1 <0>         0.0000
     25 H6          8.8380    0.0770   18.9550 H         1 <0>         0.0000
     26 H7          4.4280    1.4020   22.1510 H         1 <0>         0.0000
     27 H8          5.2290   -0.1590   22.5730 H         1 <0>         0.0000
     28 H9          6.0340    1.3560   22.7860 H         1 <0>         0.0000
     29 H10         9.9720   -1.6420   22.3450 H         1 <0>         0.0000
     30 H11         9.8280   -0.4120   23.7030 H         1 <0>         0.0000
     31 H12         7.5690   -0.8410   22.1660 H         1 <0>         0.0000
     32 C15        13.2070    3.6040   23.7370 C.3       1 <0>         0.0000
     33 C16        11.9700    4.0480   22.9120 C.3       1 <0>         0.0000
     34 C17        12.8760    5.2380   22.6360 C.2       1 <0>         0.0000
     35 H13        14.1890    5.4430   24.0670 H         1 <0>         0.0000
     36 H14        13.0160    3.4940   24.8160 H         1 <0>         0.0000
     37 H15        11.0890    4.2960   23.5050 H         1 <0>         0.0000
     38 H16        11.7190    3.5070   21.9920 H         1 <0>         0.0000
     39 N3         13.8840    4.8000   23.3340 N.am      1 <0>         0.0000
     40 O3         12.6490    6.4150   22.4970 O.2       1 <0>         0.0000
@<TRIPOS>BOND
     1    5   24 1
     2    5   15 ar
     3    6   15 ar
     4    1    5 ar
     5    6   25 1
     6    6    9 ar
     7    1   20 1
     8    1    7 ar
     9    7    9 ar
    10    9   16 1
    11    7   13 1
    12   11   19 1
    13   12   17 2
    14    3   22 1
    15   12   16 am
    16   16   31 1
    17    3   11 ar
    18    4   11 ar
    19   12   14 1
    20    4   23 1
    21    3    8 ar
    22   33   38 1
    23   13   26 1
    24   13   27 1
    25   13   28 1
    26    4   10 ar
    27   14   29 1
    28   34   40 2
    29    8   14 1
    30    2    8 ar
    31   33   34 1
    32   34   39 am
    33   14   30 1
    34    2   10 ar
    35   10   18 1
    36   33   37 1
    37   32   33 1
    38    2   21 1
    39   18   32 1
    40   32   39 1
    41   35   39 1
    42   32   36 1
@<TRIPOS>MOLECULE
*****
   40    42     0     0     0
SMALL
NO_CHARGES

@<TRIPOS>ATOM
      1 C1          4.7740    0.1470   18.9090 C.ar      1 <0>         0.0000
      2 C2         11.7130    0.8590   22.8640 C.ar      1 <0>         0.0000
      3 C3         12.3340   -1.1800   21.8200 C.ar      1 <0>         0.0000
      4 C4         14.0160    0.3370   22.5230 C.ar      1 <0>         0.0000
      5 C5          5.4280    0.4420   17.6820 C.ar      1 <0>         0.0000
      6 C6          7.4930    0.0750   18.6370 C.ar      1 <0>         0.0000
      7 C7          5.5230   -0.0650   20.0530 C.ar      1 <0>         0.0000
      8 C8         11.3670   -0.3580   22.3340 C.ar      1 <0>         0.0000
      9 C9          6.9630   -0.0080   19.9300 C.ar      1 <0>         0.0000
     10 C10        13.0340    1.2250   22.8810 C.ar      1 <0>         0.0000
     11 C11        13.6380   -0.8830   21.9550 C.ar      1 <0>         0.0000
     12 C12         9.1060    0.0350   21.2470 C.2       1 <0>         0.0000
     13 C13         4.9240   -0.1420   21.3890 C.3       1 <0>         0.0000
     14 C14         9.9270   -0.6980   22.3310 C.3       1 <0>         0.0000
     15 N1          6.7680    0.3290   17.5290 N.ar      1 <0>         0.0000
     16 N2          7.7730   -0.3400   21.0100 N.am      1 <0>         0.0000
     17 O1          9.3790    1.1520   20.8340 O.2       1 <0>         0.0000
     18 O2         13.5750    2.4630   23.2770 O.3       1 <0>         0.0000
     19 Cl1        14.8260   -2.1160   21.4440 Cl        1 <0>         0.0000
     20 H1          3.7010    0.3170   18.9430 H         1 <0>         0.0000
     21 H2         10.9520    1.5210   23.2600 H         1 <0>         0.0000
     22 H3         12.0840   -2.1260   21.3430 H         1 <0>         0.0000
     23 H4         15.0760    0.5820   22.6350 H         1 <0>         0.0000
     24 H5          4.8240    0.8170   16.8580 H         1 <0>         0.0000
     25 H6          8.5660   -0.0490   18.5600 H         1 <0>         0.0000
     26 H7          4.8440   -1.1610   21.7530 H         1 <0>         0.0000
     27 H8          5.3750    0.5000   22.1530 H         1 <0>         0.0000
     28 H9          3.9170    0.2750   21.2870 H         1 <0>         0.0000
     29 H10         9.8420   -1.7850   22.2690 H         1 <0>         0.0000
     30 H11         9.5190   -0.3840   23.2910 H         1 <0>         0.0000
     31 H12         7.3890   -1.0520   21.6250 H         1 <0>         0.0000
     32 H13        11.7670    3.4090   23.3140 H         1 <0>         0.0000
     33 H14        12.3740    4.7560   21.1240 H         1 <0>         0.0000
     34 H15        13.9200    3.7910   21.0930 H         1 <0>         0.0000
     35 N3         13.3050    4.6980   23.7620 N.am      1 <0>         0.0000
     36 O3         13.6860    6.5210   22.4070 O.2       1 <0>         0.0000
     37 C15        12.8030    3.5790   23.0220 C.3       1 <0>         0.0000
     38 C16        13.1840    4.3100   21.7110 C.3       1 <0>         0.0000
     39 C17        13.7000    5.3150   22.6420 C.2       1 <0>         0.0000
     40 H16        12.7320    5.2420   24.3990 H         1 <0>         0.0000
@<TRIPOS>BOND
     1    5   24 1
     2    5   15 ar
     3    6   15 ar
     4    1    5 ar
     5    6   25 1
     6    6    9 ar
     7    1   20 1
     8    1    7 ar
     9    7    9 ar
    10    9   16 1
    11    7   13 1
    12   12   17 2
    13   12   16 am
    14   16   31 1
    15   34   38 1
    16   33   38 1
    17   12   14 1
    18   13   28 1
    19    3   22 1
    20   13   26 1
    21   13   27 1
    22   11   19 1
    23   38   39 1
    24   37   38 1
    25    3   11 ar
    26    3    8 ar
    27    4   11 ar
    28   14   29 1
    29    8   14 1
    30   14   30 1
    31    2    8 ar
    32   36   39 2
    33    4   23 1
    34    4   10 ar
    35   35   39 am
    36    2   10 ar
    37    2   21 1
    38   10   18 1
    39   18   37 1
    40   32   37 1
    41   35   37 1
    42   35   40 1
@<TRIPOS>MOLECULE
*****
   40    42     0     0     0
SMALL
NO_CHARGES

@<TRIPOS>ATOM
      1 C1          5.1350    1.6750   18.9840 C.ar      1 <0>         0.0000
      2 C2         12.1140    1.1250   23.0330 C.ar      1 <0>         0.0000
      3 C3         12.1700   -0.9930   21.8510 C.ar      1 <0>         0.0000
      4 C4         14.2550    0.0790   22.4280 C.ar      1 <0>         0.0000
      5 C5          5.7670    1.6590   17.7280 C.ar      1 <0>         0.0000
      6 C6          7.7140    0.8490   18.6070 C.ar      1 <0>         0.0000
      7 C7          5.8070    1.3130   20.1440 C.ar      1 <0>         0.0000
      8 C8         11.4410    0.0690   22.4460 C.ar      1 <0>         0.0000
      9 C9          7.1690    0.9040   19.9310 C.ar      1 <0>         0.0000
     10 C10        13.5490    1.1700   22.9780 C.ar      1 <0>         0.0000
     11 C11        13.5360   -0.9620   21.8050 C.ar      1 <0>         0.0000
     12 C12         9.1990    0.7360   21.3180 C.2       1 <0>         0.0000
     13 C13         5.0660    1.2640   21.4670 C.3       1 <0>         0.0000
     14 C14         9.9550    0.0360   22.4160 C.3       1 <0>         0.0000
     15 N1          7.0430    1.1530   17.5010 N.ar      1 <0>         0.0000
     16 N2          7.8890    0.4840   21.0470 N.am      1 <0>         0.0000
     17 O1          9.8240    1.6780   20.8080 O.2       1 <0>         0.0000
     18 O2         14.2680    2.2250   23.4480 O.3       1 <0>         0.0000
     19 Cl1        14.4000   -2.1050   20.7950 Cl        1 <0>         0.0000
     20 H1          4.0740    1.9050   19.0090 H         1 <0>         0.0000
     21 H2         11.5330    1.9660   23.4100 H         1 <0>         0.0000
     22 H3         11.6640   -1.8410   21.4140 H         1 <0>         0.0000
     23 H4         15.3280   -0.0030   22.3330 H         1 <0>         0.0000
     24 H5          5.1260    1.7960   16.8600 H         1 <0>         0.0000
     25 H6          8.7610    0.5930   18.4540 H         1 <0>         0.0000
     26 H7          4.1740    1.8940   21.4290 H         1 <0>         0.0000
     27 H8          4.7500    0.2240   21.5720 H         1 <0>         0.0000
     28 H9          5.6800    1.7240   22.2550 H         1 <0>         0.0000
     29 H10         9.5720   -0.9840   22.3970 H         1 <0>         0.0000
     30 H11         9.5460    0.2950   23.3990 H         1 <0>         0.0000
     31 H12         7.4000   -0.1420   21.6750 H         1 <0>         0.0000
     32 H13        12.9080    3.3500   24.6000 H         1 <0>         0.0000
     33 H14        13.1970    3.7620   21.6170 H         1 <0>         0.0000
     34 H15        11.9240    4.5460   22.6460 H         1 <0>         0.0000
     35 N3         14.5500    4.5350   23.9530 N.am      1 <0>         0.0000
     36 O3         14.1810    6.3920   22.5640 O.2       1 <0>         0.0000
     37 C15        13.5930    3.4570   23.7550 C.3       1 <0>         0.0000
     38 C16        12.9650    4.2220   22.5780 C.3       1 <0>         0.0000
     39 C17        14.0430    5.2030   22.8880 C.2       1 <0>         0.0000
     40 H16        14.6650    5.0650   24.8180 H         1 <0>         0.0000
@<TRIPOS>BOND
     1    5   24 1
     2    5   15 ar
     3    6   15 ar
     4    1    5 ar
     5    6   25 1
     6    6    9 ar
     7    1   20 1
     8    1    7 ar
     9    7    9 ar
    10    9   16 1
    11    7   13 1
    12   11   19 1
    13   12   17 2
    14   12   16 am
    15   16   31 1
    16   12   14 1
    17    3   22 1
    18   13   26 1
    19   13   27 1
    20   13   28 1
    21   33   38 1
    22    3   11 ar
    23    4   11 ar
    24    3    8 ar
    25    4   23 1
    26   14   29 1
    27    8   14 1
    28   14   30 1
    29    4   10 ar
    30    2    8 ar
    31   36   39 2
    32   34   38 1
    33   38   39 1
    34   37   38 1
    35   35   39 am
    36    2   10 ar
    37   10   18 1
    38    2   21 1
    39   18   37 1
    40   35   37 1
    41   32   37 1
    42   35   40 1
@<TRIPOS>MOLECULE
*****
   40    42     0     0     0
SMALL
NO_CHARGES

@<TRIPOS>ATOM
      1 C1         11.0720    1.4760   30.7770 C.ar      1 <0>         0.0000
      2 C2         12.7510    1.9370   24.0550 C.ar      1 <0>         0.0000
      3 C3         12.3930   -0.2870   23.1650 C.ar      1 <0>         0.0000
      4 C4         14.4450    0.9130   22.8350 C.ar      1 <0>         0.0000
      5 C5         11.0740    2.9310   30.8620 C.ar      1 <0>         0.0000
      6 C6         10.7480    3.0410   28.5650 C.ar      1 <0>         0.0000
      7 C7         11.0470    0.8260   29.5390 C.ar      1 <0>         0.0000
      8 C8         11.9520    0.7800   23.9730 C.ar      1 <0>         0.0000
      9 C9         10.8310    1.6320   28.3920 C.ar      1 <0>         0.0000
     10 C10        14.0140    2.0370   23.4350 C.ar      1 <0>         0.0000
     11 C11        13.7240   -0.2190   22.6270 C.ar      1 <0>         0.0000
     12 C12        10.4340    1.4530   25.8600 C.2       1 <0>         0.0000
     13 C13        11.4580   -0.6560   29.4180 C.3       1 <0>         0.0000
     14 C14        10.5690    0.6780   24.5520 C.3       1 <0>         0.0000
     15 N1         10.8780    3.7020   29.7430 N.ar      1 <0>         0.0000
     16 N2         10.7130    0.9590   27.1120 N.am      1 <0>         0.0000
     17 O1         10.1680    2.6180   25.7810 O.2       1 <0>         0.0000
     18 O2         14.7690    3.1980   23.4310 O.3       1 <0>         0.0000
     19 Cl1        14.3310   -1.5520   21.5990 Cl        1 <0>         0.0000
     20 H1         11.1310    0.9850   31.7420 H         1 <0>         0.0000
     21 H2         12.2660    2.7240   24.6050 H         1 <0>         0.0000
     22 H3         11.7760   -1.1080   22.8200 H         1 <0>         0.0000
     23 H4         15.3250    1.0710   22.2110 H         1 <0>         0.0000
     24 H5         11.2150    3.4340   31.8190 H         1 <0>         0.0000
     25 H6         10.5930    3.6730   27.6930 H         1 <0>         0.0000
     26 H7         11.9590   -0.9240   30.3550 H         1 <0>         0.0000
     27 H8         10.5390   -1.2270   29.2830 H         1 <0>         0.0000
     28 H9         12.1500   -0.7610   28.5800 H         1 <0>         0.0000
     29 H10         9.8870    1.2320   23.9090 H         1 <0>         0.0000
     30 H11        10.2230   -0.3580   24.6210 H         1 <0>         0.0000
     31 H12        10.7380   -0.0470   27.2870 H         1 <0>         0.0000
     32 H13        13.5570    4.2560   24.7600 H         1 <0>         0.0000
     33 H14        12.9740    4.6290   21.7850 H         1 <0>         0.0000
     34 H15        12.0590    5.3660   23.0740 H         1 <0>         0.0000
     35 N3         14.9400    5.5470   23.8010 N.am      1 <0>         0.0000
     36 O3         13.9510    7.4320   23.0730 O.2       1 <0>         0.0000
     37 C15        14.0630    4.3750   23.8030 C.3       1 <0>         0.0000
     38 C16        13.0820    5.1060   22.7620 C.3       1 <0>         0.0000
     39 C17        14.0900    6.2250   22.9730 C.2       1 <0>         0.0000
     40 H16        15.2710    6.0460   24.6340 H         1 <0>         0.0000
@<TRIPOS>BOND
     1   11   19 1
     2   33   38 1
     3    4   23 1
     4    4   11 ar
     5    3   11 ar
     6   38   39 1
     7   34   38 1
     8   37   38 1
     9    3   22 1
    10    4   10 ar
    11   36   39 2
    12   35   39 am
    13    3    8 ar
    14   10   18 1
    15   18   37 1
    16    2   10 ar
    17   35   37 1
    18   35   40 1
    19   32   37 1
    20   14   29 1
    21    2    8 ar
    22    8   14 1
    23    2   21 1
    24   14   30 1
    25   12   14 1
    26   12   17 2
    27   12   16 am
    28   16   31 1
    29    9   16 1
    30    6   25 1
    31    6    9 ar
    32    7    9 ar
    33    6   15 ar
    34   13   28 1
    35   13   27 1
    36    7   13 1
    37   13   26 1
    38    1    7 ar
    39    5   15 ar
    40    1    5 ar
    41    1   20 1
    42    5   24 1
@<TRIPOS>MOLECULE
*****
   40    42     0     0     0
SMALL
NO_CHARGES

@<TRIPOS>ATOM
      1 C1          5.0680    1.7290   19.8330 C.ar      1 <0>         0.0000
      2 C2         12.0230    1.1610   22.7960 C.ar      1 <0>         0.0000
      3 C3         12.2070   -1.0750   21.8330 C.ar      1 <0>         0.0000
      4 C4         14.1230    0.3590   21.9240 C.ar      1 <0>         0.0000
      5 C5          5.4730    1.4080   18.5680 C.ar      1 <0>         0.0000
      6 C6          7.1610    0.0780   19.4560 C.ar      1 <0>         0.0000
      7 C7          5.8080    1.4020   20.9830 C.ar      1 <0>         0.0000
      8 C8         11.4440   -0.0880   22.5080 C.ar      1 <0>         0.0000
      9 C9          6.8780    0.5280   20.7970 C.ar      1 <0>         0.0000
     10 C10        13.3210    1.4020   22.5150 C.ar      1 <0>         0.0000
     11 C11        13.5360   -0.8850   21.5510 C.ar      1 <0>         0.0000
     12 C12         9.0290    0.4780   22.0670 C.2       1 <0>         0.0000
     13 C13         5.4310    1.8660   22.4040 C.3       1 <0>         0.0000
     14 C14         9.9830   -0.3490   22.9300 C.3       1 <0>         0.0000
     15 N1          6.5650    0.5790   18.3800 N.ar      1 <0>         0.0000
     16 N2          7.6950    0.1290   21.8880 N.am      1 <0>         0.0000
     17 O1          9.4140    1.4610   21.4500 O.2       1 <0>         0.0000
     18 O2         13.9300    2.5610   22.7510 O.3       1 <0>         0.0000
     19 Cl1        14.4700   -2.1180   20.8200 Cl        1 <0>         0.0000
     20 H1          4.1370    2.2780   19.8290 H         1 <0>         0.0000
     21 H2         11.3090    1.8620   23.2200 H         1 <0>         0.0000
     22 H3         11.8070   -2.0090   21.4580 H         1 <0>         0.0000
     23 H4         15.1960    0.5300   21.8940 H         1 <0>         0.0000
     24 H5          5.0230    1.7880   17.6600 H         1 <0>         0.0000
     25 H6          7.8160   -0.7820   19.2900 H         1 <0>         0.0000
     26 H7          4.6400    2.6260   22.3830 H         1 <0>         0.0000
     27 H8          5.3070    1.0130   23.0780 H         1 <0>         0.0000
     28 H9          6.3140    2.4570   22.6600 H         1 <0>         0.0000
     29 H10         9.7100   -1.3750   22.6700 H         1 <0>         0.0000
     30 H11         9.8820   -0.2330   24.0160 H         1 <0>         0.0000
     31 H12         7.2450   -0.5150   22.5380 H         1 <0>         0.0000
     32 H13        12.9670    3.3520   24.4160 H         1 <0>         0.0000
     33 H14        11.0980    4.6550   23.1050 H         1 <0>         0.0000
     34 H15        11.9230    4.0320   21.6460 H         1 <0>         0.0000
     35 N3         14.0590    4.8370   23.2930 N.am      1 <0>         0.0000
     36 O3         12.8530    6.6460   22.5960 O.2       1 <0>         0.0000
     37 C15        13.2330    3.6140   23.3840 C.3       1 <0>         0.0000
     38 C16        12.0610    4.3620   22.6790 C.3       1 <0>         0.0000
     39 C17        13.0850    5.4630   22.6520 C.2       1 <0>         0.0000
     40 H16        14.5570    5.2700   24.0730 H         1 <0>         0.0000
@<TRIPOS>BOND
     1    5   24 1
     2    5   15 ar
     3    6   15 ar
     4    1    5 ar
     5    6   25 1
     6    6    9 ar
     7    1   20 1
     8    1    7 ar
     9    7    9 ar
    10    9   16 1
    11   11   19 1
    12    7   13 1
    13   12   17 2
    14    3   22 1
    15    3   11 ar
    16    4   11 ar
    17   34   38 1
    18    3    8 ar
    19   12   16 am
    20   16   31 1
    21    4   23 1
    22    4   10 ar
    23   12   14 1
    24   13   26 1
    25   13   28 1
    26   13   27 1
    27    2    8 ar
    28    8   14 1
    29   10   18 1
    30    2   10 ar
    31   36   39 2
    32   38   39 1
    33   35   39 am
    34   14   29 1
    35   33   38 1
    36   37   38 1
    37   18   37 1
    38    2   21 1
    39   14   30 1
    40   35   37 1
    41   35   40 1
    42   32   37 1
@<TRIPOS>MOLECULE
*****
   42    44     0     0     0
SMALL
NO_CHARGES

@<TRIPOS>ATOM
      1 C1          4.5360    1.3030   19.2240 C.ar      1 <0>         0.0000
      2 C2         11.3510    1.0560   23.2060 C.ar      1 <0>         0.0000
      3 C3         11.6470   -1.1360   22.1490 C.ar      1 <0>         0.0000
      4 C4         13.5120    0.2140   22.7040 C.ar      1 <0>         0.0000
      5 C5          5.2550    1.1590   18.0720 C.ar      1 <0>         0.0000
      6 C6          7.0120    0.2350   19.0880 C.ar      1 <0>         0.0000
      7 C7          5.2080    0.9230   20.4540 C.ar      1 <0>         0.0000
      8 C8         10.7840   -0.1510   22.7290 C.ar      1 <0>         0.0000
      9 C9          6.5190    0.3420   20.3680 C.ar      1 <0>         0.0000
     10 C10        12.7500    1.2670   23.2660 C.ar      1 <0>         0.0000
     11 C11        13.0230   -0.9570   22.2280 C.ar      1 <0>         0.0000
     12 C12         8.4710    0.3360   21.8090 C.2       1 <0>         0.0000
     13 C13         4.5540    1.1380   21.7850 C.3       1 <0>         0.0000
     14 C14         9.3060   -0.4360   22.8440 C.3       1 <0>         0.0000
     15 N1          6.4620    0.5870   17.9480 N.ar      1 <0>         0.0000
     16 N2          7.1750   -0.0290   21.5510 N.am      1 <0>         0.0000
     17 O1          9.0230    1.2620   21.1910 O.2       1 <0>         0.0000
     18 O2         13.3260    2.3840   23.7890 O.3       1 <0>         0.0000
     19 Cl1        14.1330   -2.0770   21.5020 Cl        1 <0>         0.0000
     20 H1          3.5760    1.7830   19.0880 H         1 <0>         0.0000
     21 H2         10.6720    1.8120   23.5620 H         1 <0>         0.0000
     22 H3         11.1590   -1.9580   21.6250 H         1 <0>         0.0000
     23 H4         14.5680    0.4630   22.6360 H         1 <0>         0.0000
     24 H5          4.6930    1.2960   17.1510 H         1 <0>         0.0000
     25 H6          7.9890   -0.2320   19.0550 H         1 <0>         0.0000
     26 H7          3.5110    1.3970   21.6050 H         1 <0>         0.0000
     27 H8          4.5430    0.2570   22.4260 H         1 <0>         0.0000
     28 H9          5.1160    1.9590   22.2560 H         1 <0>         0.0000
     29 H10         9.1310   -1.5070   22.7400 H         1 <0>         0.0000
     30 H11         9.0180   -0.2450   23.8860 H         1 <0>         0.0000
     31 H12         6.7530   -0.6910   22.2000 H         1 <0>         0.0000
     32 H13        11.7600    3.5670   24.6120 H         1 <0>         0.0000
     33 H14        12.4450    3.4880   21.6430 H         1 <0>         0.0000
     34 H15        10.8960    4.2170   22.4130 H         1 <0>         0.0000
     35 N3         13.3360    4.8030   23.9350 N.3       1 <0>         0.0000
     36 O3         13.3070    6.0250   22.0350 O.3       1 <0>         0.0000
     37 C15        12.5390    3.6110   23.8430 C.3       1 <0>         0.0000
     38 C16        11.9720    4.0470   22.4590 C.3       1 <0>         0.0000
     39 C17        12.7350    5.3040   22.8380 C.3       1 <0>         0.0000
     40 H16        14.3420    4.7110   24.0270 H         1 <0>         0.0000
     41 H          13.3070    6.0250   22.0350 H         1 <0>         0.0000
     42 H          12.7350    5.3040   22.8380 H         1 <0>         0.0000
@<TRIPOS>BOND
     1    5   24 1
     2    5   15 ar
     3    6   15 ar
     4    1    5 ar
     5    6   25 1
     6    6    9 ar
     7    1   20 1
     8    1    7 ar
     9    7    9 ar
    10    9   16 1
    11    7   13 1
    12   12   17 2
    13   11   19 1
    14   12   16 am
    15   16   31 1
    16   13   26 1
    17    3   22 1
    18   33   38 1
    19   13   28 1
    20   13   27 1
    21   12   14 1
    22   36   39 1
    23    3   11 ar
    24    3    8 ar
    25    4   11 ar
    26   34   38 1
    27   38   39 1
    28   37   38 1
    29    4   23 1
    30    4   10 ar
    31    8   14 1
    32    2    8 ar
    33   14   29 1
    34   35   39 1
    35   14   30 1
    36    2   10 ar
    37    2   21 1
    38   10   18 1
    39   18   37 1
    40   35   37 1
    41   32   37 1
    42   35   40 1
    43   36   41 1
    44   39   42 1
@<TRIPOS>MOLECULE
*****
   40    42     0     0     0
SMALL
NO_CHARGES

@<TRIPOS>ATOM
      1 C1          4.8040    1.7330   18.8460 C.ar      1 <0>         0.0000
      2 C2         11.6460    1.8590   23.4550 C.ar      1 <0>         0.0000
      3 C3         11.3120   -0.3120   22.4670 C.ar      1 <0>         0.0000
      4 C4         13.5180    0.5580   22.7080 C.ar      1 <0>         0.0000
      5 C5          5.4190    1.2860   17.7300 C.ar      1 <0>         0.0000
      6 C6          7.3710    1.0070   18.9020 C.ar      1 <0>         0.0000
      7 C7          5.4540    1.8310   20.0790 C.ar      1 <0>         0.0000
      8 C8         10.8160    0.8670   23.0320 C.ar      1 <0>         0.0000
      9 C9          6.7640    1.4980   20.1090 C.ar      1 <0>         0.0000
     10 C10        13.0190    1.7330   23.3740 C.ar      1 <0>         0.0000
     11 C11        12.6810   -0.4680   22.2760 C.ar      1 <0>         0.0000
     12 C12         8.7510    1.5010   21.5890 C.2       1 <0>         0.0000
     13 C13         4.7680    2.4250   21.2760 C.3       1 <0>         0.0000
     14 C14         9.3220    1.1040   23.0180 C.3       1 <0>         0.0000
     15 N1          6.7190    0.9390   17.7080 N.ar      1 <0>         0.0000
     16 N2          7.3870    1.6540   21.3580 N.am      1 <0>         0.0000
     17 O1          9.4930    1.4970   20.6530 O.2       1 <0>         0.0000
     18 O2         14.0340    2.5880   23.8670 O.3       1 <0>         0.0000
     19 Cl1        13.3470   -1.7090   21.2350 Cl        1 <0>         0.0000
     20 H1          3.7490    2.0090   18.8010 H         1 <0>         0.0000
     21 H2         11.2240    2.7550   23.8940 H         1 <0>         0.0000
     22 H3         10.6560   -1.0440   22.0130 H         1 <0>         0.0000
     23 H4         14.6110    0.5330   22.6490 H         1 <0>         0.0000
     24 H5          4.8920    1.1950   16.7790 H         1 <0>         0.0000
     25 H6          8.4380    0.7660   18.9170 H         1 <0>         0.0000
     26 H7          5.3750    3.2640   21.6410 H         1 <0>         0.0000
     27 H8          3.8390    2.9370   21.0050 H         1 <0>         0.0000
     28 H9          4.7100    1.7380   22.1220 H         1 <0>         0.0000
     29 H10         8.8670    0.1500   23.3130 H         1 <0>         0.0000
     30 H11         8.9250    1.8490   23.7150 H         1 <0>         0.0000
     31 H12         6.8380    1.8860   22.1850 H         1 <0>         0.0000
     32 H13        13.0030    4.4760   22.1140 H         1 <0>         0.0000
     33 H14        12.3280    5.5690   23.4690 H         1 <0>         0.0000
     34 N3         14.8530    4.7650   24.3870 N.am      1 <0>         0.0000
     35 O3         15.2110    5.8530   22.5430 O.2       1 <0>         0.0000
     36 C15        13.6770    3.9120   24.2410 C.3       1 <0>         0.0000
     37 C16        13.0830    4.8480   23.1360 C.3       1 <0>         0.0000
     38 C17        14.4010    5.4760   23.3820 C.2       1 <0>         0.0000
     39 H15        15.7660    4.3500   24.2020 H         1 <0>         0.0000
     40 H16        13.0350    3.8240   25.1180 H         1 <0>         0.0000
@<TRIPOS>BOND
     1    5   24 1
     2    5   15 ar
     3    6   15 ar
     4    1    5 ar
     5    1   20 1
     6    1    7 ar
     7    6   25 1
     8    6    9 ar
     9    7    9 ar
    10    7   13 1
    11    9   16 1
    12   12   17 2
    13   13   27 1
    14   11   19 1
    15   13   26 1
    16   13   28 1
    17   12   16 am
    18   16   31 1
    19   12   14 1
    20    3   22 1
    21   32   37 1
    22    3   11 ar
    23    4   11 ar
    24    3    8 ar
    25   35   38 2
    26    4   23 1
    27    4   10 ar
    28    8   14 1
    29   14   29 1
    30   14   30 1
    31    2    8 ar
    32   37   38 1
    33   33   37 1
    34   36   37 1
    35    2   10 ar
    36   10   18 1
    37   34   38 am
    38    2   21 1
    39   18   36 1
    40   34   39 1
    41   34   36 1
    42   36   40 1
@<TRIPOS>MOLECULE
*****
   40    42     0     0     0
SMALL
NO_CHARGES

@<TRIPOS>ATOM
      1 C1          4.9060    1.5200   19.3050 C.ar      1 <0>         0.0000
      2 C2         11.8830    0.9720   23.7800 C.ar      1 <0>         0.0000
      3 C3         11.9880   -0.9260   22.1950 C.ar      1 <0>         0.0000
      4 C4         14.0110    0.0670   23.0110 C.ar      1 <0>         0.0000
      5 C5          5.4640    0.9860   18.1370 C.ar      1 <0>         0.0000
      6 C6          7.2960    0.2450   19.2240 C.ar      1 <0>         0.0000
      7 C7          5.5870    1.4040   20.5040 C.ar      1 <0>         0.0000
      8 C8         11.2420   -0.0170   23.0260 C.ar      1 <0>         0.0000
      9 C9          6.8160    0.7030   20.4860 C.ar      1 <0>         0.0000
     10 C10        13.3100    1.0540   23.6960 C.ar      1 <0>         0.0000
     11 C11        13.4010   -0.8950   22.2670 C.ar      1 <0>         0.0000
     12 C12         9.0580    0.3520   21.6950 C.2       1 <0>         0.0000
     13 C13         4.9710    1.8200   21.8060 C.3       1 <0>         0.0000
     14 C14         9.7300   -0.1000   23.0230 C.3       1 <0>         0.0000
     15 N1          6.6230    0.3190   18.0650 N.ar      1 <0>         0.0000
     16 N2          7.6810    0.5720   21.6480 N.am      1 <0>         0.0000
     17 O1          9.7440    0.4060   20.6820 O.2       1 <0>         0.0000
     18 O2         14.0390    2.0890   24.2480 O.3       1 <0>         0.0000
     19 Cl1        14.3340   -2.0070   21.3140 Cl        1 <0>         0.0000
     20 H1          3.9030    1.9070   19.1260 H         1 <0>         0.0000
     21 H2         11.2400    1.6340   24.3450 H         1 <0>         0.0000
     22 H3         11.5660   -1.5610   21.4250 H         1 <0>         0.0000
     23 H4         15.0840    0.1970   23.0500 H         1 <0>         0.0000
     24 H5          4.8090    0.8540   17.2920 H         1 <0>         0.0000
     25 H6          8.2380   -0.2860   19.1530 H         1 <0>         0.0000
     26 H7          5.7160    2.3840   22.3860 H         1 <0>         0.0000
     27 H8          4.1430    2.5220   21.7510 H         1 <0>         0.0000
     28 H9          4.7070    0.9040   22.3520 H         1 <0>         0.0000
     29 H10         9.4570   -1.1470   23.0330 H         1 <0>         0.0000
     30 H11         9.3470    0.4800   23.8670 H         1 <0>         0.0000
     31 H12         7.3190    0.3930   22.5840 H         1 <0>         0.0000
     32 H13        15.4140    4.3690   24.5920 H         1 <0>         0.0000
     33 H14        12.7090    3.3740   25.1270 H         1 <0>         0.0000
     34 H15        11.8380    4.4990   23.0420 H         1 <0>         0.0000
     35 H16        13.0240    3.3220   22.1660 H         1 <0>         0.0000
     36 N3         14.4120    4.4120   24.4160 N.am      1 <0>         0.0000
     37 O3         14.7100    5.5270   22.3490 O.2       1 <0>         0.0000
     38 C15        13.4290    3.3740   24.2960 C.3       1 <0>         0.0000
     39 C16        12.8200    4.0220   22.9880 C.3       1 <0>         0.0000
     40 C17        14.0360    4.9220   23.2360 C.2       1 <0>         0.0000
@<TRIPOS>BOND
     1    5   24 1
     2    5   15 ar
     3    6   15 ar
     4    1    5 ar
     5    1   20 1
     6    6   25 1
     7    6    9 ar
     8    1    7 ar
     9    7    9 ar
    10    9   16 1
    11    7   13 1
    12   12   17 2
    13   11   19 1
    14    3   22 1
    15   12   16 am
    16   16   31 1
    17   12   14 1
    18   13   27 1
    19   13   28 1
    20   13   26 1
    21   35   39 1
    22    3   11 ar
    23    3    8 ar
    24    4   11 ar
    25   37   40 2
    26   34   39 1
    27   39   40 1
    28   38   39 1
    29    4   23 1
    30    4   10 ar
    31    8   14 1
    32   14   29 1
    33   14   30 1
    34    2    8 ar
    35   36   40 am
    36    2   10 ar
    37   10   18 1
    38    2   21 1
    39   18   38 1
    40   36   38 1
    41   33   38 1
    42   32   36 1
@<TRIPOS>MOLECULE
*****
   40    42     0     0     0
SMALL
NO_CHARGES

@<TRIPOS>ATOM
      1 C1          5.7670    1.5040   19.8020 C.ar      1 <0>         0.0000
      2 C2         12.3680    0.1310   23.1090 C.ar      1 <0>         0.0000
      3 C3         12.6490   -2.2730   23.2640 C.ar      1 <0>         0.0000
      4 C4         14.4750   -0.7950   23.9480 C.ar      1 <0>         0.0000
      5 C5          6.3500    1.5200   18.5370 C.ar      1 <0>         0.0000
      6 C6          8.0100    0.1880   19.1790 C.ar      1 <0>         0.0000
      7 C7          6.4190    0.8200   20.8530 C.ar      1 <0>         0.0000
      8 C8         11.8200   -1.2310   22.9950 C.ar      1 <0>         0.0000
      9 C9          7.5690    0.1250   20.5290 C.ar      1 <0>         0.0000
     10 C10        13.7200    0.3510   23.6350 C.ar      1 <0>         0.0000
     11 C11        13.9910   -2.0640   23.7110 C.ar      1 <0>         0.0000
     12 C12         9.6460   -0.5280   21.6350 C.2       1 <0>         0.0000
     13 C13         5.8220    0.8420   22.2360 C.3       1 <0>         0.0000
     14 C14        10.3550   -1.5350   22.5910 C.3       1 <0>         0.0000
     15 N1          7.3790    0.8270   18.1510 N.ar      1 <0>         0.0000
     16 N2          8.3000   -0.6320   21.4640 N.am      1 <0>         0.0000
     17 O1         10.3650    0.1460   20.8720 O.2       1 <0>         0.0000
     18 O2         14.2200    1.5640   24.0560 O.3       1 <0>         0.0000
     19 Cl1        15.0560   -3.3870   24.0650 Cl        1 <0>         0.0000
     20 H1          4.8470    2.0500   19.9360 H         1 <0>         0.0000
     21 H2         11.7110    0.9900   23.0010 H         1 <0>         0.0000
     22 H3         12.2850   -3.2970   23.1370 H         1 <0>         0.0000
     23 H4         15.4800   -0.6410   24.3530 H         1 <0>         0.0000
     24 H5          5.8640    2.2060   17.8490 H         1 <0>         0.0000
     25 H6          8.9780   -0.2780   19.0220 H         1 <0>         0.0000
     26 H7          4.9720    1.5250   22.3050 H         1 <0>         0.0000
     27 H8          5.4900   -0.1830   22.4600 H         1 <0>         0.0000
     28 H9          6.6110    1.0760   22.9560 H         1 <0>         0.0000
     29 H10        10.1900   -2.5590   22.2460 H         1 <0>         0.0000
     30 H11         9.7640   -1.4840   23.5030 H         1 <0>         0.0000
     31 H12         7.8290   -1.0920   22.2500 H         1 <0>         0.0000
     32 H13        13.0730    2.2830   22.6070 H         1 <0>         0.0000
     33 H14        16.0240    1.9100   22.3890 H         1 <0>         0.0000
     34 H15        14.9880    2.5780   20.9940 H         1 <0>         0.0000
     35 N3         14.2330    3.8690   23.5180 N.am      1 <0>         0.0000
     36 O3         16.0620    4.8780   22.3720 O.2       1 <0>         0.0000
     37 C15        14.0390    2.5500   23.0570 C.3       1 <0>         0.0000
     38 C16        15.2480    2.6110   22.0570 C.3       1 <0>         0.0000
     39 C17        15.3270    3.9430   22.7370 C.2       1 <0>         0.0000
     40 H16        13.5500    4.6170   23.5360 H         1 <0>         0.0000
@<TRIPOS>BOND
     1    5   24 1
     2    5   15 ar
     3    6   15 ar
     4    1    5 ar
     5    6   25 1
     6    6    9 ar
     7    1   20 1
     8    1    7 ar
     9    7    9 ar
    10    9   16 1
    11    7   13 1
    12   12   17 2
    13   34   38 1
    14   12   16 am
    15   16   31 1
    16   12   14 1
    17   33   38 1
    18   38   39 1
    19   37   38 1
    20   13   26 1
    21   13   27 1
    22   13   28 1
    23   14   29 1
    24   36   39 2
    25    8   14 1
    26   14   30 1
    27   32   37 1
    28   35   39 am
    29    2    8 ar
    30    3    8 ar
    31    2   21 1
    32   35   37 1
    33   18   37 1
    34    2   10 ar
    35    3   22 1
    36    3   11 ar
    37   35   40 1
    38    4   10 ar
    39   10   18 1
    40    4   11 ar
    41   11   19 1
    42    4   23 1
@<TRIPOS>MOLECULE
*****
   40    42     0     0     0
SMALL
NO_CHARGES

@<TRIPOS>ATOM
      1 C1          5.7760    1.3890   19.7480 C.ar      1 <0>         0.0000
      2 C2          8.9550   -2.3300   24.1600 C.ar      1 <0>         0.0000
      3 C3         10.5220   -2.3380   22.3860 C.ar      1 <0>         0.0000
      4 C4         10.9380   -1.0400   24.3190 C.ar      1 <0>         0.0000
      5 C5          5.9350    1.1610   18.3550 C.ar      1 <0>         0.0000
      6 C6          6.9780   -0.8580   18.7560 C.ar      1 <0>         0.0000
      7 C7          6.2890    0.4680   20.7080 C.ar      1 <0>         0.0000
      8 C8          9.3150   -2.7770   22.9190 C.ar      1 <0>         0.0000
      9 C9          6.9340   -0.6370   20.1940 C.ar      1 <0>         0.0000
     10 C10         9.7380   -1.5130   24.9190 C.ar      1 <0>         0.0000
     11 C11        11.3260   -1.4990   23.0840 C.ar      1 <0>         0.0000
     12 C12         7.6710   -2.9040   21.0480 C.2       1 <0>         0.0000
     13 C13         6.1650    0.7180   22.2350 C.3       1 <0>         0.0000
     14 C14         8.4480   -3.7150   22.0850 C.3       1 <0>         0.0000
     15 N1          6.4950    0.0480   17.8630 N.ar      1 <0>         0.0000
     16 N2          7.4710   -1.5100   21.1610 N.am      1 <0>         0.0000
     17 O1          7.1540   -3.5410   20.0940 O.2       1 <0>         0.0000
     18 O2          9.2070   -1.0110   26.1120 O.3       1 <0>         0.0000
     19 Cl1        12.7880   -1.0560   22.3160 Cl        1 <0>         0.0000
     20 H1          5.2160    2.2450   20.1110 H         1 <0>         0.0000
     21 H2          7.9910   -2.6290   24.5620 H         1 <0>         0.0000
     22 H3         10.8190   -2.6880   21.4000 H         1 <0>         0.0000
     23 H4         11.5810   -0.3260   24.8310 H         1 <0>         0.0000
     24 H5          5.6060    1.9060   17.6320 H         1 <0>         0.0000
     25 H6          7.4540   -1.7320   18.3250 H         1 <0>         0.0000
     26 H7          7.0430    0.4310   22.8210 H         1 <0>         0.0000
     27 H8          6.0520    1.8000   22.3770 H         1 <0>         0.0000
     28 H9          5.2820    0.2620   22.6760 H         1 <0>         0.0000
     29 H10         9.1330   -4.4080   21.5840 H         1 <0>         0.0000
     30 H11         7.7170   -4.1830   22.7490 H         1 <0>         0.0000
     31 H12         7.8420   -1.1290   22.0280 H         1 <0>         0.0000
     32 C15         9.6730    0.2820   26.6400 C.3       1 <0>         0.0000
     33 C16        10.9240    0.4050   27.5530 C.3       1 <0>         0.0000
     34 C17         9.8530    0.8600   28.5060 C.2       1 <0>         0.0000
     35 H13         8.0400    1.4210   27.6020 H         1 <0>         0.0000
     36 H14         9.6880    1.0540   25.8730 H         1 <0>         0.0000
     37 H15        11.2860   -0.6190   27.7260 H         1 <0>         0.0000
     38 H16        11.6890    1.1400   27.3050 H         1 <0>         0.0000
     39 N3          8.7650    0.7120   27.7170 N.am      1 <0>         0.0000
     40 O3         10.0330    1.7700   29.3750 O.2       1 <0>         0.0000
@<TRIPOS>BOND
     1    5   24 1
     2    5   15 ar
     3    6   15 ar
     4    6   25 1
     5    1    5 ar
     6    6    9 ar
     7    1   20 1
     8    1    7 ar
     9   12   17 2
    10    7    9 ar
    11    9   16 1
    12    7   13 1
    13   12   16 am
    14   12   14 1
    15   16   31 1
    16    3   22 1
    17   14   29 1
    18   14   30 1
    19    8   14 1
    20   13   27 1
    21   13   28 1
    22   13   26 1
    23   11   19 1
    24    3    8 ar
    25    3   11 ar
    26    2    8 ar
    27    4   11 ar
    28    2   21 1
    29    2   10 ar
    30    4   23 1
    31    4   10 ar
    32   10   18 1
    33   32   36 1
    34   18   32 1
    35   32   33 1
    36   32   39 1
    37   33   38 1
    38   33   37 1
    39   33   34 1
    40   35   39 1
    41   34   39 am
    42   34   40 2
@<TRIPOS>MOLECULE
*****
   40    42     0     0     0
SMALL
NO_CHARGES

@<TRIPOS>ATOM
      1 C1          5.7440    1.7750   19.4660 C.ar      1 <0>         0.0000
      2 C2         12.1010    2.7260   24.8560 C.ar      1 <0>         0.0000
      3 C3         12.6640    0.7330   23.5110 C.ar      1 <0>         0.0000
      4 C4         14.4050    2.0300   24.3490 C.ar      1 <0>         0.0000
      5 C5          6.3420    1.0800   18.3880 C.ar      1 <0>         0.0000
      6 C6          8.2250    0.7720   19.7020 C.ar      1 <0>         0.0000
      7 C7          6.3010    1.8570   20.7610 C.ar      1 <0>         0.0000
      8 C8         11.6400    1.5850   24.0980 C.ar      1 <0>         0.0000
      9 C9          7.6090    1.2880   20.8910 C.ar      1 <0>         0.0000
     10 C10        13.4900    2.9130   24.9710 C.ar      1 <0>         0.0000
     11 C11        14.0510    0.9070   23.6970 C.ar      1 <0>         0.0000
     12 C12         9.5990    1.4320   22.3810 C.2       1 <0>         0.0000
     13 C13         5.5550    2.5570   21.8460 C.3       1 <0>         0.0000
     14 C14        10.1490    1.3620   23.8170 C.3       1 <0>         0.0000
     15 N1          7.5570    0.5870   18.5320 N.ar      1 <0>         0.0000
     16 N2          8.2850    1.2400   22.1420 N.am      1 <0>         0.0000
     17 O1         10.2930    1.8320   21.4170 O.2       1 <0>         0.0000
     18 O2         14.0710    4.0270   25.6030 O.3       1 <0>         0.0000
     19 Cl1        15.2250   -0.1690   22.9530 Cl        1 <0>         0.0000
     20 H1          4.7390    2.1830   19.3110 H         1 <0>         0.0000
     21 H2         11.3420    3.3890   25.2600 H         1 <0>         0.0000
     22 H3         12.2790   -0.1170   22.9600 H         1 <0>         0.0000
     23 H4         15.4420    2.2400   24.6010 H         1 <0>         0.0000
     24 H5          5.6980    0.8550   17.5370 H         1 <0>         0.0000
     25 H6          9.2470    0.4180   19.8260 H         1 <0>         0.0000
     26 H7          4.5950    2.0530   22.0110 H         1 <0>         0.0000
     27 H8          6.1430    2.4510   22.7600 H         1 <0>         0.0000
     28 H9          5.5760    3.6440   21.6930 H         1 <0>         0.0000
     29 H10         9.8380    0.3840   24.1730 H         1 <0>         0.0000
     30 H11         9.6600    2.1100   24.4490 H         1 <0>         0.0000
     31 H12         7.6990    0.9650   22.9300 H         1 <0>         0.0000
     32 C15        13.2000    4.8740   26.2930 C.3       1 <0>         0.0000
     33 C16        13.8210    6.1980   26.9330 C.3       1 <0>         0.0000
     34 C17        13.3560    5.4360   28.2070 C.2       1 <0>         0.0000
     35 H13        13.2380    3.4180   27.8350 H         1 <0>         0.0000
     36 H14        12.3170    5.1060   25.7030 H         1 <0>         0.0000
     37 H15        13.3660    7.1510   26.6520 H         1 <0>         0.0000
     38 H16        14.8960    6.2010   26.7430 H         1 <0>         0.0000
     39 N3         12.8480    4.3350   27.6110 N.am      1 <0>         0.0000
     40 O3         13.9560    5.4320   29.2700 O.2       1 <0>         0.0000
@<TRIPOS>BOND
     1    5   24 1
     2    5   15 ar
     3    1    5 ar
     4    6   15 ar
     5    1   20 1
     6    1    7 ar
     7    6   25 1
     8    6    9 ar
     9    7    9 ar
    10    7   13 1
    11    9   16 1
    12   12   17 2
    13   13   28 1
    14   13   26 1
    15   13   27 1
    16   12   16 am
    17   16   31 1
    18   12   14 1
    19   11   19 1
    20    3   22 1
    21    3   11 ar
    22    3    8 ar
    23    4   11 ar
    24    8   14 1
    25   14   29 1
    26   14   30 1
    27    2    8 ar
    28    4   23 1
    29    4   10 ar
    30    2   10 ar
    31    2   21 1
    32   10   18 1
    33   18   32 1
    34   32   36 1
    35   32   33 1
    36   32   39 1
    37   33   37 1
    38   33   38 1
    39   33   34 1
    40   35   39 1
    41   34   39 am
    42   34   40 2
@<TRIPOS>MOLECULE
*****
   40    42     0     0     0
SMALL
NO_CHARGES

@<TRIPOS>ATOM
      1 C1          4.6260    1.7210   21.0610 C.ar      1 <0>         0.0000
      2 C2         11.5370    0.6310   23.0700 C.ar      1 <0>         0.0000
      3 C3         12.0430   -1.4680   22.0360 C.ar      1 <0>         0.0000
      4 C4         13.8290   -0.1090   22.7970 C.ar      1 <0>         0.0000
      5 C5          4.6700    1.9280   19.6670 C.ar      1 <0>         0.0000
      6 C6          6.6570    0.7270   19.5680 C.ar      1 <0>         0.0000
      7 C7          5.4610    0.8610   21.6540 C.ar      1 <0>         0.0000
      8 C8         11.0920   -0.5310   22.5450 C.ar      1 <0>         0.0000
      9 C9          6.5720    0.4060   20.8830 C.ar      1 <0>         0.0000
     10 C10        12.9530    0.8860   23.1900 C.ar      1 <0>         0.0000
     11 C11        13.3970   -1.2710   22.1670 C.ar      1 <0>         0.0000
     12 C12         8.8300   -0.1130   21.6450 C.2       1 <0>         0.0000
     13 C13         5.2840    0.4920   23.1570 C.3       1 <0>         0.0000
     14 C14         9.6720   -0.8890   22.6100 C.3       1 <0>         0.0000
     15 N1          5.7360    1.4580   18.9870 N.ar      1 <0>         0.0000
     16 N2          7.5180   -0.4610   21.5010 N.am      1 <0>         0.0000
     17 O1          9.2740    0.8770   21.0100 O.2       1 <0>         0.0000
     18 O2         13.5480    2.0140   23.7230 O.3       1 <0>         0.0000
     19 Cl1        14.5030   -2.6130   21.7500 Cl        1 <0>         0.0000
     20 H1          3.7690    2.1320   21.5960 H         1 <0>         0.0000
     21 H2         10.8380    1.3530   23.4730 H         1 <0>         0.0000
     22 H3         11.6300   -2.3980   21.6730 H         1 <0>         0.0000
     23 H4         14.9040   -0.0380   22.9230 H         1 <0>         0.0000
     24 H5          3.8880    2.5130   19.1780 H         1 <0>         0.0000
     25 H6          7.5490    0.3970   19.0290 H         1 <0>         0.0000
     26 H7          4.8110   -0.4770   23.3090 H         1 <0>         0.0000
     27 H8          6.2770    0.5050   23.6180 H         1 <0>         0.0000
     28 H9          4.7280    1.2530   23.7160 H         1 <0>         0.0000
     29 H10         9.4680   -1.9300   22.3240 H         1 <0>         0.0000
     30 H11         9.2940   -0.7040   23.6190 H         1 <0>         0.0000
     31 H12         7.3380   -1.1380   22.2470 H         1 <0>         0.0000
     32 H13        12.8570    3.0380   22.0730 H         1 <0>         0.0000
     33 H14        15.7440    2.3440   22.6270 H         1 <0>         0.0000
     34 H15        14.9830    3.1930   21.1250 H         1 <0>         0.0000
     35 N3         13.8020    4.3720   23.3750 N.am      1 <0>         0.0000
     36 O3         15.9640    4.8940   23.6550 O.2       1 <0>         0.0000
     37 C15        13.6460    3.0260   22.8280 C.3       1 <0>         0.0000
     38 C16        15.0660    3.0920   22.2100 C.3       1 <0>         0.0000
     39 C17        15.0730    4.4270   22.9590 C.2       1 <0>         0.0000
     40 H16        13.6630    4.5440   24.3690 H         1 <0>         0.0000
@<TRIPOS>BOND
     1    6   15 ar
     2    5   15 ar
     3    6   25 1
     4    5   24 1
     5    6    9 ar
     6    1    5 ar
     7    9   16 1
     8    7    9 ar
     9   12   17 2
    10    1   20 1
    11    1    7 ar
    12   34   38 1
    13   12   16 am
    14   16   31 1
    15   12   14 1
    16    7   13 1
    17    3   22 1
    18   11   19 1
    19    3   11 ar
    20    3    8 ar
    21   32   37 1
    22    4   11 ar
    23   33   38 1
    24   37   38 1
    25   38   39 1
    26   14   29 1
    27    8   14 1
    28    2    8 ar
    29   14   30 1
    30    4   23 1
    31    4   10 ar
    32   35   37 1
    33   18   37 1
    34   35   39 am
    35   36   39 2
    36    2   10 ar
    37    2   21 1
    38   13   26 1
    39   13   27 1
    40   13   28 1
    41   10   18 1
    42   35   40 1
@<TRIPOS>MOLECULE
*****
   40    42     0     0     0
SMALL
NO_CHARGES

@<TRIPOS>ATOM
      1 C1          5.0460    0.6240   19.2760 C.ar      1 <0>         0.0000
      2 C2         12.1100    0.1060   23.3750 C.ar      1 <0>         0.0000
      3 C3         12.1490   -1.5060   21.6200 C.ar      1 <0>         0.0000
      4 C4         14.2220   -0.5810   22.4450 C.ar      1 <0>         0.0000
      5 C5          5.6960    0.5000   18.0260 C.ar      1 <0>         0.0000
      6 C6          7.7080    0.0850   19.0920 C.ar      1 <0>         0.0000
      7 C7          5.7400    0.2460   20.4300 C.ar      1 <0>         0.0000
      8 C8         11.4170   -0.7330   22.5710 C.ar      1 <0>         0.0000
      9 C9          7.1270    0.0630   20.3690 C.ar      1 <0>         0.0000
     10 C10        13.5390    0.2850   23.2920 C.ar      1 <0>         0.0000
     11 C11        13.5370   -1.3990   21.5440 C.ar      1 <0>         0.0000
     12 C12         9.1680    0.0500   21.7750 C.2       1 <0>         0.0000
     13 C13         5.0570    0.1410   21.7540 C.3       1 <0>         0.0000
     14 C14         9.9350   -0.9430   22.6550 C.3       1 <0>         0.0000
     15 N1          7.0260    0.2890   17.9520 N.ar      1 <0>         0.0000
     16 N2          7.8050   -0.3010   21.5480 N.am      1 <0>         0.0000
     17 O1          9.5720    1.0490   21.2000 O.2       1 <0>         0.0000
     18 O2         14.2620    1.3770   23.7910 O.3       1 <0>         0.0000
     19 Cl1        14.4000   -2.3500   20.3430 Cl        1 <0>         0.0000
     20 H1          4.0480    1.0360   19.2880 H         1 <0>         0.0000
     21 H2         11.4970    0.6980   24.0490 H         1 <0>         0.0000
     22 H3         11.6580   -2.2430   20.9960 H         1 <0>         0.0000
     23 H4         15.2990   -0.6360   22.4050 H         1 <0>         0.0000
     24 H5          5.1840    0.8140   17.1190 H         1 <0>         0.0000
     25 H6          8.7590   -0.1710   18.9860 H         1 <0>         0.0000
     26 H7          5.4050   -0.7700   22.2600 H         1 <0>         0.0000
     27 H8          5.3440    0.9540   22.4270 H         1 <0>         0.0000
     28 H9          3.9820    0.1850   21.5660 H         1 <0>         0.0000
     29 H10         9.6750   -1.9650   22.3430 H         1 <0>         0.0000
     30 H11         9.6020   -0.7640   23.6800 H         1 <0>         0.0000
     31 H12         7.4470   -1.1110   22.0560 H         1 <0>         0.0000
     32 H13        15.4460    3.6260   24.5070 H         1 <0>         0.0000
     33 H14        12.8820    2.2380   25.1850 H         1 <0>         0.0000
     34 H15        12.5570    2.8740   22.2670 H         1 <0>         0.0000
     35 H16        11.7360    3.6770   23.7340 H         1 <0>         0.0000
     36 N3         14.4260    3.6320   24.5520 N.am      1 <0>         0.0000
     37 O3         14.4600    4.9090   22.6420 O.2       1 <0>         0.0000
     38 C15        13.5450    2.4880   24.3580 C.3       1 <0>         0.0000
     39 C16        12.6700    3.3180   23.2650 C.3       1 <0>         0.0000
     40 C17        13.8350    4.2610   23.4850 C.2       1 <0>         0.0000
@<TRIPOS>BOND
     1    5   24 1
     2    5   15 ar
     3    6   15 ar
     4    1    5 ar
     5    6   25 1
     6    6    9 ar
     7    1   20 1
     8    1    7 ar
     9   11   19 1
    10    7    9 ar
    11    9   16 1
    12    7   13 1
    13    3   22 1
    14   12   17 2
    15    3   11 ar
    16    4   11 ar
    17   12   16 am
    18   16   31 1
    19   13   28 1
    20    3    8 ar
    21   13   26 1
    22   13   27 1
    23   12   14 1
    24   34   39 1
    25   14   29 1
    26    4   23 1
    27    4   10 ar
    28    8   14 1
    29    2    8 ar
    30   37   40 2
    31   14   30 1
    32   39   40 1
    33   35   39 1
    34   38   39 1
    35    2   10 ar
    36   10   18 1
    37    2   21 1
    38   36   40 am
    39   18   38 1
    40   36   38 1
    41   33   38 1
    42   32   36 1
@<TRIPOS>MOLECULE
*****
   42    44     0     0     0
SMALL
NO_CHARGES

@<TRIPOS>ATOM
      1 C1          4.1130    0.4810   19.2510 C.ar      1 <0>         0.0000
      2 C2         10.5430    0.6750   23.9260 C.ar      1 <0>         0.0000
      3 C3         11.2110   -1.2120   22.7400 C.ar      1 <0>         0.0000
      4 C4         12.8620    0.2600   23.5610 C.ar      1 <0>         0.0000
      5 C5          4.7100    0.3890   17.9830 C.ar      1 <0>         0.0000
      6 C6          6.6760   -0.3240   18.8370 C.ar      1 <0>         0.0000
      7 C7          4.8000    0.1180   20.3490 C.ar      1 <0>         0.0000
      8 C8         10.1540   -0.4970   23.2600 C.ar      1 <0>         0.0000
      9 C9          6.1300   -0.3400   20.1550 C.ar      1 <0>         0.0000
     10 C10        11.8770    1.0180   24.1680 C.ar      1 <0>         0.0000
     11 C11        12.5110   -0.8710   22.8040 C.ar      1 <0>         0.0000
     12 C12         8.1250   -0.4660   21.6100 C.2       1 <0>         0.0000
     13 C13         4.0990    0.2500   21.6610 C.3       1 <0>         0.0000
     14 C14         8.7420   -0.9220   22.9830 C.3       1 <0>         0.0000
     15 N1          5.9520    0.0290   17.7700 N.ar      1 <0>         0.0000
     16 N2          6.8560   -0.8180   21.2750 N.am      1 <0>         0.0000
     17 O1          8.7600    0.3380   20.8690 O.2       1 <0>         0.0000
     18 O2         12.0720    2.2660   24.7700 O.3       1 <0>         0.0000
     19 Cl1        13.7020   -1.8030   21.9040 Cl        1 <0>         0.0000
     20 H1          3.0920    0.8090   19.1260 H         1 <0>         0.0000
     21 H2          9.7290    1.2700   24.3240 H         1 <0>         0.0000
     22 H3         10.9710   -2.0940   22.1470 H         1 <0>         0.0000
     23 H4         13.9210    0.4500   23.4430 H         1 <0>         0.0000
     24 H5          4.1650    0.8080   17.1510 H         1 <0>         0.0000
     25 H6          7.7440   -0.5200   18.8550 H         1 <0>         0.0000
     26 H7          3.0420    0.0160   21.5140 H         1 <0>         0.0000
     27 H8          4.5620   -0.3850   22.4280 H         1 <0>         0.0000
     28 H9          4.1420    1.2990   21.9590 H         1 <0>         0.0000
     29 H10         8.7040   -2.0230   23.0240 H         1 <0>         0.0000
     30 H11         8.0520   -0.5160   23.7380 H         1 <0>         0.0000
     31 H12         6.2670   -1.2400   21.9900 H         1 <0>         0.0000
     32 H13        13.1890    3.5450   21.9190 H         1 <0>         0.0000
     33 H14        14.1660    2.8410   23.0740 H         1 <0>         0.0000
     34 N3         12.2550    4.6840   24.4210 N.3       1 <0>         0.0000
     35 O3         14.4050    5.1280   24.2650 O.3       1 <0>         0.0000
     36 C15        12.0310    3.3940   23.8660 C.3       1 <0>         0.0000
     37 C16        13.2890    3.4920   23.0140 C.3       1 <0>         0.0000
     38 C17        13.4000    4.8260   23.7210 C.3       1 <0>         0.0000
     39 H15        12.2720    4.8510   25.4310 H         1 <0>         0.0000
     40 H16        11.0850    3.3860   23.3160 H         1 <0>         0.0000
     41 H          14.4050    5.1280   24.2650 H         1 <0>         0.0000
     42 H          13.4000    4.8260   23.7210 H         1 <0>         0.0000
@<TRIPOS>BOND
     1    5   24 1
     2    5   15 ar
     3    6   15 ar
     4    1    5 ar
     5    6   25 1
     6    6    9 ar
     7    1   20 1
     8    1    7 ar
     9    7    9 ar
    10    9   16 1
    11    7   13 1
    12   12   17 2
    13   12   16 am
    14   16   31 1
    15   13   26 1
    16   12   14 1
    17   13   28 1
    18   13   27 1
    19   11   19 1
    20   32   37 1
    21    3   22 1
    22    3   11 ar
    23    3    8 ar
    24    4   11 ar
    25   14   29 1
    26    8   14 1
    27   14   30 1
    28   33   37 1
    29   37   38 1
    30   36   37 1
    31    2    8 ar
    32   36   40 1
    33    4   23 1
    34    4   10 ar
    35   35   38 1
    36   34   38 1
    37   34   36 1
    38   18   36 1
    39    2   10 ar
    40    2   21 1
    41   10   18 1
    42   34   39 1
    43   35   41 1
    44   38   42 1
@<TRIPOS>MOLECULE
*****
   40    42     0     0     0
SMALL
NO_CHARGES

@<TRIPOS>ATOM
      1 C1          5.6290    0.4850   19.6160 C.ar      1 <0>         0.0000
      2 C2         12.5960    0.9790   23.4240 C.ar      1 <0>         0.0000
      3 C3         12.6740   -0.9840   22.0080 C.ar      1 <0>         0.0000
      4 C4         14.6910    0.2080   22.4630 C.ar      1 <0>         0.0000
      5 C5          6.0040    0.6700   18.2570 C.ar      1 <0>         0.0000
      6 C6          8.0950   -0.0880   18.6940 C.ar      1 <0>         0.0000
      7 C7          6.6500    0.1000   20.5640 C.ar      1 <0>         0.0000
      8 C8         11.9330   -0.0340   22.7750 C.ar      1 <0>         0.0000
      9 C9          7.8830   -0.2790   20.0810 C.ar      1 <0>         0.0000
     10 C10        14.0140    1.1650   23.3010 C.ar      1 <0>         0.0000
     11 C11        14.0450   -0.8600   21.9220 C.ar      1 <0>         0.0000
     12 C12         9.6200    0.2710   21.7750 C.2       1 <0>         0.0000
     13 C13         6.2480   -0.1500   21.9860 C.3       1 <0>         0.0000
     14 C14        10.4620   -0.2480   22.9860 C.3       1 <0>         0.0000
     15 N1          7.1780    0.3300   17.8030 N.ar      1 <0>         0.0000
     16 N2          8.9210   -0.6250   20.9780 N.am      1 <0>         0.0000
     17 O1          9.7190    1.4610   21.4310 O.2       1 <0>         0.0000
     18 O2         14.7680    2.2590   23.8310 O.3       1 <0>         0.0000
     19 Cl1        14.9560   -1.8430   20.8470 Cl        1 <0>         0.0000
     20 H1          4.6100    0.6170   19.9610 H         1 <0>         0.0000
     21 H2         12.0740    1.7480   23.9900 H         1 <0>         0.0000
     22 H3         12.1850   -1.7510   21.4090 H         1 <0>         0.0000
     23 H4         15.7250    0.3990   22.2100 H         1 <0>         0.0000
     24 H5          5.2670    0.9920   17.5320 H         1 <0>         0.0000
     25 H6          9.0860   -0.3300   18.3220 H         1 <0>         0.0000
     26 H7          5.6660   -1.0720   22.0900 H         1 <0>         0.0000
     27 H8          7.1070   -0.0640   22.6640 H         1 <0>         0.0000
     28 H9          5.6150    0.6920   22.2690 H         1 <0>         0.0000
     29 H10        10.2380   -1.2750   23.2680 H         1 <0>         0.0000
     30 H11        10.1210    0.2200   23.9170 H         1 <0>         0.0000
     31 H12         8.9150   -1.5880   21.2910 H         1 <0>         0.0000
     32 H13        12.1170    4.4830   23.7010 H         1 <0>         0.0000
     33 H14        13.1190    3.6650   22.3510 H         1 <0>         0.0000
     34 N3         14.9450    4.5390   24.3840 N.am      1 <0>         0.0000
     35 O3         14.0650    6.4300   23.4780 O.2       1 <0>         0.0000
     36 C15        14.0440    3.4230   24.3910 C.3       1 <0>         0.0000
     37 C16        13.0950    4.1860   23.3140 C.3       1 <0>         0.0000
     38 C17        14.1640    5.2350   23.5420 C.2       1 <0>         0.0000
     39 H15        15.1440    5.1130   25.2100 H         1 <0>         0.0000
     40 H16        13.5060    3.1090   25.2810 H         1 <0>         0.0000
@<TRIPOS>BOND
     1    5   24 1
     2    5   15 ar
     3    6   15 ar
     4    1    5 ar
     5    6   25 1
     6    6    9 ar
     7    1   20 1
     8    1    7 ar
     9    7    9 ar
    10    9   16 1
    11    7   13 1
    12   11   19 1
    13   16   31 1
    14   12   16 am
    15    3   22 1
    16   12   17 2
    17   12   14 1
    18    3   11 ar
    19    4   11 ar
    20   13   26 1
    21   13   28 1
    22   13   27 1
    23    3    8 ar
    24    4   23 1
    25   33   37 1
    26    4   10 ar
    27    8   14 1
    28    2    8 ar
    29   14   29 1
    30   14   30 1
    31    2   10 ar
    32   10   18 1
    33   37   38 1
    34   32   37 1
    35   36   37 1
    36    2   21 1
    37   35   38 2
    38   34   38 am
    39   18   36 1
    40   34   36 1
    41   34   39 1
    42   36   40 1
@<TRIPOS>MOLECULE
*****
   40    42     0     0     0
SMALL
NO_CHARGES

@<TRIPOS>ATOM
      1 C1          5.1720    1.9400   19.8440 C.ar      1 <0>         0.0000
      2 C2          9.5120   -1.4420   23.4580 C.ar      1 <0>         0.0000
      3 C3         11.2510   -1.5820   21.8000 C.ar      1 <0>         0.0000
      4 C4         11.6410   -0.2860   23.7490 C.ar      1 <0>         0.0000
      5 C5          5.0690    1.6450   18.4210 C.ar      1 <0>         0.0000
      6 C6          6.5820   -0.1330   18.6140 C.ar      1 <0>         0.0000
      7 C7          6.0780    1.1520   20.6000 C.ar      1 <0>         0.0000
      8 C8          9.9170   -1.9250   22.2150 C.ar      1 <0>         0.0000
      9 C9          6.7660    0.1060   19.9940 C.ar      1 <0>         0.0000
     10 C10        10.3880   -0.6290   24.2970 C.ar      1 <0>         0.0000
     11 C11        12.0940   -0.8420   22.5630 C.ar      1 <0>         0.0000
     12 C12         7.8760   -2.0720   20.6300 C.2       1 <0>         0.0000
     13 C13         6.1260    1.6150   22.0190 C.3       1 <0>         0.0000
     14 C14         8.9740   -2.7990   21.4670 C.3       1 <0>         0.0000
     15 N1          5.7740    0.6200   17.8560 N.ar      1 <0>         0.0000
     16 N2          7.6750   -0.7040   20.7550 N.am      1 <0>         0.0000
     17 O1          6.9810   -2.7450   20.1650 O.2       1 <0>         0.0000
     18 O2         10.0530   -0.2040   25.5350 O.3       1 <0>         0.0000
     19 Cl1        13.7460   -0.7660   22.1050 Cl        1 <0>         0.0000
     20 H1          4.6940    2.7620   20.3750 H         1 <0>         0.0000
     21 H2          8.5320   -1.7210   23.8430 H         1 <0>         0.0000
     22 H3         11.6650   -2.0340   20.9070 H         1 <0>         0.0000
     23 H4         12.3620    0.2240   24.3770 H         1 <0>         0.0000
     24 H5          4.3470    2.2460   17.8790 H         1 <0>         0.0000
     25 H6          7.1630   -0.9470   18.1870 H         1 <0>         0.0000
     26 H7          6.5200    2.6360   22.0740 H         1 <0>         0.0000
     27 H8          5.1960    1.5240   22.5960 H         1 <0>         0.0000
     28 H9          6.8990    1.0570   22.5420 H         1 <0>         0.0000
     29 H10         9.4680   -3.5560   20.8320 H         1 <0>         0.0000
     30 H11         8.5020   -3.5190   22.1380 H         1 <0>         0.0000
     31 H12         8.3500   -0.2350   21.3490 H         1 <0>         0.0000
     32 N3          8.5220    0.3340   27.2830 N.am      1 <0>         0.0000
     33 O3          7.1260    2.0950   27.1190 O.2       1 <0>         0.0000
     34 C15         8.7060   -0.3000   26.0020 C.3       1 <0>         0.0000
     35 C16         7.5600    0.4980   25.3380 C.3       1 <0>         0.0000
     36 C17         7.4800    1.0000   26.7940 C.2       1 <0>         0.0000
     37 H13         9.3280    0.8890   27.5860 H         1 <0>         0.0000
     38 H14         8.4680   -1.3650   26.0420 H         1 <0>         0.0000
     39 H15         6.6490   -0.0410   25.0400 H         1 <0>         0.0000
     40 H16         7.8930    1.2130   24.5750 H         1 <0>         0.0000
@<TRIPOS>BOND
     1    5   15 ar
     2    6   15 ar
     3    5   24 1
     4    6   25 1
     5    1    5 ar
     6    6    9 ar
     7    1   20 1
     8    1    7 ar
     9    7    9 ar
    10    9   16 1
    11   12   17 2
    12    7   13 1
    13   12   16 am
    14   12   14 1
    15   16   31 1
    16   14   29 1
    17    3   22 1
    18   14   30 1
    19    8   14 1
    20    3    8 ar
    21    3   11 ar
    22   13   26 1
    23   13   28 1
    24   13   27 1
    25   11   19 1
    26    2    8 ar
    27    4   11 ar
    28    2   21 1
    29    2   10 ar
    30    4   10 ar
    31    4   23 1
    32   10   18 1
    33   35   40 1
    34   35   39 1
    35   34   35 1
    36   35   36 1
    37   18   34 1
    38   34   38 1
    39   32   34 1
    40   33   36 2
    41   32   36 am
    42   32   37 1
@<TRIPOS>MOLECULE
*****
   40    42     0     0     0
SMALL
NO_CHARGES

@<TRIPOS>ATOM
      1 C1          5.4050    2.5400   17.4900 C.ar      1 <0>         0.0000
      2 C2         10.8110    2.4730   22.5680 C.ar      1 <0>         0.0000
      3 C3         10.1830    0.8440   24.1130 C.ar      1 <0>         0.0000
      4 C4         12.4820    1.4300   23.8490 C.ar      1 <0>         0.0000
      5 C5          6.0320    1.5650   16.7320 C.ar      1 <0>         0.0000
      6 C6          7.0310    0.7230   18.5750 C.ar      1 <0>         0.0000
      7 C7          5.6480    2.6650   18.8560 C.ar      1 <0>         0.0000
      8 C8          9.8360    1.7480   23.1540 C.ar      1 <0>         0.0000
      9 C9          6.4830    1.6550   19.4390 C.ar      1 <0>         0.0000
     10 C10        12.2010    2.3820   22.9030 C.ar      1 <0>         0.0000
     11 C11        11.5520    0.5490   24.3610 C.ar      1 <0>         0.0000
     12 C12         8.1190    1.6780   21.2580 C.2       1 <0>         0.0000
     13 C13         5.0050    3.7270   19.7600 C.3       1 <0>         0.0000
     14 C14         8.4730    1.9650   22.7260 C.3       1 <0>         0.0000
     15 N1          6.8370    0.6890   17.2410 N.ar      1 <0>         0.0000
     16 N2          6.8180    1.6790   20.8010 N.am      1 <0>         0.0000
     17 O1          8.9980    1.3340   20.4620 O.2       1 <0>         0.0000
     18 O2         13.2680    3.0840   22.4420 O.3       1 <0>         0.0000
     19 Cl1        12.1250   -0.7550   25.4920 Cl        1 <0>         0.0000
     20 H1          4.8440    3.2920   16.9370 H         1 <0>         0.0000
     21 H2         10.5980    3.0750   21.6940 H         1 <0>         0.0000
     22 H3          9.4000    0.2480   24.5640 H         1 <0>         0.0000
     23 H4         13.5300    1.2570   24.0650 H         1 <0>         0.0000
     24 H5          5.7870    1.4980   15.6740 H         1 <0>         0.0000
     25 H6          7.4510   -0.1690   19.0260 H         1 <0>         0.0000
     26 H7          5.8080    4.2750   20.2650 H         1 <0>         0.0000
     27 H8          4.4160    4.3340   19.0650 H         1 <0>         0.0000
     28 H9          4.2020    3.2580   20.3480 H         1 <0>         0.0000
     29 H10         7.7500    1.3760   23.2910 H         1 <0>         0.0000
     30 H11         8.2190    3.0200   22.8430 H         1 <0>         0.0000
     31 H12         6.0610    1.8770   21.4620 H         1 <0>         0.0000
     32 N3         12.4310    5.3220   22.0190 N.am      1 <0>         0.0000
     33 O3         13.7210    7.1500   21.8710 O.2       1 <0>         0.0000
     34 C15        12.9620    4.0780   21.4830 C.3       1 <0>         0.0000
     35 C16        14.0930    4.9610   20.8000 C.3       1 <0>         0.0000
     36 C17        13.3020    6.0800   21.4890 C.2       1 <0>         0.0000
     37 H13        12.0830    5.4610   22.9630 H         1 <0>         0.0000
     38 H14        12.3680    3.7680   20.6170 H         1 <0>         0.0000
     39 H15        14.0300    5.0470   19.7150 H         1 <0>         0.0000
     40 H16        15.0920    4.8520   21.2440 H         1 <0>         0.0000
@<TRIPOS>BOND
     1    5   24 1
     2    5   15 ar
     3    1    5 ar
     4    1   20 1
     5    6   15 ar
     6    1    7 ar
     7    6   25 1
     8    6    9 ar
     9    7    9 ar
    10    7   13 1
    11   13   27 1
    12    9   16 1
    13   35   39 1
    14   13   26 1
    15   13   28 1
    16   12   17 2
    17   34   38 1
    18   35   40 1
    19   34   35 1
    20   35   36 1
    21   12   16 am
    22   16   31 1
    23   12   14 1
    24   32   34 1
    25   18   34 1
    26   33   36 2
    27   32   36 am
    28    2   21 1
    29   32   37 1
    30   10   18 1
    31    2   10 ar
    32    2    8 ar
    33   14   30 1
    34    8   14 1
    35   14   29 1
    36    4   10 ar
    37    3    8 ar
    38    4   23 1
    39    4   11 ar
    40    3   11 ar
    41    3   22 1
    42   11   19 1
@<TRIPOS>MOLECULE
*****
   40    42     0     0     0
SMALL
NO_CHARGES

@<TRIPOS>ATOM
      1 C1          4.3460    0.6080   19.4770 C.ar      1 <0>         0.0000
      2 C2         11.7120    0.6160   23.0710 C.ar      1 <0>         0.0000
      3 C3         11.6260   -1.4940   21.8850 C.ar      1 <0>         0.0000
      4 C4         13.7140   -0.3050   22.0560 C.ar      1 <0>         0.0000
      5 C5          4.8430    0.8330   18.2060 C.ar      1 <0>         0.0000
      6 C6          6.8930    0.0310   18.8270 C.ar      1 <0>         0.0000
      7 C7          5.0930   -0.0320   20.4820 C.ar      1 <0>         0.0000
      8 C8         10.9270   -0.4420   22.5950 C.ar      1 <0>         0.0000
      9 C9          6.4360   -0.2580   20.1280 C.ar      1 <0>         0.0000
     10 C10        13.1000    0.6840   22.8060 C.ar      1 <0>         0.0000
     11 C11        12.9730   -1.3810   21.6070 C.ar      1 <0>         0.0000
     12 C12         8.6000   -0.0480   21.4800 C.2       1 <0>         0.0000
     13 C13         4.5000   -0.1660   21.8710 C.3       1 <0>         0.0000
     14 C14         9.4180   -0.4950   22.7780 C.3       1 <0>         0.0000
     15 N1          6.0680    0.4750   17.8510 N.ar      1 <0>         0.0000
     16 N2          7.3260   -0.6190   21.1370 N.am      1 <0>         0.0000
     17 O1          9.0500    0.8600   20.8240 O.2       1 <0>         0.0000
     18 O2         13.9950    1.6950   23.1850 O.3       1 <0>         0.0000
     19 Cl1        13.7570   -2.6200   20.7010 Cl        1 <0>         0.0000
     20 H1          3.3160    0.9500   19.5860 H         1 <0>         0.0000
     21 H2         11.1940    1.4150   23.5960 H         1 <0>         0.0000
     22 H3         11.1200   -2.3310   21.4340 H         1 <0>         0.0000
     23 H4         14.7470   -0.2540   21.7300 H         1 <0>         0.0000
     24 H5          4.2490    1.1940   17.3740 H         1 <0>         0.0000
     25 H6          7.9160   -0.1280   18.4950 H         1 <0>         0.0000
     26 H7          4.7370    0.7350   22.4500 H         1 <0>         0.0000
     27 H8          3.4160   -0.2490   21.7580 H         1 <0>         0.0000
     28 H9          4.7750   -1.1230   22.3300 H         1 <0>         0.0000
     29 H10         9.1370   -1.4920   23.1340 H         1 <0>         0.0000
     30 H11         9.0360    0.2020   23.5320 H         1 <0>         0.0000
     31 H12         6.9070   -1.2640   21.7980 H         1 <0>         0.0000
     32 H13        12.9190    2.6170   24.6700 H         1 <0>         0.0000
     33 H14        11.6030    3.9900   23.1090 H         1 <0>         0.0000
     34 H15        12.4180    3.2870   21.6910 H         1 <0>         0.0000
     35 N3         14.2810    3.9800   23.9500 N.am      1 <0>         0.0000
     36 O3         14.1900    5.5570   22.3090 O.2       1 <0>         0.0000
     37 C15        13.3970    2.8920   23.7260 C.3       1 <0>         0.0000
     38 C16        12.5760    3.7270   22.6880 C.3       1 <0>         0.0000
     39 C17        13.7180    4.6530   22.9740 C.2       1 <0>         0.0000
     40 H16        15.2980    3.9360   23.9170 H         1 <0>         0.0000
@<TRIPOS>BOND
     1    5   24 1
     2    5   15 ar
     3    6   15 ar
     4    1    5 ar
     5    6   25 1
     6    6    9 ar
     7    1   20 1
     8    1    7 ar
     9    7    9 ar
    10    9   16 1
    11    7   13 1
    12   11   19 1
    13   12   17 2
    14   12   16 am
    15   16   31 1
    16    3   22 1
    17   12   14 1
    18    3   11 ar
    19    4   11 ar
    20   34   38 1
    21    4   23 1
    22   13   27 1
    23   13   28 1
    24   13   26 1
    25    3    8 ar
    26    4   10 ar
    27   36   39 2
    28    8   14 1
    29    2    8 ar
    30   38   39 1
    31   33   38 1
    32   37   38 1
    33   14   29 1
    34   14   30 1
    35    2   10 ar
    36   10   18 1
    37   35   39 am
    38    2   21 1
    39   18   37 1
    40   35   37 1
    41   32   37 1
    42   35   40 1
@<TRIPOS>MOLECULE
*****
   40    42     0     0     0
SMALL
NO_CHARGES

@<TRIPOS>ATOM
      1 C1          6.0340    0.7230   19.2750 C.ar      1 <0>         0.0000
      2 C2         13.1720    1.2360   23.2940 C.ar      1 <0>         0.0000
      3 C3         13.2180   -0.7620   21.8690 C.ar      1 <0>         0.0000
      4 C4         15.2410    0.4350   22.3460 C.ar      1 <0>         0.0000
      5 C5          6.6120    0.9960   18.0100 C.ar      1 <0>         0.0000
      6 C6          8.7230    0.7350   18.9000 C.ar      1 <0>         0.0000
      7 C7          6.8220    0.4450   20.3820 C.ar      1 <0>         0.0000
      8 C8         12.4630    0.1150   22.6520 C.ar      1 <0>         0.0000
      9 C9          8.2330    0.4250   20.1860 C.ar      1 <0>         0.0000
     10 C10        14.5510    1.4630   23.0600 C.ar      1 <0>         0.0000
     11 C11        14.5810   -0.6130   21.7500 C.ar      1 <0>         0.0000
     12 C12        10.1920    0.5800   21.6030 C.2       1 <0>         0.0000
     13 C13         6.2160    0.3080   21.6960 C.3       1 <0>         0.0000
     14 C14        10.9340   -0.0610   22.8020 C.3       1 <0>         0.0000
     15 N1          7.9760    0.9380   17.8430 N.ar      1 <0>         0.0000
     16 N2          9.0480    0.0270   21.2210 N.am      1 <0>         0.0000
     17 O1         10.6860    1.5160   21.0450 O.2       1 <0>         0.0000
     18 O2         15.2640    2.5650   23.5800 O.3       1 <0>         0.0000
     19 Cl1        15.4890   -1.8540   20.8060 Cl        1 <0>         0.0000
     20 H1          4.9600    0.7060   19.3540 H         1 <0>         0.0000
     21 H2         12.5470    1.9200   23.8520 H         1 <0>         0.0000
     22 H3         12.7100   -1.5780   21.3550 H         1 <0>         0.0000
     23 H4         16.3170    0.5540   22.3170 H         1 <0>         0.0000
     24 H5          5.8900    1.0080   17.2100 H         1 <0>         0.0000
     25 H6          9.7620    0.5840   18.6260 H         1 <0>         0.0000
     26 H7          6.8820    0.6190   22.5090 H         1 <0>         0.0000
     27 H8          5.4050    1.0320   21.7820 H         1 <0>         0.0000
     28 H9          5.7320   -0.6470   21.8790 H         1 <0>         0.0000
     29 H10        10.6180   -1.1030   22.7060 H         1 <0>         0.0000
     30 H11        10.6230    0.2850   23.7870 H         1 <0>         0.0000
     31 H12         8.6620   -0.6550   21.8760 H         1 <0>         0.0000
     32 H13        13.9900    3.3540   24.9670 H         1 <0>         0.0000
     33 H14        13.9050    4.2570   21.9960 H         1 <0>         0.0000
     34 H15        12.7240    4.7960   23.3660 H         1 <0>         0.0000
     35 N3         15.4210    4.7570   24.4160 N.am      1 <0>         0.0000
     36 O3         15.3250    6.4600   22.8590 O.2       1 <0>         0.0000
     37 C15        14.5920    3.6710   24.1060 C.3       1 <0>         0.0000
     38 C16        13.7490    4.5490   23.0430 C.3       1 <0>         0.0000
     39 C17        14.8330    5.5580   23.4930 C.2       1 <0>         0.0000
     40 H16        16.4420    4.6660   24.4040 H         1 <0>         0.0000
@<TRIPOS>BOND
     1    5   24 1
     2    5   15 ar
     3    6   15 ar
     4    1    5 ar
     5    6   25 1
     6    6    9 ar
     7    1   20 1
     8    1    7 ar
     9    7    9 ar
    10    9   16 1
    11    7   13 1
    12   11   19 1
    13   12   17 2
    14   12   16 am
    15   16   31 1
    16    3   22 1
    17   12   14 1
    18   13   27 1
    19   13   28 1
    20   13   26 1
    21    3   11 ar
    22    4   11 ar
    23    3    8 ar
    24   33   38 1
    25    4   23 1
    26    4   10 ar
    27    8   14 1
    28    2    8 ar
    29   14   29 1
    30   14   30 1
    31   36   39 2
    32   34   38 1
    33   38   39 1
    34   37   38 1
    35    2   10 ar
    36   10   18 1
    37    2   21 1
    38   35   39 am
    39   18   37 1
    40   35   37 1
    41   32   37 1
    42   35   40 1
@<TRIPOS>MOLECULE
*****
   40    42     0     0     0
SMALL
NO_CHARGES

@<TRIPOS>ATOM
      1 C1          5.8640    1.7990   19.6040 C.ar      1 <0>         0.0000
      2 C2         12.9220    1.8420   22.6360 C.ar      1 <0>         0.0000
      3 C3         12.6510   -0.3300   21.5230 C.ar      1 <0>         0.0000
      4 C4         14.8140    0.6710   21.6590 C.ar      1 <0>         0.0000
      5 C5          6.0020    1.2680   18.3220 C.ar      1 <0>         0.0000
      6 C6          7.7900   -0.0410   19.1150 C.ar      1 <0>         0.0000
      7 C7          6.7120    1.5320   20.6090 C.ar      1 <0>         0.0000
      8 C8         12.1070    0.6780   22.2870 C.ar      1 <0>         0.0000
      9 C9          7.7230    0.5530   20.3720 C.ar      1 <0>         0.0000
     10 C10        14.3050    1.8240   22.2510 C.ar      1 <0>         0.0000
     11 C11        14.0160   -0.3430   21.1850 C.ar      1 <0>         0.0000
     12 C12         9.7850    0.9420   21.6320 C.2       1 <0>         0.0000
     13 C13         6.5700    2.1390   21.9410 C.3       1 <0>         0.0000
     14 C14        10.6880    0.5300   22.7180 C.3       1 <0>         0.0000
     15 N1          7.0050    0.2940   18.0890 N.ar      1 <0>         0.0000
     16 N2          8.6630    0.2020   21.3210 N.am      1 <0>         0.0000
     17 O1          9.9530    2.0480   21.1220 O.2       1 <0>         0.0000
     18 O2         15.1410    2.9870   22.3130 O.3       1 <0>         0.0000
     19 Cl1        14.7210   -1.6590   20.2770 Cl        1 <0>         0.0000
     20 H1          5.0050    2.4350   19.8030 H         1 <0>         0.0000
     21 H2         12.4220    2.6010   23.2260 H         1 <0>         0.0000
     22 H3         12.0290   -1.1800   21.2530 H         1 <0>         0.0000
     23 H4         15.8190    0.8810   21.3290 H         1 <0>         0.0000
     24 H5          5.2340    1.4890   17.5970 H         1 <0>         0.0000
     25 H6          8.5860   -0.7450   18.9360 H         1 <0>         0.0000
     26 H7          7.4770    2.6820   22.2170 H         1 <0>         0.0000
     27 H8          5.7610    2.8720   21.9880 H         1 <0>         0.0000
     28 H9          6.4580    1.2600   22.5730 H         1 <0>         0.0000
     29 H10        10.5790   -0.5270   22.9470 H         1 <0>         0.0000
     30 H11        10.5120    1.0970   23.6440 H         1 <0>         0.0000
     31 H12         8.5400   -0.6710   21.8210 H         1 <0>         0.0000
     32 H13        12.6940    5.1020   22.1570 H         1 <0>         0.0000
     33 H14        13.6180    4.5660   20.7230 H         1 <0>         0.0000
     34 N3         15.5880    5.2830   22.5750 N.am      1 <0>         0.0000
     35 O3         14.6430    7.1700   21.6910 O.2       1 <0>         0.0000
     36 C15        14.6460    4.2130   22.7840 C.3       1 <0>         0.0000
     37 C16        13.6880    4.8930   21.7590 C.3       1 <0>         0.0000
     38 C17        14.7950    5.9570   21.7720 C.2       1 <0>         0.0000
     39 H15        16.0270    5.7150   23.3820 H         1 <0>         0.0000
     40 H16        14.1370    4.3050   23.7500 H         1 <0>         0.0000
@<TRIPOS>BOND
     1    5   24 1
     2    5   15 ar
     3    6   15 ar
     4    1    5 ar
     5    6   25 1
     6    6    9 ar
     7    1   20 1
     8    1    7 ar
     9   11   19 1
    10    7    9 ar
    11    9   16 1
    12    7   13 1
    13   33   37 1
    14   12   17 2
    15    3   11 ar
    16    4   11 ar
    17    3   22 1
    18   12   16 am
    19   16   31 1
    20    4   23 1
    21    3    8 ar
    22   12   14 1
    23    4   10 ar
    24   35   38 2
    25   37   38 1
    26   32   37 1
    27   36   37 1
    28   34   38 am
    29   13   27 1
    30   13   26 1
    31   13   28 1
    32   10   18 1
    33    2   10 ar
    34    2    8 ar
    35    8   14 1
    36   18   36 1
    37   34   36 1
    38   34   39 1
    39    2   21 1
    40   14   29 1
    41   14   30 1
    42   36   40 1
@<TRIPOS>MOLECULE
*****
   40    42     0     0     0
SMALL
NO_CHARGES

@<TRIPOS>ATOM
      1 C1          3.7740    1.3780   18.6220 C.ar      1 <0>         0.0000
      2 C2          9.6450    2.6860   23.6150 C.ar      1 <0>         0.0000
      3 C3         10.5030    0.7650   22.5080 C.ar      1 <0>         0.0000
      4 C4         12.0550    2.4870   23.2650 C.ar      1 <0>         0.0000
      5 C5          4.4710    1.1820   17.4500 C.ar      1 <0>         0.0000
      6 C6          6.3810    0.8300   18.7370 C.ar      1 <0>         0.0000
      7 C7          4.3080    1.2090   19.8690 C.ar      1 <0>         0.0000
      8 C8          9.4200    1.4980   23.0100 C.ar      1 <0>         0.0000
      9 C9          5.7000    0.8980   19.9300 C.ar      1 <0>         0.0000
     10 C10        10.9430    3.2530   23.7820 C.ar      1 <0>         0.0000
     11 C11        11.8850    1.1780   22.7410 C.ar      1 <0>         0.0000
     12 C12         7.5430    1.1140   21.4820 C.2       1 <0>         0.0000
     13 C13         3.4520    1.1070   21.1130 C.3       1 <0>         0.0000
     14 C14         8.0100    0.9480   22.9390 C.3       1 <0>         0.0000
     15 N1          5.8050    0.8970   17.4740 N.ar      1 <0>         0.0000
     16 N2          6.3030    0.5780   21.1310 N.am      1 <0>         0.0000
     17 O1          8.2330    1.7060   20.7050 O.2       1 <0>         0.0000
     18 O2         11.2590    4.4570   24.3670 O.3       1 <0>         0.0000
     19 Cl1        13.2710    0.1300   22.2160 Cl        1 <0>         0.0000
     20 H1          2.7330    1.6630   18.5160 H         1 <0>         0.0000
     21 H2          8.8440    3.2940   24.0140 H         1 <0>         0.0000
     22 H3         10.3160   -0.2160   22.0750 H         1 <0>         0.0000
     23 H4         13.0430    2.9280   23.3400 H         1 <0>         0.0000
     24 H5          3.9140    1.2600   16.5300 H         1 <0>         0.0000
     25 H6          7.4030    0.4610   18.7540 H         1 <0>         0.0000
     26 H7          3.6850    0.1510   21.5900 H         1 <0>         0.0000
     27 H8          3.8240    1.8450   21.8420 H         1 <0>         0.0000
     28 H9          2.3910    1.2690   20.9240 H         1 <0>         0.0000
     29 H10         8.0600   -0.1300   23.1150 H         1 <0>         0.0000
     30 H11         7.3060    1.4350   23.6220 H         1 <0>         0.0000
     31 H12         5.6820    0.4310   21.9230 H         1 <0>         0.0000
     32 C15        10.4290    5.6100   24.2160 C.3       1 <0>         0.0000
     33 C16        10.5430    6.4650   22.8750 C.3       1 <0>         0.0000
     34 C17        11.2530    7.3810   23.7690 C.2       1 <0>         0.0000
     35 H13        11.9690    6.5150   25.3910 H         1 <0>         0.0000
     36 H14         9.3670    5.4610   24.4490 H         1 <0>         0.0000
     37 H15         9.6260    6.8580   22.4320 H         1 <0>         0.0000
     38 H16        11.1710    6.0080   22.1040 H         1 <0>         0.0000
     39 N3         11.0780    6.6690   24.9150 N.am      1 <0>         0.0000
     40 O3         12.1390    8.1700   23.5250 O.2       1 <0>         0.0000
@<TRIPOS>BOND
     1    5   24 1
     2    5   15 ar
     3    1    5 ar
     4    6   15 ar
     5    1   20 1
     6    1    7 ar
     7    6   25 1
     8    6    9 ar
     9    7    9 ar
    10    7   13 1
    11    9   16 1
    12   12   17 2
    13   13   28 1
    14   13   26 1
    15   13   27 1
    16   12   16 am
    17   16   31 1
    18   12   14 1
    19    3   22 1
    20   33   38 1
    21   11   19 1
    22   33   37 1
    23    3   11 ar
    24    3    8 ar
    25    4   11 ar
    26   33   34 1
    27   32   33 1
    28    8   14 1
    29   14   29 1
    30   14   30 1
    31    2    8 ar
    32    4   23 1
    33    4   10 ar
    34   34   40 2
    35    2   10 ar
    36    2   21 1
    37   34   39 am
    38   10   18 1
    39   18   32 1
    40   32   36 1
    41   32   39 1
    42   35   39 1
@<TRIPOS>MOLECULE
*****
   40    42     0     0     0
SMALL
NO_CHARGES

@<TRIPOS>ATOM
      1 C1          6.2540    2.2480   19.1430 C.ar      1 <0>         0.0000
      2 C2          9.9490   -1.7160   23.7880 C.ar      1 <0>         0.0000
      3 C3         10.9080   -2.6190   21.7280 C.ar      1 <0>         0.0000
      4 C4         12.2710   -1.5600   23.4370 C.ar      1 <0>         0.0000
      5 C5          6.3800    1.8730   17.7810 C.ar      1 <0>         0.0000
      6 C6          7.3080   -0.1730   18.4350 C.ar      1 <0>         0.0000
      7 C7          6.5880    1.3490   20.1690 C.ar      1 <0>         0.0000
      8 C8          9.7600   -2.3920   22.5250 C.ar      1 <0>         0.0000
      9 C9          7.1020    0.1130   19.7910 C.ar      1 <0>         0.0000
     10 C10        11.1930   -1.2440   24.2410 C.ar      1 <0>         0.0000
     11 C11        12.1030   -2.0970   22.1970 C.ar      1 <0>         0.0000
     12 C12         7.9400   -2.1120   20.8040 C.2       1 <0>         0.0000
     13 C13         6.3480    1.8140   21.5950 C.3       1 <0>         0.0000
     14 C14         8.3910   -2.7890   22.0520 C.3       1 <0>         0.0000
     15 N1          6.9720    0.6660   17.4600 N.ar      1 <0>         0.0000
     16 N2          7.4670   -0.8080   20.8190 N.am      1 <0>         0.0000
     17 O1          7.5580   -2.8420   19.8960 O.2       1 <0>         0.0000
     18 O2         11.5430   -0.6150   25.4220 O.3       1 <0>         0.0000
     19 Cl1        13.5380   -2.2470   21.1400 Cl        1 <0>         0.0000
     20 H1          5.9180    3.2520   19.3900 H         1 <0>         0.0000
     21 H2          9.0520   -1.4680   24.3490 H         1 <0>         0.0000
     22 H3         10.8610   -3.0290   20.7220 H         1 <0>         0.0000
     23 H4         13.2500   -1.1930   23.7110 H         1 <0>         0.0000
     24 H5          6.1350    2.5990   17.0180 H         1 <0>         0.0000
     25 H6          7.8210   -1.1050   18.2290 H         1 <0>         0.0000
     26 H7          6.9150    1.3060   22.3750 H         1 <0>         0.0000
     27 H8          6.6590    2.8640   21.6280 H         1 <0>         0.0000
     28 H9          5.2820    1.6680   21.8260 H         1 <0>         0.0000
     29 H10         8.3400   -3.8720   21.9150 H         1 <0>         0.0000
     30 H11         7.5730   -2.5870   22.7470 H         1 <0>         0.0000
     31 H12         7.5070   -0.4060   21.7630 H         1 <0>         0.0000
     32 H13         8.6050    0.5890   26.6810 H         1 <0>         0.0000
     33 H14         9.7790    1.4560   25.5340 H         1 <0>         0.0000
     34 N3         11.1620   -0.0620   27.6850 N.am      1 <0>         0.0000
     35 O3         10.7590    2.1060   28.0290 O.2       1 <0>         0.0000
     36 C15        10.5790   -0.4950   26.4500 C.3       1 <0>         0.0000
     37 C16         9.6410    0.7690   26.3770 C.3       1 <0>         0.0000
     38 C17        10.4110    0.9740   27.6250 C.2       1 <0>         0.0000
     39 H15        12.1680    0.0750   27.8290 H         1 <0>         0.0000
     40 H16        10.0890   -1.4470   26.6650 H         1 <0>         0.0000
@<TRIPOS>BOND
     1    5   24 1
     2    5   15 ar
     3    6   15 ar
     4    1    5 ar
     5    6   25 1
     6    6    9 ar
     7    1   20 1
     8    1    7 ar
     9    7    9 ar
    10    9   16 1
    11   12   17 2
    12    7   13 1
    13    3   22 1
    14   12   16 am
    15   12   14 1
    16   16   31 1
    17   11   19 1
    18   13   27 1
    19   13   28 1
    20   13   26 1
    21    3   11 ar
    22    3    8 ar
    23   14   29 1
    24    8   14 1
    25   14   30 1
    26    4   11 ar
    27    2    8 ar
    28    4   23 1
    29    4   10 ar
    30    2   10 ar
    31    2   21 1
    32   10   18 1
    33   18   36 1
    34   33   37 1
    35   36   37 1
    36   32   37 1
    37   37   38 1
    38   36   40 1
    39   34   36 1
    40   34   38 am
    41   35   38 2
    42   34   39 1
@<TRIPOS>MOLECULE
*****
   40    42     0     0     0
SMALL
NO_CHARGES

@<TRIPOS>ATOM
      1 C1          4.8840    1.5250   17.7640 C.ar      1 <0>         0.0000
      2 C2         11.1890    1.5970   22.5040 C.ar      1 <0>         0.0000
      3 C3         11.0710   -0.5780   21.5010 C.ar      1 <0>         0.0000
      4 C4         13.2010    0.4530   21.7690 C.ar      1 <0>         0.0000
      5 C5          5.4890    1.0910   16.6100 C.ar      1 <0>         0.0000
      6 C6          7.3260    0.6470   17.9070 C.ar      1 <0>         0.0000
      7 C7          5.4610    1.4880   18.9960 C.ar      1 <0>         0.0000
      8 C8         10.4660    0.5320   22.0200 C.ar      1 <0>         0.0000
      9 C9          6.6920    0.9380   19.0900 C.ar      1 <0>         0.0000
     10 C10        12.6090    1.6120   22.2840 C.ar      1 <0>         0.0000
     11 C11        12.3950   -0.6030   21.3990 C.ar      1 <0>         0.0000
     12 C12         8.3520    1.1250   20.8570 C.2       1 <0>         0.0000
     13 C13         4.5970    1.9810   20.1250 C.3       1 <0>         0.0000
     14 C14         8.9500    0.4890   22.1090 C.3       1 <0>         0.0000
     15 N1          6.7640    0.7010   16.6740 N.ar      1 <0>         0.0000
     16 N2          7.1990    0.5290   20.3450 N.am      1 <0>         0.0000
     17 O1          8.8800    2.2110   20.4600 O.2       1 <0>         0.0000
     18 O2         13.4070    2.6450   22.6830 O.3       1 <0>         0.0000
     19 Cl1        13.1350   -1.9740   20.6510 Cl        1 <0>         0.0000
     20 H1          3.8320    1.7970   17.6880 H         1 <0>         0.0000
     21 H2         10.5530    2.3300   22.9940 H         1 <0>         0.0000
     22 H3         10.5060   -1.3750   21.0260 H         1 <0>         0.0000
     23 H4         14.2810    0.3300   21.6910 H         1 <0>         0.0000
     24 H5          4.7930    1.1090   15.7770 H         1 <0>         0.0000
     25 H6          8.3400    0.3000   18.0690 H         1 <0>         0.0000
     26 H7          5.0320    2.7390   20.7890 H         1 <0>         0.0000
     27 H8          3.6870    2.3310   19.6370 H         1 <0>         0.0000
     28 H9          4.3400    1.1020   20.7240 H         1 <0>         0.0000
     29 H10         8.5020   -0.4930   22.2690 H         1 <0>         0.0000
     30 H11         8.7830    1.1960   22.9280 H         1 <0>         0.0000
     31 H12         6.6900   -0.1810   20.8780 H         1 <0>         0.0000
     32 H13        11.8500    3.7500   23.6320 H         1 <0>         0.0000
     33 H14        11.0830    5.0650   21.6270 H         1 <0>         0.0000
     34 H15        12.3830    4.2420   20.6460 H         1 <0>         0.0000
     35 N3         13.6030    4.9620   23.1750 N.am      1 <0>         0.0000
     36 O3         13.1330    6.8090   21.8600 O.2       1 <0>         0.0000
     37 C15        12.6520    3.8320   22.8950 C.3       1 <0>         0.0000
     38 C16        12.0850    4.6390   21.6300 C.3       1 <0>         0.0000
     39 C17        13.1090    5.6040   22.1000 C.2       1 <0>         0.0000
     40 H16        13.6950    5.4200   24.0830 H         1 <0>         0.0000
@<TRIPOS>BOND
     1    5   24 1
     2    5   15 ar
     3    1    5 ar
     4    6   15 ar
     5    1   20 1
     6    1    7 ar
     7    6   25 1
     8    6    9 ar
     9    7    9 ar
    10    7   13 1
    11    9   16 1
    12   13   27 1
    13   13   28 1
    14   13   26 1
    15   12   16 am
    16   16   31 1
    17   12   17 2
    18   34   38 1
    19   11   19 1
    20   12   14 1
    21    3   22 1
    22    3   11 ar
    23    4   11 ar
    24    3    8 ar
    25   33   38 1
    26   38   39 1
    27   37   38 1
    28    4   23 1
    29    4   10 ar
    30   36   39 2
    31    8   14 1
    32    2    8 ar
    33   35   39 am
    34   14   29 1
    35   14   30 1
    36    2   10 ar
    37   10   18 1
    38    2   21 1
    39   18   37 1
    40   35   37 1
    41   32   37 1
    42   35   40 1
@<TRIPOS>MOLECULE
*****
   40    42     0     0     0
SMALL
NO_CHARGES

@<TRIPOS>ATOM
      1 C1          5.7640    2.0610   18.7140 C.ar      1 <0>         0.0000
      2 C2         10.2840    0.3120   23.3930 C.ar      1 <0>         0.0000
      3 C3         10.8830   -1.7080   22.1810 C.ar      1 <0>         0.0000
      4 C4         12.5000   -0.0200   22.6710 C.ar      1 <0>         0.0000
      5 C5          6.2180    1.4330   17.5550 C.ar      1 <0>         0.0000
      6 C6          7.3780   -0.1710   18.8150 C.ar      1 <0>         0.0000
      7 C7          6.2270    1.6740   19.9920 C.ar      1 <0>         0.0000
      8 C8          9.9580   -0.9530   22.8610 C.ar      1 <0>         0.0000
      9 C9          7.0320    0.5150   20.0370 C.ar      1 <0>         0.0000
     10 C10        11.5920    0.8130   23.3710 C.ar      1 <0>         0.0000
     11 C11        12.2290   -1.3070   22.0940 C.ar      1 <0>         0.0000
     12 C12         7.7720   -1.1350   21.7520 C.2       1 <0>         0.0000
     13 C13         5.7440    2.4830   21.1990 C.3       1 <0>         0.0000
     14 C14         8.5430   -1.4410   22.9700 C.3       1 <0>         0.0000
     15 N1          7.1740    0.4090   17.6580 N.ar      1 <0>         0.0000
     16 N2          7.4580    0.1840   21.3080 N.am      1 <0>         0.0000
     17 O1          7.4780   -2.0880   20.9580 O.2       1 <0>         0.0000
     18 O2         11.9860    2.0280   23.9650 O.3       1 <0>         0.0000
     19 Cl1        13.5360   -2.2880   21.3700 Cl        1 <0>         0.0000
     20 H1          5.2180    2.9880   18.5750 H         1 <0>         0.0000
     21 H2          9.5570    0.8260   24.0210 H         1 <0>         0.0000
     22 H3         10.5730   -2.6980   21.8760 H         1 <0>         0.0000
     23 H4         13.4980    0.3950   22.5340 H         1 <0>         0.0000
     24 H5          6.0120    1.8640   16.5770 H         1 <0>         0.0000
     25 H6          7.8990   -1.1190   18.9220 H         1 <0>         0.0000
     26 H7          5.7170    1.8230   22.0700 H         1 <0>         0.0000
     27 H8          6.3550    3.3730   21.3720 H         1 <0>         0.0000
     28 H9          4.6730    2.7350   21.1240 H         1 <0>         0.0000
     29 H10         8.5100   -2.5320   22.9950 H         1 <0>         0.0000
     30 H11         8.1570   -1.0710   23.9280 H         1 <0>         0.0000
     31 H12         7.5110    0.9550   21.9760 H         1 <0>         0.0000
     32 H13        12.9550    3.2980   20.8750 H         1 <0>         0.0000
     33 H14        14.0340    2.4680   22.0470 H         1 <0>         0.0000
     34 N3         12.3860    4.3730   23.4910 N.am      1 <0>         0.0000
     35 O3         13.9870    5.3080   22.1690 O.2       1 <0>         0.0000
     36 C15        11.9790    3.0870   23.0090 C.3       1 <0>         0.0000
     37 C16        13.1620    3.1320   21.9380 C.3       1 <0>         0.0000
     38 C17        13.4380    4.3920   22.6350 C.2       1 <0>         0.0000
     39 H15        11.9050    5.2700   23.4610 H         1 <0>         0.0000
     40 H16        11.0210    3.1680   22.4760 H         1 <0>         0.0000
@<TRIPOS>BOND
     1    5   24 1
     2    5   15 ar
     3    1    5 ar
     4    6   15 ar
     5    1   20 1
     6    1    7 ar
     7    6   25 1
     8    6    9 ar
     9    7    9 ar
    10    7   13 1
    11    9   16 1
    12   32   37 1
    13   12   17 2
    14   13   28 1
    15   13   27 1
    16   13   26 1
    17   12   16 am
    18   16   31 1
    19   11   19 1
    20   12   14 1
    21    3   22 1
    22   33   37 1
    23   37   38 1
    24   36   37 1
    25    3   11 ar
    26    4   11 ar
    27   35   38 2
    28    3    8 ar
    29   36   40 1
    30    4   23 1
    31   34   38 am
    32    4   10 ar
    33    8   14 1
    34    2    8 ar
    35   14   29 1
    36   14   30 1
    37   34   36 1
    38   18   36 1
    39    2   10 ar
    40   10   18 1
    41    2   21 1
    42   34   39 1
@<TRIPOS>MOLECULE
*****
   40    42     0     0     0
SMALL
NO_CHARGES

@<TRIPOS>ATOM
      1 C1          4.9820    2.3920   18.5720 C.ar      1 <0>         0.0000
      2 C2         11.1490    0.7450   22.8730 C.ar      1 <0>         0.0000
      3 C3         11.6420   -1.3780   21.7650 C.ar      1 <0>         0.0000
      4 C4         13.3740   -0.1330   22.8480 C.ar      1 <0>         0.0000
      5 C5          5.5560    2.2910   17.3120 C.ar      1 <0>         0.0000
      6 C6          7.1420    0.9200   18.1660 C.ar      1 <0>         0.0000
      7 C7          5.5070    1.7370   19.6550 C.ar      1 <0>         0.0000
      8 C8         10.7080   -0.3460   22.0180 C.ar      1 <0>         0.0000
      9 C9          6.6320    1.0150   19.4970 C.ar      1 <0>         0.0000
     10 C10        12.4960    0.8650   23.2310 C.ar      1 <0>         0.0000
     11 C11        12.9990   -1.2380   22.1430 C.ar      1 <0>         0.0000
     12 C12         8.6640    0.3440   20.6570 C.2       1 <0>         0.0000
     13 C13         4.8630    1.8830   21.0520 C.3       1 <0>         0.0000
     14 C14         9.2220   -0.5550   21.7870 C.3       1 <0>         0.0000
     15 N1          6.6140    1.4920   17.0870 N.ar      1 <0>         0.0000
     16 N2          7.3030    0.4660   20.5950 N.am      1 <0>         0.0000
     17 O1          9.3720    0.8250   19.8170 O.2       1 <0>         0.0000
     18 O2         12.8740    1.8680   24.0300 O.3       1 <0>         0.0000
     19 Cl1        14.2460   -2.2480   21.5260 Cl        1 <0>         0.0000
     20 H1          4.0540    2.9500   18.5940 H         1 <0>         0.0000
     21 H2         10.5070    1.5550   23.2130 H         1 <0>         0.0000
     22 H3         11.4950   -2.2340   21.1140 H         1 <0>         0.0000
     23 H4         14.4110    0.0150   23.0970 H         1 <0>         0.0000
     24 H5          4.9980    2.8430   16.5620 H         1 <0>         0.0000
     25 H6          7.9990    0.2610   18.0160 H         1 <0>         0.0000
     26 H7          4.3800    0.9560   21.3750 H         1 <0>         0.0000
     27 H8          5.5480    2.3480   21.7680 H         1 <0>         0.0000
     28 H9          3.9770    2.5190   20.9820 H         1 <0>         0.0000
     29 H10         9.0290   -1.5900   21.4950 H         1 <0>         0.0000
     30 H11         8.6960   -0.4540   22.7450 H         1 <0>         0.0000
     31 H12         6.8420    0.2980   21.5000 H         1 <0>         0.0000
     32 H13        14.9630    2.6050   22.4240 H         1 <0>         0.0000
     33 H14        13.9980    3.9290   21.6060 H         1 <0>         0.0000
     34 N3         13.4570    4.0020   24.4340 N.am      1 <0>         0.0000
     35 O3         15.0440    5.4790   23.6690 O.2       1 <0>         0.0000
     36 C15        12.9780    3.1290   23.3980 C.3       1 <0>         0.0000
     37 C16        14.2820    3.4510   22.5490 C.3       1 <0>         0.0000
     38 C17        14.5360    4.3630   23.7160 C.2       1 <0>         0.0000
     39 H15        12.8360    4.5420   25.0450 H         1 <0>         0.0000
     40 H16        12.0420    3.4690   22.9480 H         1 <0>         0.0000
@<TRIPOS>BOND
     1    5   24 1
     2    5   15 ar
     3    6   15 ar
     4    1    5 ar
     5    6   25 1
     6    6    9 ar
     7    1   20 1
     8    1    7 ar
     9    7    9 ar
    10    9   16 1
    11    7   13 1
    12   12   17 2
    13   12   16 am
    14   16   31 1
    15   12   14 1
    16   13   28 1
    17   13   26 1
    18   13   27 1
    19    3   22 1
    20   14   29 1
    21   11   19 1
    22   33   37 1
    23    3    8 ar
    24    3   11 ar
    25    8   14 1
    26   14   30 1
    27    2    8 ar
    28    4   11 ar
    29   32   37 1
    30   36   37 1
    31   37   38 1
    32    4   23 1
    33    4   10 ar
    34    2   21 1
    35    2   10 ar
    36   36   40 1
    37   10   18 1
    38   18   36 1
    39   34   36 1
    40   35   38 2
    41   34   38 am
    42   34   39 1
@<TRIPOS>MOLECULE
*****
   40    42     0     0     0
SMALL
NO_CHARGES

@<TRIPOS>ATOM
      1 C1          4.3510    1.0390   19.0550 C.ar      1 <0>         0.0000
      2 C2         10.8360    0.5410   22.9490 C.ar      1 <0>         0.0000
      3 C3         11.8760   -1.2530   21.8640 C.ar      1 <0>         0.0000
      4 C4         13.2230    0.5380   22.6130 C.ar      1 <0>         0.0000
      5 C5          4.9620    1.2230   17.8330 C.ar      1 <0>         0.0000
      6 C6          6.8460    0.1620   18.5810 C.ar      1 <0>         0.0000
      7 C7          5.0680    0.6010   20.1870 C.ar      1 <0>         0.0000
      8 C8         10.7110   -0.6310   22.2890 C.ar      1 <0>         0.0000
      9 C9          6.3970    0.1070   19.8710 C.ar      1 <0>         0.0000
     10 C10        12.0620    1.1550   23.1110 C.ar      1 <0>         0.0000
     11 C11        13.1740   -0.7080   22.0780 C.ar      1 <0>         0.0000
     12 C12         8.5930   -0.2240   20.9630 C.2       1 <0>         0.0000
     13 C13         4.5030    0.4820   21.5680 C.3       1 <0>         0.0000
     14 C14         9.3550   -1.2100   21.9110 C.3       1 <0>         0.0000
     15 N1          6.1830    0.7260   17.5630 N.ar      1 <0>         0.0000
     16 N2          7.1910   -0.3640   20.9350 N.am      1 <0>         0.0000
     17 O1          9.2040    0.5090   20.2190 O.2       1 <0>         0.0000
     18 O2         12.0470    2.3980   23.7830 O.3       1 <0>         0.0000
     19 Cl1        14.5500   -1.5340   21.4400 Cl        1 <0>         0.0000
     20 H1          3.3430    1.4160   19.1770 H         1 <0>         0.0000
     21 H2          9.9560    0.9450   23.4370 H         1 <0>         0.0000
     22 H3         11.7530   -2.2620   21.4870 H         1 <0>         0.0000
     23 H4         14.2120    0.9840   22.6170 H         1 <0>         0.0000
     24 H5          4.3700    1.6250   17.0100 H         1 <0>         0.0000
     25 H6          7.7440   -0.3530   18.2480 H         1 <0>         0.0000
     26 H7          4.6800   -0.5080   22.0020 H         1 <0>         0.0000
     27 H8          4.9600    1.2330   22.1980 H         1 <0>         0.0000
     28 H9          3.4040    0.4930   21.6070 H         1 <0>         0.0000
     29 H10         9.4500   -2.2170   21.4820 H         1 <0>         0.0000
     30 H11         8.6960   -1.3150   22.7810 H         1 <0>         0.0000
     31 H12         6.8550   -1.0870   21.5610 H         1 <0>         0.0000
     32 H13        10.7910    3.5670   22.5740 H         1 <0>         0.0000
     33 H14        12.9350    4.2640   20.9990 H         1 <0>         0.0000
     34 H15        13.9160    3.3530   22.1460 H         1 <0>         0.0000
     35 N3         11.8670    4.8710   23.6530 N.am      1 <0>         0.0000
     36 O3         13.9160    5.8410   23.4980 O.2       1 <0>         0.0000
     37 C15        11.8110    3.5530   22.9690 C.3       1 <0>         0.0000
     38 C16        13.0370    3.9850   22.0550 C.3       1 <0>         0.0000
     39 C17        13.0250    5.1900   22.9900 C.2       1 <0>         0.0000
     40 H16        11.9840    4.9990   24.6530 H         1 <0>         0.0000
@<TRIPOS>BOND
     1    5   24 1
     2    5   15 ar
     3    6   15 ar
     4    1    5 ar
     5    6   25 1
     6    6    9 ar
     7    1   20 1
     8    1    7 ar
     9    7    9 ar
    10    9   16 1
    11    7   13 1
    12   12   17 2
    13   12   16 am
    14   16   31 1
    15   12   14 1
    16   33   38 1
    17   11   19 1
    18   14   29 1
    19    3   22 1
    20   13   28 1
    21   13   26 1
    22   13   27 1
    23    3   11 ar
    24    3    8 ar
    25    8   14 1
    26   14   30 1
    27   34   38 1
    28   37   38 1
    29   38   39 1
    30    4   11 ar
    31    2    8 ar
    32   32   37 1
    33    4   23 1
    34    4   10 ar
    35    2   10 ar
    36    2   21 1
    37   35   37 1
    38   18   37 1
    39   36   39 2
    40   35   39 am
    41   10   18 1
    42   35   40 1
@<TRIPOS>MOLECULE
*****
   40    42     0     0     0
SMALL
NO_CHARGES

@<TRIPOS>ATOM
      1 C1          4.9790    0.9940   19.4040 C.ar      1 <0>         0.0000
      2 C2         12.2440    2.1470   22.9600 C.ar      1 <0>         0.0000
      3 C3         12.1050   -0.1420   22.2510 C.ar      1 <0>         0.0000
      4 C4         14.1990    1.0800   22.0370 C.ar      1 <0>         0.0000
      5 C5          5.6180    0.8060   18.1190 C.ar      1 <0>         0.0000
      6 C6          7.5830    0.4950   19.2440 C.ar      1 <0>         0.0000
      7 C7          5.6730    0.8220   20.6120 C.ar      1 <0>         0.0000
      8 C8         11.4870    0.9280   22.7220 C.ar      1 <0>         0.0000
      9 C9          7.0280    0.6150   20.5050 C.ar      1 <0>         0.0000
     10 C10        13.6410    2.2310   22.6070 C.ar      1 <0>         0.0000
     11 C11        13.4490   -0.1050   21.8530 C.ar      1 <0>         0.0000
     12 C12         9.1730    1.0570   21.7330 C.2       1 <0>         0.0000
     13 C13         4.9310    1.0000   21.9230 C.3       1 <0>         0.0000
     14 C14         9.9310    0.8560   22.9960 C.3       1 <0>         0.0000
     15 N1          6.9170    0.5630   18.0800 N.ar      1 <0>         0.0000
     16 N2          7.8800    0.6180   21.6650 N.am      1 <0>         0.0000
     17 O1          9.6760    1.6250   20.8260 O.2       1 <0>         0.0000
     18 O2         14.2450    3.4290   22.8910 O.3       1 <0>         0.0000
     19 Cl1        14.2200   -1.5870   21.4750 Cl        1 <0>         0.0000
     20 H1          3.9550    1.3520   19.4210 H         1 <0>         0.0000
     21 H2         11.7430    3.0240   23.3590 H         1 <0>         0.0000
     22 H3         11.6630   -1.1120   22.0050 H         1 <0>         0.0000
     23 H4         15.2720    1.0660   21.8500 H         1 <0>         0.0000
     24 H5          5.0790    0.8260   17.1780 H         1 <0>         0.0000
     25 H6          8.5950    0.1090   19.1100 H         1 <0>         0.0000
     26 H7          5.0150    0.0210   22.4090 H         1 <0>         0.0000
     27 H8          5.3150    1.8380   22.5110 H         1 <0>         0.0000
     28 H9          3.8490    1.1670   21.8060 H         1 <0>         0.0000
     29 H10         9.6450   -0.0020   23.6150 H         1 <0>         0.0000
     30 H11         9.5660    1.6940   23.5900 H         1 <0>         0.0000
     31 H12         7.4970    0.1550   22.4820 H         1 <0>         0.0000
     32 H13        16.3400    2.6870   24.1430 H         1 <0>         0.0000
     33 H14        17.3650    2.4860   22.6310 H         1 <0>         0.0000
     34 N3         16.0070    4.9780   22.4970 N.am      1 <0>         0.0000
     35 O3         17.5280    5.2190   24.1650 O.2       1 <0>         0.0000
     36 C15        15.5510    3.6660   22.3160 C.3       1 <0>         0.0000
     37 C16        16.7050    3.1340   23.2080 C.3       1 <0>         0.0000
     38 C17        17.0520    4.6290   23.2260 C.2       1 <0>         0.0000
     39 H15        15.4300    5.7560   22.8010 H         1 <0>         0.0000
     40 H16        15.5940    3.4040   21.2570 H         1 <0>         0.0000
@<TRIPOS>BOND
     1    5   24 1
     2    5   15 ar
     3    6   15 ar
     4    1    5 ar
     5    6   25 1
     6    6    9 ar
     7    1   20 1
     8    1    7 ar
     9    7    9 ar
    10    9   16 1
    11    7   13 1
    12   12   17 2
    13   36   40 1
    14   11   19 1
    15   12   16 am
    16   16   31 1
    17   12   14 1
    18   13   28 1
    19    4   23 1
    20    4   11 ar
    21    3   11 ar
    22   13   26 1
    23   13   27 1
    24    3   22 1
    25    4   10 ar
    26    3    8 ar
    27   34   36 1
    28   18   36 1
    29   36   37 1
    30   34   39 1
    31   34   38 am
    32   10   18 1
    33    2   10 ar
    34   33   37 1
    35    2    8 ar
    36    8   14 1
    37    2   21 1
    38   14   30 1
    39   14   29 1
    40   37   38 1
    41   32   37 1
    42   35   38 2
@<TRIPOS>MOLECULE
*****
   40    42     0     0     0
SMALL
NO_CHARGES

@<TRIPOS>ATOM
      1 C1          5.7900    1.9410   20.3060 C.ar      1 <0>         0.0000
      2 C2         10.0190   -2.3550   23.7430 C.ar      1 <0>         0.0000
      3 C3         10.5670   -3.6310   21.8470 C.ar      1 <0>         0.0000
      4 C4         12.2570   -2.3930   23.0070 C.ar      1 <0>         0.0000
      5 C5          6.1400    1.7300   18.9790 C.ar      1 <0>         0.0000
      6 C6          7.2870   -0.2230   19.5010 C.ar      1 <0>         0.0000
      7 C7          6.1590    1.0380   21.2660 C.ar      1 <0>         0.0000
      8 C8          9.5690   -3.1090   22.7090 C.ar      1 <0>         0.0000
      9 C9          6.8950   -0.1630   20.8760 C.ar      1 <0>         0.0000
     10 C10        11.3830   -2.0030   23.9440 C.ar      1 <0>         0.0000
     11 C11        11.9000   -3.2550   21.9860 C.ar      1 <0>         0.0000
     12 C12         7.4650   -2.5190   21.5170 C.2       1 <0>         0.0000
     13 C13         5.8280    1.3070   22.7060 C.3       1 <0>         0.0000
     14 C14         8.1490   -3.4140   22.5380 C.3       1 <0>         0.0000
     15 N1          6.9010    0.6850   18.6180 N.ar      1 <0>         0.0000
     16 N2          7.2780   -1.1690   21.7390 N.am      1 <0>         0.0000
     17 O1          7.1170   -3.0120   20.4370 O.2       1 <0>         0.0000
     18 O2         11.8910   -1.2460   24.9580 O.3       1 <0>         0.0000
     19 Cl1        13.0520   -3.6990   20.7200 Cl        1 <0>         0.0000
     20 H1          5.2600    2.8610   20.5390 H         1 <0>         0.0000
     21 H2          9.2440   -2.0400   24.4300 H         1 <0>         0.0000
     22 H3         10.2870   -4.2940   21.0410 H         1 <0>         0.0000
     23 H4         13.3190   -2.1490   22.9890 H         1 <0>         0.0000
     24 H5          5.8120    2.4100   18.2040 H         1 <0>         0.0000
     25 H6          7.8720   -1.0850   19.1780 H         1 <0>         0.0000
     26 H7          5.5330    0.4230   23.2860 H         1 <0>         0.0000
     27 H8          6.7190    1.7340   23.1700 H         1 <0>         0.0000
     28 H9          5.0880    2.1020   22.8340 H         1 <0>         0.0000
     29 H10         8.0660   -4.4490   22.2210 H         1 <0>         0.0000
     30 H11         7.6140   -3.4280   23.4970 H         1 <0>         0.0000
     31 H12         7.5380   -0.8040   22.6620 H         1 <0>         0.0000
     32 H13        11.2620    0.9980   23.6210 H         1 <0>         0.0000
     33 H14         9.6530    0.9900   24.5280 H         1 <0>         0.0000
     34 N3         11.6820    0.5360   26.4670 N.am      1 <0>         0.0000
     35 O3         11.9970    2.7080   25.7800 O.2       1 <0>         0.0000
     36 C15        11.0360   -0.3150   25.5390 C.3       1 <0>         0.0000
     37 C16        10.7490    0.9210   24.5840 C.3       1 <0>         0.0000
     38 C17        11.3960    1.6190   25.7590 C.2       1 <0>         0.0000
     39 H15        12.6610    0.5210   26.7300 H         1 <0>         0.0000
     40 H16        10.1270   -0.7300   25.9720 H         1 <0>         0.0000
@<TRIPOS>BOND
     1    5   24 1
     2    5   15 ar
     3    6   15 ar
     4    1    5 ar
     5    6   25 1
     6    6    9 ar
     7    1   20 1
     8    1    7 ar
     9   12   17 2
    10   11   19 1
    11    7    9 ar
    12    9   16 1
    13    3   22 1
    14    7   13 1
    15   12   16 am
    16   12   14 1
    17   16   31 1
    18    3   11 ar
    19    3    8 ar
    20    4   11 ar
    21   14   29 1
    22    8   14 1
    23   14   30 1
    24   13   28 1
    25   13   27 1
    26   13   26 1
    27    2    8 ar
    28    4   23 1
    29    4   10 ar
    30   32   37 1
    31    2   10 ar
    32    2   21 1
    33   10   18 1
    34   33   37 1
    35   36   37 1
    36   37   38 1
    37   18   36 1
    38   36   40 1
    39   34   36 1
    40   35   38 2
    41   34   38 am
    42   34   39 1
@<TRIPOS>MOLECULE
*****
   42    44     0     0     0
SMALL
NO_CHARGES

@<TRIPOS>ATOM
      1 C1          4.7370    0.5790   19.3320 C.ar      1 <0>         0.0000
      2 C2         11.8130    0.9530   23.5050 C.ar      1 <0>         0.0000
      3 C3         11.7340   -1.1600   22.2660 C.ar      1 <0>         0.0000
      4 C4         13.7960   -0.0830   22.6690 C.ar      1 <0>         0.0000
      5 C5          5.4680    0.3480   18.1400 C.ar      1 <0>         0.0000
      6 C6          7.3830    0.0970   19.3090 C.ar      1 <0>         0.0000
      7 C7          5.3630    0.4460   20.5430 C.ar      1 <0>         0.0000
      8 C8         11.0580   -0.1310   22.9830 C.ar      1 <0>         0.0000
      9 C9          6.7270    0.2900   20.5190 C.ar      1 <0>         0.0000
     10 C10        13.2140    0.9600   23.3770 C.ar      1 <0>         0.0000
     11 C11        13.0910   -1.1750   22.1470 C.ar      1 <0>         0.0000
     12 C12         8.8150    0.3940   21.8320 C.2       1 <0>         0.0000
     13 C13         4.5360    0.5300   21.7530 C.3       1 <0>         0.0000
     14 C14         9.4890   -0.1720   23.1090 C.3       1 <0>         0.0000
     15 N1          6.7590    0.1260   18.1400 N.ar      1 <0>         0.0000
     16 N2          7.4210    0.3120   21.7210 N.am      1 <0>         0.0000
     17 O1          9.4860    0.9940   21.0610 O.2       1 <0>         0.0000
     18 O2         14.0080    2.0380   23.8670 O.3       1 <0>         0.0000
     19 Cl1        13.7870   -2.3800   21.0840 Cl        1 <0>         0.0000
     20 H1          3.6540    0.6000   19.2780 H         1 <0>         0.0000
     21 H2         11.2860    1.7270   24.0610 H         1 <0>         0.0000
     22 H3         11.1740   -1.9950   21.8680 H         1 <0>         0.0000
     23 H4         14.8630   -0.0110   22.4660 H         1 <0>         0.0000
     24 H5          4.9680    0.5100   17.1960 H         1 <0>         0.0000
     25 H6          8.4460   -0.0930   19.2160 H         1 <0>         0.0000
     26 H7          4.7630    1.4410   22.3130 H         1 <0>         0.0000
     27 H8          3.4580    0.5720   21.5660 H         1 <0>         0.0000
     28 H9          4.6760   -0.3680   22.3530 H         1 <0>         0.0000
     29 H10         9.2750   -1.2400   23.2450 H         1 <0>         0.0000
     30 H11         9.0530    0.3050   23.9920 H         1 <0>         0.0000
     31 H12         6.8620    0.0100   22.5210 H         1 <0>         0.0000
     32 H13        12.5540    3.2020   24.7930 H         1 <0>         0.0000
     33 H14        11.9910    4.7720   23.0500 H         1 <0>         0.0000
     34 H15        12.9750    3.8810   21.8560 H         1 <0>         0.0000
     35 N3         14.3130    4.2890   24.4450 N.3       1 <0>         0.0000
     36 O3         14.9250    5.5460   22.6520 O.3       1 <0>         0.0000
     37 C15        13.3510    3.2920   24.0550 C.3       1 <0>         0.0000
     38 C16        12.9320    4.2230   22.8950 C.3       1 <0>         0.0000
     39 C17        14.0710    5.0630   23.3550 C.3       1 <0>         0.0000
     40 H16        15.2380    3.9440   24.7000 H         1 <0>         0.0000
     41 H          14.9250    5.5460   22.6520 H         1 <0>         0.0000
     42 H          14.0710    5.0630   23.3550 H         1 <0>         0.0000
@<TRIPOS>BOND
     1    5   24 1
     2    5   15 ar
     3    1    5 ar
     4    6   15 ar
     5    6   25 1
     6    1   20 1
     7    6    9 ar
     8    1    7 ar
     9    7    9 ar
    10    9   16 1
    11    7   13 1
    12   12   17 2
    13   11   19 1
    14   13   27 1
    15   12   16 am
    16   16   31 1
    17   13   26 1
    18   13   28 1
    19   12   14 1
    20   34   38 1
    21    3   22 1
    22    3   11 ar
    23    4   11 ar
    24    3    8 ar
    25    4   23 1
    26   36   39 1
    27    4   10 ar
    28   33   38 1
    29   38   39 1
    30   37   38 1
    31    8   14 1
    32    2    8 ar
    33   14   29 1
    34   14   30 1
    35   35   39 1
    36    2   10 ar
    37   10   18 1
    38    2   21 1
    39   18   37 1
    40   35   37 1
    41   32   37 1
    42   35   40 1
    43   36   41 1
    44   39   42 1
@<TRIPOS>MOLECULE
*****
   40    42     0     0     0
SMALL
NO_CHARGES

@<TRIPOS>ATOM
      1 C1          5.2620    1.9650   19.4530 C.ar      1 <0>         0.0000
      2 C2         12.3020    1.9110   23.0750 C.ar      1 <0>         0.0000
      3 C3         12.4650   -0.4350   22.8930 C.ar      1 <0>         0.0000
      4 C4         14.4330    0.8480   22.7560 C.ar      1 <0>         0.0000
      5 C5          5.6480    1.3040   18.3090 C.ar      1 <0>         0.0000
      6 C6          7.6800    0.6220   19.3920 C.ar      1 <0>         0.0000
      7 C7          6.1120    1.9760   20.6060 C.ar      1 <0>         0.0000
      8 C8         11.6280    0.7120   23.0100 C.ar      1 <0>         0.0000
      9 C9          7.3030    1.2280   20.6200 C.ar      1 <0>         0.0000
     10 C10        13.7170    2.0380   22.9400 C.ar      1 <0>         0.0000
     11 C11        13.8520   -0.3840   22.6710 C.ar      1 <0>         0.0000
     12 C12         9.4610    1.2570   21.9280 C.2       1 <0>         0.0000
     13 C13         5.5980    2.5120   21.9350 C.3       1 <0>         0.0000
     14 C14        10.1290    0.6270   23.1550 C.3       1 <0>         0.0000
     15 N1          6.8350    0.5650   18.3280 N.ar      1 <0>         0.0000
     16 N2          8.0670    1.1090   21.7820 N.am      1 <0>         0.0000
     17 O1         10.1110    1.8760   21.1210 O.2       1 <0>         0.0000
     18 O2         14.4430    3.2010   22.9130 O.3       1 <0>         0.0000
     19 Cl1        14.7360   -1.8820   22.4940 Cl        1 <0>         0.0000
     20 H1          4.3350    2.5350   19.4460 H         1 <0>         0.0000
     21 H2         11.6960    2.7650   23.3400 H         1 <0>         0.0000
     22 H3         11.9710   -1.4040   22.9190 H         1 <0>         0.0000
     23 H4         15.4970    0.9570   22.5800 H         1 <0>         0.0000
     24 H5          4.9850    1.4100   17.4600 H         1 <0>         0.0000
     25 H6          8.7090    0.3060   19.2670 H         1 <0>         0.0000
     26 H7          4.7350    3.1540   21.7390 H         1 <0>         0.0000
     27 H8          5.1540    1.7390   22.5700 H         1 <0>         0.0000
     28 H9          6.4290    3.0060   22.4580 H         1 <0>         0.0000
     29 H10         9.7750   -0.3970   23.2660 H         1 <0>         0.0000
     30 H11         9.8180    1.1680   24.0630 H         1 <0>         0.0000
     31 H12         7.5340    0.7710   22.5800 H         1 <0>         0.0000
     32 H13        13.1840    4.3970   24.1590 H         1 <0>         0.0000
     33 H14        11.9340    5.0040   22.2330 H         1 <0>         0.0000
     34 H15        13.2940    4.4580   21.1430 H         1 <0>         0.0000
     35 N3         14.5880    5.6000   23.2600 N.am      1 <0>         0.0000
     36 O3         13.4970    7.3840   22.3540 O.2       1 <0>         0.0000
     37 C15        13.7860    4.4140   23.2430 C.3       1 <0>         0.0000
     38 C16        13.0150    4.9990   22.0570 C.3       1 <0>         0.0000
     39 C17        13.8250    6.2100   22.3740 C.2       1 <0>         0.0000
     40 H16        14.8010    6.0690   24.1380 H         1 <0>         0.0000
@<TRIPOS>BOND
     1    5   24 1
     2    5   15 ar
     3    1    5 ar
     4    6   15 ar
     5    6   25 1
     6    6    9 ar
     7    1   20 1
     8    1    7 ar
     9    7    9 ar
    10    7   13 1
    11    9   16 1
    12   12   17 2
    13   34   38 1
    14   13   26 1
    15   12   16 am
    16   16   31 1
    17   12   14 1
    18   13   28 1
    19   13   27 1
    20   33   38 1
    21   38   39 1
    22   37   38 1
    23   36   39 2
    24   35   39 am
    25   11   19 1
    26    4   23 1
    27    4   11 ar
    28    3   11 ar
    29    4   10 ar
    30    3   22 1
    31    3    8 ar
    32   10   18 1
    33   18   37 1
    34    2   10 ar
    35    2    8 ar
    36    8   14 1
    37    2   21 1
    38   14   29 1
    39   14   30 1
    40   35   37 1
    41   32   37 1
    42   35   40 1
@<TRIPOS>MOLECULE
*****
   40    42     0     0     0
SMALL
NO_CHARGES

@<TRIPOS>ATOM
      1 C1          4.8880    1.1600   20.0450 C.ar      1 <0>         0.0000
      2 C2         12.4540    2.1280   22.8200 C.ar      1 <0>         0.0000
      3 C3         12.2330   -0.1570   22.2320 C.ar      1 <0>         0.0000
      4 C4         14.3300    0.9450   21.9480 C.ar      1 <0>         0.0000
      5 C5          5.2350    1.1190   18.6900 C.ar      1 <0>         0.0000
      6 C6          7.4490    1.0160   19.2800 C.ar      1 <0>         0.0000
      7 C7          5.8550    0.9450   21.0890 C.ar      1 <0>         0.0000
      8 C8         11.6550    1.0140   22.6810 C.ar      1 <0>         0.0000
      9 C9          7.1580    0.8630   20.6080 C.ar      1 <0>         0.0000
     10 C10        13.8200    2.1040   22.4700 C.ar      1 <0>         0.0000
     11 C11        13.6020   -0.2120   21.8370 C.ar      1 <0>         0.0000
     12 C12         9.3930    1.1210   21.7200 C.2       1 <0>         0.0000
     13 C13         5.3970    0.8500   22.5570 C.3       1 <0>         0.0000
     14 C14        10.2230    1.0440   23.0550 C.3       1 <0>         0.0000
     15 N1          6.4920    1.1540   18.3180 N.ar      1 <0>         0.0000
     16 N2          8.1180    0.5530   21.6560 N.am      1 <0>         0.0000
     17 O1          9.8330    1.7530   20.7350 O.2       1 <0>         0.0000
     18 O2         14.7240    3.1460   22.6830 O.3       1 <0>         0.0000
     19 Cl1        14.2960   -1.6580   21.1920 Cl        1 <0>         0.0000
     20 H1          3.8600    1.2970   20.3540 H         1 <0>         0.0000
     21 H2         11.9760    3.0590   23.1110 H         1 <0>         0.0000
     22 H3         11.5870   -1.0250   22.1240 H         1 <0>         0.0000
     23 H4         15.3980    0.8870   21.7840 H         1 <0>         0.0000
     24 H5          4.4950    1.2400   17.9140 H         1 <0>         0.0000
     25 H6          8.4780    0.9080   18.9370 H         1 <0>         0.0000
     26 H7          4.2990    0.7910   22.5480 H         1 <0>         0.0000
     27 H8          5.6990   -0.0630   23.0700 H         1 <0>         0.0000
     28 H9          5.6510    1.6270   23.2840 H         1 <0>         0.0000
     29 H10         9.8930    0.2360   23.7130 H         1 <0>         0.0000
     30 H11         9.9510    1.8820   23.7000 H         1 <0>         0.0000
     31 H12         7.7410    0.1160   22.4970 H         1 <0>         0.0000
     32 H13        13.4360    4.4130   20.6260 H         1 <0>         0.0000
     33 H14        12.2870    5.3070   21.8120 H         1 <0>         0.0000
     34 N3         15.0120    5.5110   22.6120 N.am      1 <0>         0.0000
     35 O3         14.0840    7.2180   21.4000 O.2       1 <0>         0.0000
     36 C15        14.1450    4.4090   22.7540 C.3       1 <0>         0.0000
     37 C16        13.2900    4.9310   21.5870 C.3       1 <0>         0.0000
     38 C17        14.2490    6.0590   21.6330 C.2       1 <0>         0.0000
     39 H15        15.4930    6.0170   23.3620 H         1 <0>         0.0000
     40 H16        13.5910    4.4440   23.6890 H         1 <0>         0.0000
@<TRIPOS>BOND
     1    5   24 1
     2    5   15 ar
     3    6   15 ar
     4    1    5 ar
     5    6   25 1
     6    6    9 ar
     7    1   20 1
     8    1    7 ar
     9    7    9 ar
    10    9   16 1
    11   32   37 1
    12   12   17 2
    13    7   13 1
    14   11   19 1
    15   35   38 2
    16   37   38 1
    17   33   37 1
    18   36   37 1
    19   34   38 am
    20   12   16 am
    21   16   31 1
    22   12   14 1
    23    4   23 1
    24    4   11 ar
    25    3   11 ar
    26    4   10 ar
    27    3   22 1
    28    3    8 ar
    29   10   18 1
    30    2   10 ar
    31   13   26 1
    32   13   27 1
    33   13   28 1
    34   34   36 1
    35   34   39 1
    36    2    8 ar
    37    8   14 1
    38   18   36 1
    39   36   40 1
    40    2   21 1
    41   14   30 1
    42   14   29 1
@<TRIPOS>MOLECULE
*****
   40    42     0     0     0
SMALL
NO_CHARGES

@<TRIPOS>ATOM
      1 C1          5.7690    2.8970   18.6050 C.ar      1 <0>         0.0000
      2 C2         11.8590    1.3940   23.4510 C.ar      1 <0>         0.0000
      3 C3         12.2800   -0.6290   22.1890 C.ar      1 <0>         0.0000
      4 C4         14.1670    0.6100   23.1420 C.ar      1 <0>         0.0000
      5 C5          6.3190    2.4920   17.3930 C.ar      1 <0>         0.0000
      6 C6          7.9220    1.2560   18.4750 C.ar      1 <0>         0.0000
      7 C7          6.2930    2.4240   19.8000 C.ar      1 <0>         0.0000
      8 C8         11.3220    0.2040   22.7490 C.ar      1 <0>         0.0000
      9 C9          7.4370    1.5590   19.7720 C.ar      1 <0>         0.0000
     10 C10        13.2770    1.5880   23.5780 C.ar      1 <0>         0.0000
     11 C11        13.6640   -0.5210   22.4230 C.ar      1 <0>         0.0000
     12 C12         9.3400    0.7860   21.1400 C.2       1 <0>         0.0000
     13 C13         5.5440    2.7520   21.1180 C.3       1 <0>         0.0000
     14 C14         9.7850    0.1160   22.4840 C.3       1 <0>         0.0000
     15 N1          7.3790    1.7560   17.2950 N.ar      1 <0>         0.0000
     16 N2          8.0300    1.0640   20.9070 N.am      1 <0>         0.0000
     17 O1         10.1340    0.9820   20.2550 O.2       1 <0>         0.0000
     18 O2         13.7910    2.7320   24.0780 O.3       1 <0>         0.0000
     19 Cl1        14.7990   -1.6200   21.5950 Cl        1 <0>         0.0000
     20 H1          4.8540    3.4730   18.6770 H         1 <0>         0.0000
     21 H2         11.1640    2.0810   23.9160 H         1 <0>         0.0000
     22 H3         11.9700   -1.3620   21.4560 H         1 <0>         0.0000
     23 H4         15.2240    0.7770   23.3490 H         1 <0>         0.0000
     24 H5          5.8020    2.8450   16.5140 H         1 <0>         0.0000
     25 H6          8.6320    0.4770   18.2350 H         1 <0>         0.0000
     26 H7          6.1100    2.9950   22.0150 H         1 <0>         0.0000
     27 H8          4.8530    3.5810   20.9180 H         1 <0>         0.0000
     28 H9          4.8390    1.9590   21.4170 H         1 <0>         0.0000
     29 H10         9.4450   -0.8990   22.2290 H         1 <0>         0.0000
     30 H11         9.1740    0.3390   23.3550 H         1 <0>         0.0000
     31 H12         7.3590    0.9350   21.6670 H         1 <0>         0.0000
     32 N3         12.5450    4.1060   25.5950 N.am      1 <0>         0.0000
     33 O3         13.9270    5.6280   26.5490 O.2       1 <0>         0.0000
     34 C15        12.9460    3.8650   24.2120 C.3       1 <0>         0.0000
     35 C16        13.6380    5.2850   24.2040 C.3       1 <0>         0.0000
     36 C17        13.2480    5.2420   25.6200 C.2       1 <0>         0.0000
     37 H13        12.9390    3.3970   26.2220 H         1 <0>         0.0000
     38 H14        12.1140    3.8410   23.4970 H         1 <0>         0.0000
     39 H15        14.6920    5.4060   23.9460 H         1 <0>         0.0000
     40 H16        13.0610    6.0320   23.6390 H         1 <0>         0.0000
@<TRIPOS>BOND
     1    5   24 1
     2    5   15 ar
     3    6   15 ar
     4    1    5 ar
     5    6   25 1
     6    6    9 ar
     7    1   20 1
     8    1    7 ar
     9    7    9 ar
    10    9   16 1
    11    7   13 1
    12   12   17 2
    13   12   16 am
    14   16   31 1
    15   13   27 1
    16   13   28 1
    17   13   26 1
    18   12   14 1
    19    3   22 1
    20   11   19 1
    21    3   11 ar
    22    3    8 ar
    23   14   29 1
    24    4   11 ar
    25    8   14 1
    26   14   30 1
    27    2    8 ar
    28    4   23 1
    29    4   10 ar
    30    2   10 ar
    31    2   21 1
    32   34   38 1
    33   10   18 1
    34   35   40 1
    35   35   39 1
    36   18   34 1
    37   34   35 1
    38   35   36 1
    39   32   34 1
    40   32   36 am
    41   32   37 1
    42   33   36 2
@<TRIPOS>MOLECULE
*****
   40    42     0     0     0
SMALL
NO_CHARGES

@<TRIPOS>ATOM
      1 C1          5.8600    2.2280   18.6290 C.ar      1 <0>         0.0000
      2 C2          9.6180   -1.0320   22.4370 C.ar      1 <0>         0.0000
      3 C3         11.0500   -2.2540   20.8870 C.ar      1 <0>         0.0000
      4 C4         12.0050   -0.8180   22.5220 C.ar      1 <0>         0.0000
      5 C5          5.9100    1.9670   17.3320 C.ar      1 <0>         0.0000
      6 C6          7.1100    0.1280   17.6530 C.ar      1 <0>         0.0000
      7 C7          6.5580    1.4490   19.5210 C.ar      1 <0>         0.0000
      8 C8          9.7850   -1.9890   21.4120 C.ar      1 <0>         0.0000
      9 C9          7.1910    0.3460   19.0470 C.ar      1 <0>         0.0000
     10 C10        10.7630   -0.4240   22.9290 C.ar      1 <0>         0.0000
     11 C11        12.1790   -1.7090   21.4480 C.ar      1 <0>         0.0000
     12 C12         7.8650   -1.9370   19.7460 C.2       1 <0>         0.0000
     13 C13         6.5760    1.9140   20.9750 C.3       1 <0>         0.0000
     14 C14         8.6290   -2.7360   20.8270 C.3       1 <0>         0.0000
     15 N1          6.5440    0.9120   16.8240 N.ar      1 <0>         0.0000
     16 N2          7.8290   -0.5980   19.8940 N.am      1 <0>         0.0000
     17 O1          7.2300   -2.5780   18.9190 O.2       1 <0>         0.0000
     18 O2         10.5310    0.5680   23.8290 O.3       1 <0>         0.0000
     19 Cl1        13.7660   -2.1260   20.9870 Cl        1 <0>         0.0000
     20 H1          5.3540    3.0920   19.0560 H         1 <0>         0.0000
     21 H2          8.7000   -0.6580   22.8940 H         1 <0>         0.0000
     22 H3         11.1950   -2.9810   20.0930 H         1 <0>         0.0000
     23 H4         12.8860   -0.3310   22.9270 H         1 <0>         0.0000
     24 H5          5.4510    2.6440   16.6260 H         1 <0>         0.0000
     25 H6          7.6290   -0.6820   17.1580 H         1 <0>         0.0000
     26 H7          5.5630    1.9870   21.3760 H         1 <0>         0.0000
     27 H8          7.0880    1.2330   21.6660 H         1 <0>         0.0000
     28 H9          6.9670    2.9310   21.0510 H         1 <0>         0.0000
     29 H10         9.0630   -3.6610   20.4490 H         1 <0>         0.0000
     30 H11         7.9820   -2.9480   21.6890 H         1 <0>         0.0000
     31 H12         8.3640   -0.1750   20.6630 H         1 <0>         0.0000
     32 N3         10.6890    1.2430   25.9830 N.am      1 <0>         0.0000
     33 O3         11.1370    0.1020   27.9100 O.2       1 <0>         0.0000
     34 C15        11.4990    0.8190   24.8540 C.3       1 <0>         0.0000
     35 C16        12.0250   -0.3620   25.7640 C.3       1 <0>         0.0000
     36 C17        11.0700    0.2260   26.7170 C.2       1 <0>         0.0000
     37 H13        10.7200    2.2260   26.2460 H         1 <0>         0.0000
     38 H14        12.1970    1.6260   24.6200 H         1 <0>         0.0000
     39 H15        11.7110   -1.3650   25.4520 H         1 <0>         0.0000
     40 H16        13.0970   -0.2180   25.9120 H         1 <0>         0.0000
@<TRIPOS>BOND
     1    5   24 1
     2    5   15 ar
     3    6   15 ar
     4    6   25 1
     5    1    5 ar
     6    6    9 ar
     7    1   20 1
     8    1    7 ar
     9   12   17 2
    10    7    9 ar
    11    9   16 1
    12    7   13 1
    13   12   16 am
    14   12   14 1
    15   16   31 1
    16    3   22 1
    17   14   29 1
    18    8   14 1
    19   14   30 1
    20    3    8 ar
    21    3   11 ar
    22   13   28 1
    23   13   26 1
    24   13   27 1
    25   11   19 1
    26    2    8 ar
    27    4   11 ar
    28    2   21 1
    29    2   10 ar
    30    4   23 1
    31    4   10 ar
    32   10   18 1
    33   18   34 1
    34   34   38 1
    35   34   35 1
    36   32   34 1
    37   35   39 1
    38   35   40 1
    39   35   36 1
    40   32   37 1
    41   32   36 am
    42   33   36 2
@<TRIPOS>MOLECULE
*****
   40    42     0     0     0
SMALL
NO_CHARGES

@<TRIPOS>ATOM
      1 C1          4.7690    0.8360   19.1460 C.ar      1 <0>         0.0000
      2 C2         10.6510    1.0180   24.1470 C.ar      1 <0>         0.0000
      3 C3         11.3010   -1.2720   23.8780 C.ar      1 <0>         0.0000
      4 C4         12.9740    0.4350   24.5340 C.ar      1 <0>         0.0000
      5 C5          5.4560    0.3950   18.0690 C.ar      1 <0>         0.0000
      6 C6          7.3060   -0.0380   19.3610 C.ar      1 <0>         0.0000
      7 C7          5.3410    0.8400   20.4290 C.ar      1 <0>         0.0000
      8 C8         10.3300   -0.3150   23.8090 C.ar      1 <0>         0.0000
      9 C9          6.6400    0.3990   20.5390 C.ar      1 <0>         0.0000
     10 C10        11.9360    1.3740   24.5570 C.ar      1 <0>         0.0000
     11 C11        12.6300   -0.9050   24.1790 C.ar      1 <0>         0.0000
     12 C12         8.5500    0.0340   22.0570 C.2       1 <0>         0.0000
     13 C13         4.4900    1.4130   21.5950 C.3       1 <0>         0.0000
     14 C14         8.9000   -0.5430   23.4050 C.3       1 <0>         0.0000
     15 N1          6.6790   -0.0180   18.0990 N.ar      1 <0>         0.0000
     16 N2          7.2050    0.2590   21.8030 N.am      1 <0>         0.0000
     17 O1          9.4790    0.3070   21.2550 O.2       1 <0>         0.0000
     18 O2         12.1610    2.6680   25.0460 O.3       1 <0>         0.0000
     19 Cl1        13.9100   -2.0950   24.1780 Cl        1 <0>         0.0000
     20 H1          3.7650    1.2410   19.0370 H         1 <0>         0.0000
     21 H2          9.8730    1.7700   24.0440 H         1 <0>         0.0000
     22 H3         11.0210   -2.3110   23.7300 H         1 <0>         0.0000
     23 H4         13.9860    0.7100   24.8120 H         1 <0>         0.0000
     24 H5          4.8850    0.4370   17.1470 H         1 <0>         0.0000
     25 H6          8.3520   -0.3510   19.3740 H         1 <0>         0.0000
     26 H7          5.0270    1.4230   22.5500 H         1 <0>         0.0000
     27 H8          4.2280    2.4380   21.3330 H         1 <0>         0.0000
     28 H9          3.5080    0.9390   21.5210 H         1 <0>         0.0000
     29 H10         8.6380   -1.6010   23.4640 H         1 <0>         0.0000
     30 H11         8.2140   -0.1420   24.1510 H         1 <0>         0.0000
     31 H12         6.5130   -0.0260   22.4940 H         1 <0>         0.0000
     32 H13        14.0130    3.1720   23.2650 H         1 <0>         0.0000
     33 H14        12.7670    4.0250   22.1350 H         1 <0>         0.0000
     34 N3         12.3910    5.0160   24.7590 N.am      1 <0>         0.0000
     35 O3         14.5260    5.5150   24.2580 O.2       1 <0>         0.0000
     36 C15        12.0490    3.7570   24.1610 C.3       1 <0>         0.0000
     37 C16        13.2380    3.9350   23.1180 C.3       1 <0>         0.0000
     38 C17        13.4570    5.1060   23.9320 C.2       1 <0>         0.0000
     39 H15        12.5810    5.0600   25.7590 H         1 <0>         0.0000
     40 H16        11.0810    3.9490   23.6830 H         1 <0>         0.0000
@<TRIPOS>BOND
     1    5   24 1
     2    5   15 ar
     3    1    5 ar
     4    6   15 ar
     5    1   20 1
     6    1    7 ar
     7    6   25 1
     8    6    9 ar
     9    7    9 ar
    10    7   13 1
    11    9   16 1
    12   12   17 2
    13   13   27 1
    14   13   28 1
    15   13   26 1
    16   12   16 am
    17   16   31 1
    18   12   14 1
    19   33   37 1
    20   32   37 1
    21   37   38 1
    22   36   37 1
    23   14   29 1
    24    8   14 1
    25   14   30 1
    26   36   40 1
    27    3   22 1
    28    3    8 ar
    29    2    8 ar
    30    3   11 ar
    31   35   38 2
    32   34   38 am
    33    2   21 1
    34    2   10 ar
    35   34   36 1
    36   18   36 1
    37   11   19 1
    38    4   11 ar
    39    4   10 ar
    40    4   23 1
    41   10   18 1
    42   34   39 1
@<TRIPOS>MOLECULE
*****
   40    42     0     0     0
SMALL
NO_CHARGES

@<TRIPOS>ATOM
      1 C1          4.6430    1.7510   17.7630 C.ar      1 <0>         0.0000
      2 C2         10.9220    2.6710   23.3330 C.ar      1 <0>         0.0000
      3 C3          9.9250    0.4590   23.4690 C.ar      1 <0>         0.0000
      4 C4         12.2200    0.7500   24.0480 C.ar      1 <0>         0.0000
      5 C5          5.3380    0.7450   17.0330 C.ar      1 <0>         0.0000
      6 C6          7.0410    0.5020   18.5460 C.ar      1 <0>         0.0000
      7 C7          5.1020    1.9870   19.0720 C.ar      1 <0>         0.0000
      8 C8          9.8450    1.7790   23.1140 C.ar      1 <0>         0.0000
      9 C9          6.3410    1.4180   19.4460 C.ar      1 <0>         0.0000
     10 C10        12.1790    2.1460   23.7620 C.ar      1 <0>         0.0000
     11 C11        11.0660   -0.0420   23.9060 C.ar      1 <0>         0.0000
     12 C12         8.1110    1.4900   21.2700 C.2       1 <0>         0.0000
     13 C13         4.3850    3.0810   19.8870 C.3       1 <0>         0.0000
     14 C14         8.5800    2.3010   22.4490 C.3       1 <0>         0.0000
     15 N1          6.5020    0.1450   17.3440 N.ar      1 <0>         0.0000
     16 N2          6.8810    1.8360   20.6860 N.am      1 <0>         0.0000
     17 O1          8.9250    0.8340   20.6290 O.2       1 <0>         0.0000
     18 O2         13.3420    2.8080   23.9900 O.3       1 <0>         0.0000
     19 Cl1        11.1300   -1.6460   24.4520 Cl        1 <0>         0.0000
     20 H1          3.8530    2.3840   17.3880 H         1 <0>         0.0000
     21 H2         10.7530    3.6960   23.0330 H         1 <0>         0.0000
     22 H3          9.0690   -0.2090   23.4220 H         1 <0>         0.0000
     23 H4         13.1360    0.2450   24.3350 H         1 <0>         0.0000
     24 H5          5.0320    0.5940   16.0020 H         1 <0>         0.0000
     25 H6          7.9050   -0.0490   18.8890 H         1 <0>         0.0000
     26 H7          3.8000    2.6900   20.7210 H         1 <0>         0.0000
     27 H8          5.1240    3.8350   20.1760 H         1 <0>         0.0000
     28 H9          3.6520    3.6200   19.2740 H         1 <0>         0.0000
     29 H10         7.7840    2.5260   23.1650 H         1 <0>         0.0000
     30 H11         8.8030    3.2700   21.9810 H         1 <0>         0.0000
     31 H12         6.2670    2.4090   21.2490 H         1 <0>         0.0000
     32 H13        15.5930    4.0260   23.6020 H         1 <0>         0.0000
     33 H14        12.7930    4.8620   24.1130 H         1 <0>         0.0000
     34 H15        12.7850    3.7330   21.4700 H         1 <0>         0.0000
     35 H16        12.4420    5.3950   21.9810 H         1 <0>         0.0000
     36 N3         14.8440    4.6850   23.4010 N.am      1 <0>         0.0000
     37 O3         15.4220    4.5920   21.1760 O.2       1 <0>         0.0000
     38 C15        13.4580    4.1860   23.5730 C.3       1 <0>         0.0000
     39 C16        13.1500    4.5570   22.0870 C.3       1 <0>         0.0000
     40 C17        14.6160    4.7860   22.0810 C.2       1 <0>         0.0000
@<TRIPOS>BOND
     1    5   24 1
     2    5   15 ar
     3    1    5 ar
     4    6   15 ar
     5    1   20 1
     6    1    7 ar
     7    6   25 1
     8    6    9 ar
     9    7    9 ar
    10    7   13 1
    11   13   28 1
    12    9   16 1
    13   13   27 1
    14   13   26 1
    15   12   17 2
    16   16   31 1
    17   12   16 am
    18   37   40 2
    19   12   14 1
    20   34   39 1
    21   14   30 1
    22   35   39 1
    23   39   40 1
    24   36   40 am
    25   38   39 1
    26    8   14 1
    27   14   29 1
    28    2   21 1
    29    2    8 ar
    30    3    8 ar
    31    2   10 ar
    32   36   38 1
    33   32   36 1
    34    3   22 1
    35    3   11 ar
    36   18   38 1
    37   33   38 1
    38   10   18 1
    39    4   10 ar
    40    4   11 ar
    41   11   19 1
    42    4   23 1
@<TRIPOS>MOLECULE
*****
   42    44     0     0     0
SMALL
NO_CHARGES

@<TRIPOS>ATOM
      1 C1          5.7080    1.9600   19.3570 C.ar      1 <0>         0.0000
      2 C2         12.4200    1.2070   23.2290 C.ar      1 <0>         0.0000
      3 C3         12.4740   -0.9150   22.0860 C.ar      1 <0>         0.0000
      4 C4         14.5040    0.3020   22.3830 C.ar      1 <0>         0.0000
      5 C5          6.2240    1.5650   18.0620 C.ar      1 <0>         0.0000
      6 C6          7.9010    0.3660   19.0680 C.ar      1 <0>         0.0000
      7 C7          6.3780    1.5880   20.4940 C.ar      1 <0>         0.0000
      8 C8         11.7370    0.1070   22.7130 C.ar      1 <0>         0.0000
      9 C9          7.5400    0.8150   20.3630 C.ar      1 <0>         0.0000
     10 C10        13.7880    1.2660   23.0480 C.ar      1 <0>         0.0000
     11 C11        13.8350   -0.7950   21.8840 C.ar      1 <0>         0.0000
     12 C12         9.5470    0.7060   21.6650 C.2       1 <0>         0.0000
     13 C13         5.7940    2.0000   21.7810 C.3       1 <0>         0.0000
     14 C14        10.3000   -0.0780   22.7680 C.3       1 <0>         0.0000
     15 N1          7.2560    0.7650   17.8740 N.ar      1 <0>         0.0000
     16 N2          8.2260    0.5180   21.5060 N.am      1 <0>         0.0000
     17 O1         10.1340    1.3220   20.7980 O.2       1 <0>         0.0000
     18 O2         14.4760    2.3680   23.5430 O.3       1 <0>         0.0000
     19 Cl1        14.7850   -2.0230   21.0000 Cl        1 <0>         0.0000
     20 H1          4.7880    2.5310   19.3780 H         1 <0>         0.0000
     21 H2         11.8750    1.9840   23.7660 H         1 <0>         0.0000
     22 H3         11.9360   -1.7500   21.6480 H         1 <0>         0.0000
     23 H4         15.5870    0.2890   22.3160 H         1 <0>         0.0000
     24 H5          5.6750    2.0510   17.2550 H         1 <0>         0.0000
     25 H6          8.7720   -0.2650   18.9960 H         1 <0>         0.0000
     26 H7          6.5040    2.4600   22.4820 H         1 <0>         0.0000
     27 H8          4.8550    2.5570   21.6840 H         1 <0>         0.0000
     28 H9          5.5220    1.0860   22.3230 H         1 <0>         0.0000
     29 H10        10.0270   -1.1380   22.7550 H         1 <0>         0.0000
     30 H11         9.9870    0.1910   23.7850 H         1 <0>         0.0000
     31 H12         7.6840    0.0460   22.2280 H         1 <0>         0.0000
     32 N3         14.7890    4.6770   24.1450 N.3       1 <0>         0.0000
     33 O3         14.2020    6.6310   23.0510 O.3       1 <0>         0.0000
     34 C15        13.8510    3.5700   23.9200 C.3       1 <0>         0.0000
     35 C16        13.2880    4.4160   22.6790 C.3       1 <0>         0.0000
     36 C17        14.3570    5.4270   23.0450 C.3       1 <0>         0.0000
     37 H13        14.7240    5.1740   25.0290 H         1 <0>         0.0000
     38 H14        13.0980    3.5120   24.7110 H         1 <0>         0.0000
     39 H15        12.2530    4.7140   22.8810 H         1 <0>         0.0000
     40 H16        13.3770    3.8940   21.7300 H         1 <0>         0.0000
     41 H          14.2020    6.6310   23.0510 H         1 <0>         0.0000
     42 H          14.3570    5.4270   23.0450 H         1 <0>         0.0000
@<TRIPOS>BOND
     1    5   24 1
     2    5   15 ar
     3    6   15 ar
     4    1    5 ar
     5    6   25 1
     6    6    9 ar
     7    1   20 1
     8    1    7 ar
     9    7    9 ar
    10    9   16 1
    11    7   13 1
    12   12   17 2
    13   11   19 1
    14   12   16 am
    15   16   31 1
    16    3   22 1
    17   12   14 1
    18   13   27 1
    19   35   40 1
    20   13   28 1
    21   13   26 1
    22    3   11 ar
    23    4   11 ar
    24    3    8 ar
    25    4   23 1
    26    4   10 ar
    27   35   39 1
    28   35   36 1
    29   34   35 1
    30    8   14 1
    31    2    8 ar
    32   14   29 1
    33   14   30 1
    34   33   36 1
    35   32   36 1
    36    2   10 ar
    37   10   18 1
    38    2   21 1
    39   18   34 1
    40   32   34 1
    41   34   38 1
    42   32   37 1
    43   33   41 1
    44   36   42 1
@<TRIPOS>MOLECULE
*****
   40    42     0     0     0
SMALL
NO_CHARGES

@<TRIPOS>ATOM
      1 C1          5.2110    1.2190   20.0150 C.ar      1 <0>         0.0000
      2 C2         12.5400    1.5540   23.3190 C.ar      1 <0>         0.0000
      3 C3         12.5860   -0.6470   22.5000 C.ar      1 <0>         0.0000
      4 C4         14.5840    0.6360   22.5190 C.ar      1 <0>         0.0000
      5 C5          5.6870    0.9330   18.7470 C.ar      1 <0>         0.0000
      6 C6          7.7650    0.6970   19.5330 C.ar      1 <0>         0.0000
      7 C7          6.0130    1.0940   21.1580 C.ar      1 <0>         0.0000
      8 C8         11.8320    0.3910   22.9550 C.ar      1 <0>         0.0000
      9 C9          7.3410    0.8350   20.9090 C.ar      1 <0>         0.0000
     10 C10        13.8910    1.7060   23.0400 C.ar      1 <0>         0.0000
     11 C11        13.9070   -0.5310   22.1550 C.ar      1 <0>         0.0000
     12 C12         9.5160    0.8520   22.0240 C.2       1 <0>         0.0000
     13 C13         5.4360    1.2380   22.5220 C.3       1 <0>         0.0000
     14 C14        10.3520    0.2050   23.1530 C.3       1 <0>         0.0000
     15 N1          6.9660    0.6650   18.5010 N.ar      1 <0>         0.0000
     16 N2          8.1630    0.6380   21.9970 N.am      1 <0>         0.0000
     17 O1         10.0370    1.6690   21.2070 O.2       1 <0>         0.0000
     18 O2         14.6270    2.8620   23.2420 O.3       1 <0>         0.0000
     19 Cl1        14.6570   -1.8840   21.3000 Cl        1 <0>         0.0000
     20 H1          4.1470    1.4290   20.1530 H         1 <0>         0.0000
     21 H2         11.9590    2.3300   23.7940 H         1 <0>         0.0000
     22 H3         11.9770   -1.5210   22.2810 H         1 <0>         0.0000
     23 H4         15.6550    0.7120   22.3600 H         1 <0>         0.0000
     24 H5          4.9650    0.8950   17.9320 H         1 <0>         0.0000
     25 H6          8.7930    0.4390   19.2790 H         1 <0>         0.0000
     26 H7          5.6850    0.4960   23.2750 H         1 <0>         0.0000
     27 H8          5.6890    2.2430   22.8790 H         1 <0>         0.0000
     28 H9          4.3460    1.1280   22.4630 H         1 <0>         0.0000
     29 H10        10.0570   -0.8330   23.2920 H         1 <0>         0.0000
     30 H11        10.0670    0.7550   24.0610 H         1 <0>         0.0000
     31 H12         7.7370    0.0190   22.6840 H         1 <0>         0.0000
     32 C15        13.9270    4.0710   23.2000 C.3       1 <0>         0.0000
     33 C16        13.3010    4.4490   21.8500 C.3       1 <0>         0.0000
     34 C17        14.3460    5.4910   21.8540 C.2       1 <0>         0.0000
     35 H13        14.8910    5.9770   23.7590 H         1 <0>         0.0000
     36 H14        13.1690    4.1140   23.9880 H         1 <0>         0.0000
     37 H15        13.5160    3.7520   21.0350 H         1 <0>         0.0000
     38 H16        12.2750    4.8100   21.7950 H         1 <0>         0.0000
     39 N3         14.7810    5.2280   23.0750 N.am      1 <0>         0.0000
     40 O3         14.3970    6.5690   21.2320 O.2       1 <0>         0.0000
@<TRIPOS>BOND
     1    5   24 1
     2    5   15 ar
     3    6   15 ar
     4    1    5 ar
     5    6   25 1
     6    6    9 ar
     7    1   20 1
     8    1    7 ar
     9    7    9 ar
    10    9   16 1
    11   33   37 1
    12    7   13 1
    13   12   17 2
    14   34   40 2
    15   11   19 1
    16   33   38 1
    17   33   34 1
    18   32   33 1
    19   34   39 am
    20   12   16 am
    21   16   31 1
    22   12   14 1
    23    3   11 ar
    24    4   11 ar
    25    3   22 1
    26    4   23 1
    27   13   28 1
    28    3    8 ar
    29    4   10 ar
    30   13   27 1
    31   13   26 1
    32    8   14 1
    33    2    8 ar
    34   10   18 1
    35    2   10 ar
    36   32   39 1
    37   35   39 1
    38   14   29 1
    39   14   30 1
    40   18   32 1
    41   32   36 1
    42    2   21 1
@<TRIPOS>MOLECULE
*****
   40    42     0     0     0
SMALL
NO_CHARGES

@<TRIPOS>ATOM
      1 C1          5.2760    0.9830   20.1600 C.ar      1 <0>         0.0000
      2 C2         12.4620    1.5900   23.4200 C.ar      1 <0>         0.0000
      3 C3         12.5230   -0.5460   22.3220 C.ar      1 <0>         0.0000
      4 C4         14.5460    0.7640   22.4280 C.ar      1 <0>         0.0000
      5 C5          5.7200    0.6900   18.8640 C.ar      1 <0>         0.0000
      6 C6          7.7280   -0.0070   19.6300 C.ar      1 <0>         0.0000
      7 C7          6.0370    0.6270   21.2730 C.ar      1 <0>         0.0000
      8 C8         11.8210    0.4000   23.0360 C.ar      1 <0>         0.0000
      9 C9          7.3390    0.1900   21.0250 C.ar      1 <0>         0.0000
     10 C10        13.8820    1.8550   23.1520 C.ar      1 <0>         0.0000
     11 C11        13.8970   -0.4340   22.0040 C.ar      1 <0>         0.0000
     12 C12         9.5700    0.2300   22.1000 C.2       1 <0>         0.0000
     13 C13         5.3660    0.6360   22.6330 C.3       1 <0>         0.0000
     14 C14        10.3780    0.0480   23.3550 C.3       1 <0>         0.0000
     15 N1          6.9140    0.2700   18.5720 N.ar      1 <0>         0.0000
     16 N2          8.2720   -0.2090   21.9790 N.am      1 <0>         0.0000
     17 O1         10.0250    0.9020   21.1860 O.2       1 <0>         0.0000
     18 O2         14.5800    2.9490   23.5240 O.3       1 <0>         0.0000
     19 Cl1        14.7560   -1.7690   21.2500 Cl        1 <0>         0.0000
     20 H1          4.3210    1.4370   20.3960 H         1 <0>         0.0000
     21 H2         11.8810    2.3720   23.9060 H         1 <0>         0.0000
     22 H3         11.9970   -1.4240   21.9730 H         1 <0>         0.0000
     23 H4         15.6240    0.8360   22.2750 H         1 <0>         0.0000
     24 H5          5.0360    0.9130   18.0470 H         1 <0>         0.0000
     25 H6          8.6910   -0.4420   19.4140 H         1 <0>         0.0000
     26 H7          5.7290   -0.1250   23.3260 H         1 <0>         0.0000
     27 H8          5.5780    1.5720   23.1440 H         1 <0>         0.0000
     28 H9          4.2750    0.6400   22.5280 H         1 <0>         0.0000
     29 H10        10.3440   -1.0060   23.6620 H         1 <0>         0.0000
     30 H11         9.9720    0.7340   24.1040 H         1 <0>         0.0000
     31 H12         7.8220   -0.5930   22.8020 H         1 <0>         0.0000
     32 H13        12.4560    5.2210   22.4030 H         1 <0>         0.0000
     33 H14        14.0610    4.7300   21.6100 H         1 <0>         0.0000
     34 N3         14.7180    5.2000   24.2610 N.am      1 <0>         0.0000
     35 O3         14.3470    7.2320   23.2460 O.2       1 <0>         0.0000
     36 C15        13.8270    4.1660   23.7700 C.3       1 <0>         0.0000
     37 C16        13.5250    5.0370   22.5150 C.3       1 <0>         0.0000
     38 C17        14.3830    5.9970   23.2410 C.2       1 <0>         0.0000
     39 H15        14.5990    5.5680   25.2060 H         1 <0>         0.0000
     40 H16        12.9550    4.0520   24.4160 H         1 <0>         0.0000
@<TRIPOS>BOND
     1    5   24 1
     2    5   15 ar
     3    6   15 ar
     4    1    5 ar
     5    6   25 1
     6    6    9 ar
     7    1   20 1
     8    1    7 ar
     9    7    9 ar
    10    9   16 1
    11   12   17 2
    12   11   19 1
    13    7   13 1
    14   33   37 1
    15    3   22 1
    16   12   16 am
    17   16   31 1
    18    3   11 ar
    19    4   11 ar
    20   12   14 1
    21    4   23 1
    22    3    8 ar
    23   32   37 1
    24    4   10 ar
    25   37   38 1
    26   36   37 1
    27   13   28 1
    28   13   27 1
    29   13   26 1
    30    8   14 1
    31    2    8 ar
    32    2   10 ar
    33   10   18 1
    34   35   38 2
    35   34   38 am
    36   14   29 1
    37   14   30 1
    38    2   21 1
    39   18   36 1
    40   34   36 1
    41   36   40 1
    42   34   39 1
@<TRIPOS>MOLECULE
*****
   40    42     0     0     0
SMALL
NO_CHARGES

@<TRIPOS>ATOM
      1 C1          5.5740    0.9500   20.8770 C.ar      1 <0>         0.0000
      2 C2         12.7850    0.2480   24.4190 C.ar      1 <0>         0.0000
      3 C3         12.6870   -1.6580   22.9630 C.ar      1 <0>         0.0000
      4 C4         14.8290   -0.7100   23.4500 C.ar      1 <0>         0.0000
      5 C5          5.9200    0.6990   19.5590 C.ar      1 <0>         0.0000
      6 C6          7.9340   -0.3060   20.1610 C.ar      1 <0>         0.0000
      7 C7          6.4650    0.5840   21.9200 C.ar      1 <0>         0.0000
      8 C8         12.0100   -0.7360   23.7510 C.ar      1 <0>         0.0000
      9 C9          7.6790   -0.1080   21.5690 C.ar      1 <0>         0.0000
     10 C10        14.2260    0.2290   24.3200 C.ar      1 <0>         0.0000
     11 C11        14.0570   -1.6360   22.8090 C.ar      1 <0>         0.0000
     12 C12         9.8090   -0.3460   22.6970 C.2       1 <0>         0.0000
     13 C13         5.9820    0.8320   23.3260 C.3       1 <0>         0.0000
     14 C14        10.5500   -0.7910   23.8940 C.3       1 <0>         0.0000
     15 N1          7.0860    0.1690   19.1630 N.ar      1 <0>         0.0000
     16 N2          8.4430   -0.5470   22.7030 N.am      1 <0>         0.0000
     17 O1         10.4060   -0.0390   21.6870 O.2       1 <0>         0.0000
     18 O2         14.9840    1.1770   24.9340 O.3       1 <0>         0.0000
     19 Cl1        14.9380   -2.7220   21.8060 Cl        1 <0>         0.0000
     20 H1          4.6210    1.4340   21.0830 H         1 <0>         0.0000
     21 H2         12.3610    0.9130   25.1640 H         1 <0>         0.0000
     22 H3         12.0810   -2.3180   22.3550 H         1 <0>         0.0000
     23 H4         15.9060   -0.5720   23.4390 H         1 <0>         0.0000
     24 H5          5.2610    1.0930   18.7940 H         1 <0>         0.0000
     25 H6          8.8480   -0.8030   19.8540 H         1 <0>         0.0000
     26 H7          5.2860    1.6660   23.4390 H         1 <0>         0.0000
     27 H8          5.5140   -0.0900   23.6790 H         1 <0>         0.0000
     28 H9          6.7900    1.2510   23.9270 H         1 <0>         0.0000
     29 H10        10.4040   -1.8560   24.0730 H         1 <0>         0.0000
     30 H11        10.2730   -0.2120   24.7850 H         1 <0>         0.0000
     31 H12         8.0320   -0.8170   23.5930 H         1 <0>         0.0000
     32 C15        14.4640    2.5290   24.8170 C.3       1 <0>         0.0000
     33 C16        13.8560    2.9420   23.4660 C.3       1 <0>         0.0000
     34 C17        15.1180    3.7720   23.4450 C.2       1 <0>         0.0000
     35 H13        16.5260    2.9870   24.6030 H         1 <0>         0.0000
     36 H14        13.7720    2.7550   25.6340 H         1 <0>         0.0000
     37 H15        13.8890    2.1720   22.6870 H         1 <0>         0.0000
     38 H16        12.8770    3.4000   23.6120 H         1 <0>         0.0000
     39 N3         15.6070    3.4270   24.6360 N.am      1 <0>         0.0000
     40 O3         15.7030    4.1870   22.4650 O.2       1 <0>         0.0000
@<TRIPOS>BOND
     1    5   24 1
     2    5   15 ar
     3    6   15 ar
     4    1    5 ar
     5    6   25 1
     6    6    9 ar
     7    1   20 1
     8    1    7 ar
     9    7    9 ar
    10    9   16 1
    11   12   17 2
    12   11   19 1
    13    7   13 1
    14    3   22 1
    15   34   40 2
    16   33   37 1
    17   12   16 am
    18   12   14 1
    19   16   31 1
    20    3   11 ar
    21    4   11 ar
    22    3    8 ar
    23   13   26 1
    24   13   27 1
    25   13   28 1
    26    4   23 1
    27   33   34 1
    28   34   39 am
    29    4   10 ar
    30   33   38 1
    31   32   33 1
    32    8   14 1
    33    2    8 ar
    34   14   29 1
    35   14   30 1
    36    2   10 ar
    37   10   18 1
    38    2   21 1
    39   35   39 1
    40   32   39 1
    41   18   32 1
    42   32   36 1
@<TRIPOS>MOLECULE
*****
   40    42     0     0     0
SMALL
NO_CHARGES

@<TRIPOS>ATOM
      1 C1          5.6590    1.9140   19.3960 C.ar      1 <0>         0.0000
      2 C2         11.9780    0.3300   22.8730 C.ar      1 <0>         0.0000
      3 C3         12.1640   -1.7840   21.7460 C.ar      1 <0>         0.0000
      4 C4         14.0720   -0.3870   22.0680 C.ar      1 <0>         0.0000
      5 C5          5.8950    1.3590   18.0750 C.ar      1 <0>         0.0000
      6 C6          7.5920    0.1150   18.9630 C.ar      1 <0>         0.0000
      7 C7          6.4030    1.5310   20.4970 C.ar      1 <0>         0.0000
      8 C8         11.3920   -0.8220   22.4680 C.ar      1 <0>         0.0000
      9 C9          7.4940    0.6950   20.2750 C.ar      1 <0>         0.0000
     10 C10        13.3680    0.4960   22.8430 C.ar      1 <0>         0.0000
     11 C11        13.4990   -1.5700   21.5700 C.ar      1 <0>         0.0000
     12 C12         8.9490   -0.9260   21.4610 C.2       1 <0>         0.0000
     13 C13         6.1250    2.1010   21.8400 C.3       1 <0>         0.0000
     14 C14         9.8850   -1.0210   22.7170 C.3       1 <0>         0.0000
     15 N1          6.8340    0.4350   17.8660 N.ar      1 <0>         0.0000
     16 N2          8.3540    0.3620   21.2980 N.am      1 <0>         0.0000
     17 O1          8.6870   -1.9050   20.8680 O.2       1 <0>         0.0000
     18 O2         14.0690    1.5100   23.4440 O.3       1 <0>         0.0000
     19 Cl1        14.6010   -2.7150   20.7960 Cl        1 <0>         0.0000
     20 H1          4.7700    2.5390   19.3050 H         1 <0>         0.0000
     21 H2         11.3510    1.1520   23.2090 H         1 <0>         0.0000
     22 H3         11.6180   -2.6400   21.3490 H         1 <0>         0.0000
     23 H4         15.1370   -0.2910   21.8850 H         1 <0>         0.0000
     24 H5          5.2560    1.7040   17.2710 H         1 <0>         0.0000
     25 H6          8.2900   -0.7090   18.8260 H         1 <0>         0.0000
     26 H7          6.8100    2.8730   22.2070 H         1 <0>         0.0000
     27 H8          5.0610    2.3790   21.9080 H         1 <0>         0.0000
     28 H9          6.1870    1.3170   22.5980 H         1 <0>         0.0000
     29 H10         9.6290   -2.0440   23.0040 H         1 <0>         0.0000
     30 H11         9.4530   -0.3270   23.4410 H         1 <0>         0.0000
     31 H12         8.6150    1.1510   21.8830 H         1 <0>         0.0000
     32 H13        15.1600    3.5290   24.7190 H         1 <0>         0.0000
     33 H14        12.8960    1.7960   25.0920 H         1 <0>         0.0000
     34 H15        12.3570    3.4860   22.4860 H         1 <0>         0.0000
     35 H16        11.4100    3.5260   23.9970 H         1 <0>         0.0000
     36 N3         14.1610    3.4680   24.9150 N.am      1 <0>         0.0000
     37 O3         14.0690    5.3290   23.6360 O.2       1 <0>         0.0000
     38 C15        13.3670    2.3860   24.2890 C.3       1 <0>         0.0000
     39 C16        12.4280    3.4890   23.5800 C.3       1 <0>         0.0000
     40 C17        13.4940    4.3790   24.1850 C.2       1 <0>         0.0000
@<TRIPOS>BOND
     1    5   24 1
     2    5   15 ar
     3    6   15 ar
     4    1    5 ar
     5    6   25 1
     6    6    9 ar
     7    1   20 1
     8    1    7 ar
     9    7    9 ar
    10    9   16 1
    11    7   13 1
    12   11   19 1
    13   12   17 2
    14   12   16 am
    15   16   31 1
    16    3   22 1
    17   12   14 1
    18    3   11 ar
    19    4   11 ar
    20    3    8 ar
    21   13   27 1
    22   13   26 1
    23   13   28 1
    24    4   23 1
    25    4   10 ar
    26    8   14 1
    27    2    8 ar
    28   34   39 1
    29   14   29 1
    30   14   30 1
    31    2   10 ar
    32   10   18 1
    33    2   21 1
    34   18   38 1
    35   35   39 1
    36   39   40 1
    37   38   39 1
    38   37   40 2
    39   36   40 am
    40   36   38 1
    41   33   38 1
    42   32   36 1
@<TRIPOS>MOLECULE
*****
   42    44     0     0     0
SMALL
NO_CHARGES

@<TRIPOS>ATOM
      1 C1          4.0970    0.9580   19.1760 C.ar      1 <0>         0.0000
      2 C2         10.5190    0.9060   23.7740 C.ar      1 <0>         0.0000
      3 C3         11.0280   -1.3180   22.9870 C.ar      1 <0>         0.0000
      4 C4         12.7970    0.2710   23.4880 C.ar      1 <0>         0.0000
      5 C5          4.6340    0.5020   18.0360 C.ar      1 <0>         0.0000
      6 C6          6.5110   -0.2140   19.1340 C.ar      1 <0>         0.0000
      7 C7          4.7290    0.7370   20.3850 C.ar      1 <0>         0.0000
      8 C8         10.0700   -0.3180   23.3050 C.ar      1 <0>         0.0000
      9 C9          5.9880    0.1590   20.3950 C.ar      1 <0>         0.0000
     10 C10        11.8420    1.1790   23.9170 C.ar      1 <0>         0.0000
     11 C11        12.4000   -0.9410   22.9250 C.ar      1 <0>         0.0000
     12 C12         8.0900   -0.2440   21.7060 C.2       1 <0>         0.0000
     13 C13         4.0840    1.2080   21.6580 C.3       1 <0>         0.0000
     14 C14         8.6490   -0.5250   23.0970 C.3       1 <0>         0.0000
     15 N1          5.8840   -0.0360   17.9500 N.ar      1 <0>         0.0000
     16 N2          6.7280    0.0110   21.6010 N.am      1 <0>         0.0000
     17 O1          8.7830    0.0020   20.7960 O.2       1 <0>         0.0000
     18 O2         12.4100    2.3650   24.3710 O.3       1 <0>         0.0000
     19 Cl1        13.6380   -1.9730   22.2730 Cl        1 <0>         0.0000
     20 H1          3.1050    1.3860   19.0940 H         1 <0>         0.0000
     21 H2          9.8390    1.7380   23.9060 H         1 <0>         0.0000
     22 H3         10.7410   -2.2350   22.4950 H         1 <0>         0.0000
     23 H4         13.8670    0.4560   23.4850 H         1 <0>         0.0000
     24 H5          4.0930    0.5730   17.1060 H         1 <0>         0.0000
     25 H6          7.4220   -0.8070   19.0550 H         1 <0>         0.0000
     26 H7          4.1500    0.5440   22.5210 H         1 <0>         0.0000
     27 H8          4.6160    2.1370   21.8760 H         1 <0>         0.0000
     28 H9          2.9980    1.3130   21.5720 H         1 <0>         0.0000
     29 H10         8.5540   -1.6150   23.2150 H         1 <0>         0.0000
     30 H11         8.1490    0.0270   23.9000 H         1 <0>         0.0000
     31 H12         6.2310   -0.1780   22.4680 H         1 <0>         0.0000
     32 C15        12.1300    3.4910   23.4850 C.3       1 <0>         0.0000
     33 C16        13.1830    3.6190   22.3160 C.3       1 <0>         0.0000
     34 C17        13.5610    4.8070   23.1010 C.3       1 <0>         0.0000
     35 H13        12.8500    4.9910   24.9870 H         1 <0>         0.0000
     36 H14        11.1250    3.5630   23.0640 H         1 <0>         0.0000
     37 H15        13.8540    2.7640   22.3030 H         1 <0>         0.0000
     38 H16        12.6480    3.8020   21.3770 H         1 <0>         0.0000
     39 N3         12.6030    4.7680   24.0180 N.3       1 <0>         0.0000
     40 O3         14.7180    5.0630   23.3900 O.3       1 <0>         0.0000
     41 H          13.5610    4.8070   23.1010 H         1 <0>         0.0000
     42 H          14.7180    5.0630   23.3900 H         1 <0>         0.0000
@<TRIPOS>BOND
     1    5   24 1
     2    5   15 ar
     3    6   15 ar
     4    1    5 ar
     5    6   25 1
     6    1   20 1
     7    6    9 ar
     8    1    7 ar
     9    7    9 ar
    10    7   13 1
    11    9   16 1
    12   12   17 2
    13   33   38 1
    14   13   28 1
    15   12   16 am
    16   16   31 1
    17   13   27 1
    18   13   26 1
    19   12   14 1
    20   11   19 1
    21   33   37 1
    22   33   34 1
    23   32   33 1
    24    3   22 1
    25    3   11 ar
    26    4   11 ar
    27    3    8 ar
    28   32   36 1
    29   14   29 1
    30    8   14 1
    31   14   30 1
    32   34   40 1
    33   34   39 1
    34    2    8 ar
    35    4   23 1
    36   32   39 1
    37   18   32 1
    38    4   10 ar
    39    2   21 1
    40    2   10 ar
    41   10   18 1
    42   35   39 1
    43   34   41 1
    44   40   42 1
@<TRIPOS>MOLECULE
*****
   40    42     0     0     0
SMALL
NO_CHARGES

@<TRIPOS>ATOM
      1 C1          5.0280    2.5020   18.2270 C.ar      1 <0>         0.0000
      2 C2         11.6810    1.5690   22.2980 C.ar      1 <0>         0.0000
      3 C3         12.0240   -0.6080   21.5540 C.ar      1 <0>         0.0000
      4 C4         13.8980    0.5850   22.3700 C.ar      1 <0>         0.0000
      5 C5          5.5450    2.2910   16.9730 C.ar      1 <0>         0.0000
      6 C6          7.2760    1.1670   17.9450 C.ar      1 <0>         0.0000
      7 C7          5.6100    2.0170   19.4100 C.ar      1 <0>         0.0000
      8 C8         11.1280    0.4190   21.8330 C.ar      1 <0>         0.0000
      9 C9          6.7490    1.2740   19.2680 C.ar      1 <0>         0.0000
     10 C10        13.0500    1.7040   22.5980 C.ar      1 <0>         0.0000
     11 C11        13.3620   -0.5080   21.7100 C.ar      1 <0>         0.0000
     12 C12         8.8150    0.9810   20.5180 C.2       1 <0>         0.0000
     13 C13         4.9680    2.3680   20.7890 C.3       1 <0>         0.0000
     14 C14         9.5840    0.2370   21.6730 C.3       1 <0>         0.0000
     15 N1          6.6900    1.6680   16.7990 N.ar      1 <0>         0.0000
     16 N2          7.4500    0.7870   20.3750 N.am      1 <0>         0.0000
     17 O1          9.3380    1.9470   19.8510 O.2       1 <0>         0.0000
     18 O2         13.6360    2.9240   22.9220 O.3       1 <0>         0.0000
     19 Cl1        14.3830   -1.6830   20.9810 Cl        1 <0>         0.0000
     20 H1          4.0510    2.9450   18.3400 H         1 <0>         0.0000
     21 H2         10.9980    2.3700   22.5340 H         1 <0>         0.0000
     22 H3         11.6590   -1.4640   21.0010 H         1 <0>         0.0000
     23 H4         14.9490    0.6840   22.5820 H         1 <0>         0.0000
     24 H5          4.9860    2.6200   16.0940 H         1 <0>         0.0000
     25 H6          8.2270    0.7010   17.7150 H         1 <0>         0.0000
     26 H7          3.9480    2.7490   20.7880 H         1 <0>         0.0000
     27 H8          4.8550    1.4440   21.3640 H         1 <0>         0.0000
     28 H9          5.5550    3.0610   21.4050 H         1 <0>         0.0000
     29 H10         9.3610   -0.8130   21.4890 H         1 <0>         0.0000
     30 H11         9.0420    0.4590   22.6010 H         1 <0>         0.0000
     31 H12         6.9800    0.3420   21.1650 H         1 <0>         0.0000
     32 N3         13.4960    5.0740   23.8720 N.am      1 <0>         0.0000
     33 O3         13.5840    7.0200   22.6510 O.2       1 <0>         0.0000
     34 C15        12.7430    3.9870   23.3700 C.3       1 <0>         0.0000
     35 C16        12.2910    4.9230   22.1730 C.3       1 <0>         0.0000
     36 C17        13.1230    5.9280   22.9130 C.2       1 <0>         0.0000
     37 H13        14.4910    4.9030   24.0660 H         1 <0>         0.0000
     38 H14        11.8820    3.7050   23.9800 H         1 <0>         0.0000
     39 H15        11.2400    5.2080   22.0270 H         1 <0>         0.0000
     40 H16        12.8220    4.7320   21.2300 H         1 <0>         0.0000
@<TRIPOS>BOND
     1    5   24 1
     2    5   15 ar
     3    6   15 ar
     4    1    5 ar
     5    6   25 1
     6    6    9 ar
     7    1   20 1
     8    1    7 ar
     9    7    9 ar
    10    9   16 1
    11    7   13 1
    12   12   17 2
    13   12   16 am
    14   16   31 1
    15   12   14 1
    16   13   26 1
    17   13   27 1
    18   13   28 1
    19   11   19 1
    20    3   22 1
    21   35   40 1
    22   14   29 1
    23    3   11 ar
    24    3    8 ar
    25    8   14 1
    26   14   30 1
    27    4   11 ar
    28    2    8 ar
    29   35   39 1
    30   35   36 1
    31   34   35 1
    32    2   21 1
    33    2   10 ar
    34    4   23 1
    35    4   10 ar
    36   10   18 1
    37   33   36 2
    38   32   36 am
    39   18   34 1
    40   32   34 1
    41   34   38 1
    42   32   37 1
@<TRIPOS>MOLECULE
*****
   42    44     0     0     0
SMALL
NO_CHARGES

@<TRIPOS>ATOM
      1 C1          4.9850    0.9750   18.8540 C.ar      1 <0>         0.0000
      2 C2         11.6390    1.9030   23.5560 C.ar      1 <0>         0.0000
      3 C3         11.5270   -0.0940   22.2560 C.ar      1 <0>         0.0000
      4 C4         13.6800    1.0260   22.5170 C.ar      1 <0>         0.0000
      5 C5          5.8020    0.4080   17.7760 C.ar      1 <0>         0.0000
      6 C6          7.4550    0.0220   19.2330 C.ar      1 <0>         0.0000
      7 C7          5.4550    1.0860   20.1680 C.ar      1 <0>         0.0000
      8 C8         10.8640    0.9000   22.9750 C.ar      1 <0>         0.0000
      9 C9          6.7720    0.5960   20.3640 C.ar      1 <0>         0.0000
     10 C10        13.0780    2.0320   23.2870 C.ar      1 <0>         0.0000
     11 C11        12.9430   -0.0650   22.1210 C.ar      1 <0>         0.0000
     12 C12         8.6840    1.0470   21.8090 C.2       1 <0>         0.0000
     13 C13         4.5520    1.5130   21.2920 C.3       1 <0>         0.0000
     14 C14         9.3350    0.8560   23.1840 C.3       1 <0>         0.0000
     15 N1          6.9980   -0.1280   17.9270 N.ar      1 <0>         0.0000
     16 N2          7.3750    0.6590   21.6390 N.am      1 <0>         0.0000
     17 O1          9.2220    1.5550   20.8190 O.2       1 <0>         0.0000
     18 O2         13.8550    3.1820   23.4750 O.3       1 <0>         0.0000
     19 Cl1        13.8280   -1.4420   21.4520 Cl        1 <0>         0.0000
     20 H1          4.0100    1.2770   18.4920 H         1 <0>         0.0000
     21 H2         11.2050    2.6810   24.1770 H         1 <0>         0.0000
     22 H3         10.9770   -0.9170   21.8110 H         1 <0>         0.0000
     23 H4         14.7360    1.0740   22.2720 H         1 <0>         0.0000
     24 H5          5.3420    0.2330   16.8030 H         1 <0>         0.0000
     25 H6          8.4480   -0.3790   19.4280 H         1 <0>         0.0000
     26 H7          4.5830    0.7900   22.1120 H         1 <0>         0.0000
     27 H8          4.9100    2.5090   21.5710 H         1 <0>         0.0000
     28 H9          3.4890    1.4900   21.0280 H         1 <0>         0.0000
     29 H10         8.9390   -0.0320   23.6720 H         1 <0>         0.0000
     30 H11         9.0830    1.7400   23.7590 H         1 <0>         0.0000
     31 H12         6.8040    0.7550   22.4860 H         1 <0>         0.0000
     32 H13        11.9300    3.9580   21.7220 H         1 <0>         0.0000
     33 H14        11.1430    5.0850   22.9110 H         1 <0>         0.0000
     34 N3         13.9620    5.6270   23.0470 N.3       1 <0>         0.0000
     35 O3         12.8080    7.0470   21.7970 O.3       1 <0>         0.0000
     36 C15        13.1560    4.4560   23.5260 C.3       1 <0>         0.0000
     37 C16        12.0770    4.7710   22.4440 C.3       1 <0>         0.0000
     38 C17        13.0650    5.8700   22.0720 C.3       1 <0>         0.0000
     39 H15        14.2070    6.4400   23.6120 H         1 <0>         0.0000
     40 H16        12.7010    4.5840   24.5130 H         1 <0>         0.0000
     41 H          12.8080    7.0470   21.7970 H         1 <0>         0.0000
     42 H          13.0650    5.8700   22.0720 H         1 <0>         0.0000
@<TRIPOS>BOND
     1    5   24 1
     2    5   15 ar
     3    1    5 ar
     4    6   15 ar
     5    1   20 1
     6    1    7 ar
     7    6   25 1
     8    6    9 ar
     9    7    9 ar
    10    7   13 1
    11    9   16 1
    12   12   17 2
    13   13   28 1
    14   13   27 1
    15   13   26 1
    16   11   19 1
    17   12   16 am
    18   16   31 1
    19   32   37 1
    20   35   38 1
    21   12   14 1
    22    3   22 1
    23   37   38 1
    24   34   38 1
    25    3   11 ar
    26    4   11 ar
    27    3    8 ar
    28    4   23 1
    29   33   37 1
    30   36   37 1
    31    4   10 ar
    32    8   14 1
    33    2    8 ar
    34   34   36 1
    35   34   39 1
    36   14   29 1
    37   14   30 1
    38   10   18 1
    39    2   10 ar
    40   18   36 1
    41   36   40 1
    42    2   21 1
    43   35   41 1
    44   38   42 1
@<TRIPOS>MOLECULE
*****
   40    42     0     0     0
SMALL
NO_CHARGES

@<TRIPOS>ATOM
      1 C1          4.4450    2.1260   18.8970 C.ar      1 <0>         0.0000
      2 C2         11.0590    1.2630   23.3000 C.ar      1 <0>         0.0000
      3 C3         11.0850   -0.8980   22.2410 C.ar      1 <0>         0.0000
      4 C4         13.1130    0.2470   22.8040 C.ar      1 <0>         0.0000
      5 C5          5.0700    1.8460   17.6850 C.ar      1 <0>         0.0000
      6 C6          6.9040    1.0240   18.7350 C.ar      1 <0>         0.0000
      7 C7          5.0180    1.8910   20.0960 C.ar      1 <0>         0.0000
      8 C8         10.4180    0.1950   22.7750 C.ar      1 <0>         0.0000
      9 C9          6.3200    1.2650   20.0170 C.ar      1 <0>         0.0000
     10 C10        12.4360    1.3460   23.2870 C.ar      1 <0>         0.0000
     11 C11        12.5050   -0.9160   22.2780 C.ar      1 <0>         0.0000
     12 C12         8.3550    0.8880   21.4730 C.2       1 <0>         0.0000
     13 C13         4.3960    2.3090   21.3600 C.3       1 <0>         0.0000
     14 C14         8.8660    0.1680   22.7420 C.3       1 <0>         0.0000
     15 N1          6.2290    1.2450   17.5710 N.ar      1 <0>         0.0000
     16 N2          7.0130    0.8590   21.2390 N.am      1 <0>         0.0000
     17 O1          9.0910    1.5930   20.7350 O.2       1 <0>         0.0000
     18 O2         13.1490    2.4600   23.7460 O.3       1 <0>         0.0000
     19 Cl1        13.4770   -2.1360   21.5440 Cl        1 <0>         0.0000
     20 H1          3.4720    2.5800   18.8160 H         1 <0>         0.0000
     21 H2         10.3920    1.9540   23.7960 H         1 <0>         0.0000
     22 H3         10.5410   -1.7750   21.8930 H         1 <0>         0.0000
     23 H4         14.1930    0.1670   22.8760 H         1 <0>         0.0000
     24 H5          4.6000    1.9670   16.7080 H         1 <0>         0.0000
     25 H6          7.9410    0.7080   18.7110 H         1 <0>         0.0000
     26 H7          4.4190    1.5120   22.0980 H         1 <0>         0.0000
     27 H8          4.8480    3.2410   21.7160 H         1 <0>         0.0000
     28 H9          3.3410    2.4930   21.1410 H         1 <0>         0.0000
     29 H10         8.4320   -0.8440   22.8060 H         1 <0>         0.0000
     30 H11         8.5670    0.7810   23.6020 H         1 <0>         0.0000
     31 H12         6.4280    0.5740   22.0210 H         1 <0>         0.0000
     32 N3         13.5710    4.8510   23.4760 N.am      1 <0>         0.0000
     33 O3         14.2750    5.6990   21.5080 O.2       1 <0>         0.0000
     34 C15        12.6390    3.7470   23.3490 C.3       1 <0>         0.0000
     35 C16        12.5080    4.0160   21.7170 C.3       1 <0>         0.0000
     36 C17        13.3980    5.1680   22.1630 C.2       1 <0>         0.0000
     37 H13        14.5430    4.6600   23.7220 H         1 <0>         0.0000
     38 H14        11.6830    4.0130   23.8150 H         1 <0>         0.0000
     39 H15        11.5230    4.2980   21.3120 H         1 <0>         0.0000
     40 H16        12.9540    3.2510   21.0700 H         1 <0>         0.0000
@<TRIPOS>BOND
     1    5   24 1
     2    5   15 ar
     3    6   15 ar
     4    1    5 ar
     5    6   25 1
     6    6    9 ar
     7    1   20 1
     8    1    7 ar
     9    7    9 ar
    10    9   16 1
    11    7   13 1
    12   12   17 2
    13   35   40 1
    14   13   28 1
    15   12   16 am
    16   16   31 1
    17   35   39 1
    18   13   27 1
    19   13   26 1
    20   12   14 1
    21   33   36 2
    22   11   19 1
    23   35   36 1
    24   34   35 1
    25    3   22 1
    26   32   36 am
    27    3   11 ar
    28    3    8 ar
    29    4   11 ar
    30    8   14 1
    31   14   29 1
    32   14   30 1
    33    2    8 ar
    34    4   23 1
    35    4   10 ar
    36    2   10 ar
    37   10   18 1
    38    2   21 1
    39   32   34 1
    40   18   34 1
    41   34   38 1
    42   32   37 1
@<TRIPOS>MOLECULE
*****
   40    42     0     0     0
SMALL
NO_CHARGES

@<TRIPOS>ATOM
      1 C1          5.5010    1.0930   19.7370 C.ar      1 <0>         0.0000
      2 C2         12.6570    1.5310   23.0580 C.ar      1 <0>         0.0000
      3 C3         12.7970   -0.6720   21.8530 C.ar      1 <0>         0.0000
      4 C4         14.6910    0.7460   22.1050 C.ar      1 <0>         0.0000
      5 C5          5.9530    1.3900   18.4370 C.ar      1 <0>         0.0000
      6 C6          8.0820    0.7670   18.9670 C.ar      1 <0>         0.0000
      7 C7          6.3290    0.6000   20.6580 C.ar      1 <0>         0.0000
      8 C8         12.0430    0.3270   22.5810 C.ar      1 <0>         0.0000
      9 C9          7.6680    0.4180   20.2860 C.ar      1 <0>         0.0000
     10 C10        14.0160    1.7780   22.7530 C.ar      1 <0>         0.0000
     11 C11        14.0900   -0.3820   21.6050 C.ar      1 <0>         0.0000
     12 C12         9.8010    0.5810   21.5450 C.2       1 <0>         0.0000
     13 C13         5.8040    0.2250   22.0600 C.3       1 <0>         0.0000
     14 C14        10.5710    0.1300   22.7450 C.3       1 <0>         0.0000
     15 N1          7.1730    1.1920   18.0960 N.ar      1 <0>         0.0000
     16 N2          8.6160   -0.0570   21.2170 N.am      1 <0>         0.0000
     17 O1         10.2090    1.4760   20.8170 O.2       1 <0>         0.0000
     18 O2         14.6430    2.9590   23.0920 O.3       1 <0>         0.0000
     19 Cl1        15.0380   -1.3940   20.6680 Cl        1 <0>         0.0000
     20 H1          4.4580    1.2730   19.9880 H         1 <0>         0.0000
     21 H2         11.9670    2.2120   23.5630 H         1 <0>         0.0000
     22 H3         12.2670   -1.5440   21.4890 H         1 <0>         0.0000
     23 H4         15.7510    0.8300   21.8730 H         1 <0>         0.0000
     24 H5          5.1810    1.7740   17.7770 H         1 <0>         0.0000
     25 H6          9.1400    0.6460   18.7320 H         1 <0>         0.0000
     26 H7          5.8900   -0.8480   22.2970 H         1 <0>         0.0000
     27 H8          6.2970    0.9200   22.7350 H         1 <0>         0.0000
     28 H9          4.7360    0.4060   22.2430 H         1 <0>         0.0000
     29 H10        10.3210   -0.8800   23.0860 H         1 <0>         0.0000
     30 H11        10.2810    0.8020   23.5600 H         1 <0>         0.0000
     31 H12         8.2340   -0.4630   22.0690 H         1 <0>         0.0000
     32 C15        13.8510    4.0080   23.4540 C.3       1 <0>         0.0000
     33 C16        12.9320    4.5290   22.3500 C.3       1 <0>         0.0000
     34 C17        13.6440    5.8130   22.5740 C.2       1 <0>         0.0000
     35 H13        14.5800    5.9210   24.3760 H         1 <0>         0.0000
     36 H14        13.3020    3.7580   24.3750 H         1 <0>         0.0000
     37 H15        13.1500    4.0880   21.3700 H         1 <0>         0.0000
     38 H16        11.8880    4.4340   22.6460 H         1 <0>         0.0000
     39 N3         14.4860    5.3800   23.5120 N.am      1 <0>         0.0000
     40 O3         13.2290    6.9400   22.5470 O.2       1 <0>         0.0000
@<TRIPOS>BOND
     1    5   24 1
     2    5   15 ar
     3    6   15 ar
     4    1    5 ar
     5    6   25 1
     6    6    9 ar
     7    1   20 1
     8    1    7 ar
     9    7    9 ar
    10    9   16 1
    11    7   13 1
    12   11   19 1
    13   12   17 2
    14   12   16 am
    15   16   31 1
    16   33   37 1
    17    3   22 1
    18   12   14 1
    19    3   11 ar
    20    4   11 ar
    21    3    8 ar
    22    4   23 1
    23   13   28 1
    24   13   26 1
    25   13   27 1
    26    4   10 ar
    27   33   34 1
    28   33   38 1
    29   32   33 1
    30   34   40 2
    31   34   39 am
    32    8   14 1
    33    2    8 ar
    34   14   29 1
    35   14   30 1
    36    2   10 ar
    37   10   18 1
    38    2   21 1
    39   18   32 1
    40   32   39 1
    41   32   36 1
    42   35   39 1
@<TRIPOS>MOLECULE
*****
   40    42     0     0     0
SMALL
NO_CHARGES

@<TRIPOS>ATOM
      1 C1          5.1730    1.4080   19.3800 C.ar      1 <0>         0.0000
      2 C2         12.1700    1.0900   22.8690 C.ar      1 <0>         0.0000
      3 C3         12.5130   -1.1280   22.2030 C.ar      1 <0>         0.0000
      4 C4         14.3860    0.2480   22.6320 C.ar      1 <0>         0.0000
      5 C5          5.6960    1.2140   18.1450 C.ar      1 <0>         0.0000
      6 C6          7.7600    0.4770   19.0300 C.ar      1 <0>         0.0000
      7 C7          5.9510    1.2420   20.5020 C.ar      1 <0>         0.0000
      8 C8         11.6100   -0.1480   22.5120 C.ar      1 <0>         0.0000
      9 C9          7.2840    0.7100   20.3310 C.ar      1 <0>         0.0000
     10 C10        13.5660    1.3620   22.8080 C.ar      1 <0>         0.0000
     11 C11        13.8770   -1.0050   22.3680 C.ar      1 <0>         0.0000
     12 C12         9.3640    0.4770   21.5330 C.2       1 <0>         0.0000
     13 C13         5.3280    1.5200   21.7880 C.3       1 <0>         0.0000
     14 C14        10.1160   -0.3710   22.4790 C.3       1 <0>         0.0000
     15 N1          6.9740    0.7580   17.9660 N.ar      1 <0>         0.0000
     16 N2          8.0210    0.3080   21.4350 N.am      1 <0>         0.0000
     17 O1          9.9160    1.2540   20.8080 O.2       1 <0>         0.0000
     18 O2         14.1540    2.5840   23.0660 O.3       1 <0>         0.0000
     19 Cl1        14.9720   -2.3280   22.1540 Cl        1 <0>         0.0000
     20 H1          4.1210    1.6640   19.3980 H         1 <0>         0.0000
     21 H2         11.4470    1.8480   23.1670 H         1 <0>         0.0000
     22 H3         12.0690   -2.0900   21.9410 H         1 <0>         0.0000
     23 H4         15.4610    0.3240   22.7480 H         1 <0>         0.0000
     24 H5          5.1580    1.4450   17.2290 H         1 <0>         0.0000
     25 H6          8.7690    0.1080   18.8940 H         1 <0>         0.0000
     26 H7          5.3850    0.6460   22.4530 H         1 <0>         0.0000
     27 H8          5.9160    2.2890   22.3000 H         1 <0>         0.0000
     28 H9          4.2830    1.7950   21.6390 H         1 <0>         0.0000
     29 H10         9.8710   -1.4020   22.2150 H         1 <0>         0.0000
     30 H11         9.6500   -0.2860   23.4720 H         1 <0>         0.0000
     31 H12         7.6510   -0.4250   22.0400 H         1 <0>         0.0000
     32 N3         13.5370    4.9170   23.2170 N.am      1 <0>         0.0000
     33 O3         14.2970    6.6810   21.8970 O.2       1 <0>         0.0000
     34 C15        13.6010    3.7120   22.4490 C.3       1 <0>         0.0000
     35 C16        14.5250    4.4190   21.4300 C.3       1 <0>         0.0000
     36 C17        14.2430    5.5560   22.3340 C.2       1 <0>         0.0000
     37 H13        12.6360    5.3380   23.4540 H         1 <0>         0.0000
     38 H14        12.5930    3.5070   22.0920 H         1 <0>         0.0000
     39 H15        14.0410    4.4910   20.4570 H         1 <0>         0.0000
     40 H16        15.5680    4.1010   21.4220 H         1 <0>         0.0000
@<TRIPOS>BOND
     1    5   24 1
     2    5   15 ar
     3    6   15 ar
     4    1    5 ar
     5    6   25 1
     6    6    9 ar
     7    1   20 1
     8    1    7 ar
     9    7    9 ar
    10    9   16 1
    11   35   39 1
    12    7   13 1
    13   12   17 2
    14   35   40 1
    15   35   36 1
    16   34   35 1
    17   12   16 am
    18   16   31 1
    19   12   14 1
    20   13   28 1
    21   13   27 1
    22   13   26 1
    23   33   36 2
    24    3   22 1
    25   34   38 1
    26   11   19 1
    27    3   11 ar
    28    3    8 ar
    29   14   29 1
    30   32   36 am
    31    4   11 ar
    32   18   34 1
    33   32   34 1
    34    8   14 1
    35   14   30 1
    36    2    8 ar
    37    4   23 1
    38    4   10 ar
    39    2   10 ar
    40   10   18 1
    41    2   21 1
    42   32   37 1
@<TRIPOS>MOLECULE
*****
   40    42     0     0     0
SMALL
NO_CHARGES

@<TRIPOS>ATOM
      1 C1          3.8100    1.5320   18.4410 C.ar      1 <0>         0.0000
      2 C2         10.5300    1.6770   23.1150 C.ar      1 <0>         0.0000
      3 C3         10.7920   -0.4210   21.9820 C.ar      1 <0>         0.0000
      4 C4         12.7150    0.9400   22.5480 C.ar      1 <0>         0.0000
      5 C5          4.4930    1.4090   17.2750 C.ar      1 <0>         0.0000
      6 C6          6.4610    1.0290   18.4160 C.ar      1 <0>         0.0000
      7 C7          4.4330    1.3550   19.6790 C.ar      1 <0>         0.0000
      8 C8          9.8980    0.5810   22.4910 C.ar      1 <0>         0.0000
      9 C9          5.7570    1.0620   19.6830 C.ar      1 <0>         0.0000
     10 C10        11.8830    1.9370   23.1240 C.ar      1 <0>         0.0000
     11 C11        12.1960   -0.2900   22.0970 C.ar      1 <0>         0.0000
     12 C12         7.7320    1.0370   21.2230 C.2       1 <0>         0.0000
     13 C13         3.6440    1.6660   20.9530 C.3       1 <0>         0.0000
     14 C14         8.4000    0.3120   22.4240 C.3       1 <0>         0.0000
     15 N1          5.8520    1.1510   17.2350 N.ar      1 <0>         0.0000
     16 N2          6.4180    0.7280   20.8900 N.am      1 <0>         0.0000
     17 O1          8.2460    1.8760   20.5740 O.2       1 <0>         0.0000
     18 O2         12.4410    3.0740   23.6010 O.3       1 <0>         0.0000
     19 Cl1        13.2670   -1.5490   21.4920 Cl        1 <0>         0.0000
     20 H1          2.7730    1.8050   18.3070 H         1 <0>         0.0000
     21 H2          9.9010    2.3830   23.6460 H         1 <0>         0.0000
     22 H3         10.4550   -1.3670   21.5690 H         1 <0>         0.0000
     23 H4         13.7900    1.1100   22.4560 H         1 <0>         0.0000
     24 H5          3.9440    1.5590   16.3460 H         1 <0>         0.0000
     25 H6          7.5180    0.7880   18.5350 H         1 <0>         0.0000
     26 H7          3.4670    0.6280   21.2470 H         1 <0>         0.0000
     27 H8          4.2240    2.1090   21.7700 H         1 <0>         0.0000
     28 H9          2.6420    2.0890   20.8370 H         1 <0>         0.0000
     29 H10         8.0850   -0.7270   22.2670 H         1 <0>         0.0000
     30 H11         7.9160    0.7080   23.3160 H         1 <0>         0.0000
     31 H12         5.9580    0.3080   21.6960 H         1 <0>         0.0000
     32 C15        11.7380    4.3320   23.4690 C.3       1 <0>         0.0000
     33 C16        10.7130    4.5580   22.2200 C.3       1 <0>         0.0000
     34 C17        11.6950    5.6830   21.9960 C.2       1 <0>         0.0000
     35 H13        13.2370    5.9700   23.3950 H         1 <0>         0.0000
     36 H14        11.3880    4.7050   24.4250 H         1 <0>         0.0000
     37 H15        10.6300    3.8270   21.4120 H         1 <0>         0.0000
     38 H16         9.6850    4.7910   22.5280 H         1 <0>         0.0000
     39 N3         12.5900    5.3430   22.9160 N.am      1 <0>         0.0000
     40 O3         11.4710    6.7900   21.5810 O.2       1 <0>         0.0000
@<TRIPOS>BOND
     1    5   24 1
     2    5   15 ar
     3    6   15 ar
     4    1    5 ar
     5    1   20 1
     6    6   25 1
     7    6    9 ar
     8    1    7 ar
     9    7    9 ar
    10    7   13 1
    11    9   16 1
    12   12   17 2
    13   13   28 1
    14   12   16 am
    15   16   31 1
    16   13   26 1
    17   13   27 1
    18   12   14 1
    19   33   37 1
    20   11   19 1
    21    3   22 1
    22   34   40 2
    23    3   11 ar
    24    3    8 ar
    25   33   34 1
    26   34   39 am
    27    4   11 ar
    28   33   38 1
    29   32   33 1
    30   14   29 1
    31    8   14 1
    32   14   30 1
    33    4   23 1
    34    2    8 ar
    35    4   10 ar
    36   35   39 1
    37   32   39 1
    38    2   10 ar
    39    2   21 1
    40   10   18 1
    41   18   32 1
    42   32   36 1
@<TRIPOS>MOLECULE
*****
   40    42     0     0     0
SMALL
NO_CHARGES

@<TRIPOS>ATOM
      1 C1          4.9660    1.1100   20.0920 C.ar      1 <0>         0.0000
      2 C2         11.3830    1.1590   24.7540 C.ar      1 <0>         0.0000
      3 C3         11.4890   -1.2560   24.4650 C.ar      1 <0>         0.0000
      4 C4         13.5290    0.1080   24.7080 C.ar      1 <0>         0.0000
      5 C5          5.4900    0.3070   19.0970 C.ar      1 <0>         0.0000
      6 C6          7.0490   -0.6340   20.5170 C.ar      1 <0>         0.0000
      7 C7          5.4740    1.0290   21.3390 C.ar      1 <0>         0.0000
      8 C8         10.7070   -0.0550   24.5800 C.ar      1 <0>         0.0000
      9 C9          6.5440    0.1240   21.5790 C.ar      1 <0>         0.0000
     10 C10        12.7460    1.2680   24.8200 C.ar      1 <0>         0.0000
     11 C11        12.9250   -1.1620   24.4480 C.ar      1 <0>         0.0000
     12 C12         8.4840   -0.0710   23.1010 C.2       1 <0>         0.0000
     13 C13         4.9450    1.8770   22.5260 C.3       1 <0>         0.0000
     14 C14         9.1480   -0.1340   24.5640 C.3       1 <0>         0.0000
     15 N1          6.4640   -0.6450   19.2910 N.ar      1 <0>         0.0000
     16 N2          7.1150    0.1090   22.9270 N.am      1 <0>         0.0000
     17 O1          9.2970   -0.0120   22.1760 O.2       1 <0>         0.0000
     18 O2         13.3280    2.4750   25.0540 O.3       1 <0>         0.0000
     19 Cl1        13.9320   -2.4830   24.0650 Cl        1 <0>         0.0000
     20 H1          4.2040    1.8500   19.8550 H         1 <0>         0.0000
     21 H2         10.8460    2.0660   25.0000 H         1 <0>         0.0000
     22 H3         11.0400   -2.2430   24.4510 H         1 <0>         0.0000
     23 H4         14.6110    0.2040   24.6250 H         1 <0>         0.0000
     24 H5          4.9760    0.3680   18.1440 H         1 <0>         0.0000
     25 H6          7.9430   -1.2220   20.6610 H         1 <0>         0.0000
     26 H7          5.7430    2.5210   22.9180 H         1 <0>         0.0000
     27 H8          4.0810    2.4810   22.2240 H         1 <0>         0.0000
     28 H9          4.7620    1.2130   23.3810 H         1 <0>         0.0000
     29 H10         8.8810   -1.1280   24.9290 H         1 <0>         0.0000
     30 H11         8.7130    0.5970   25.2520 H         1 <0>         0.0000
     31 H12         6.4760    0.1320   23.7270 H         1 <0>         0.0000
     32 H13        15.0920    2.0580   26.1780 H         1 <0>         0.0000
     33 H14        13.9290    1.6410   28.1890 H         1 <0>         0.0000
     34 H15        12.3210    2.3670   27.4930 H         1 <0>         0.0000
     35 N3         14.3150    4.0540   26.6110 N.am      1 <0>         0.0000
     36 O3         13.8560    4.5180   28.7740 O.2       1 <0>         0.0000
     37 C15        14.1580    2.6280   26.2730 C.3       1 <0>         0.0000
     38 C16        13.4140    2.3940   27.5860 C.3       1 <0>         0.0000
     39 C17        13.7830    3.8370   27.7580 C.2       1 <0>         0.0000
     40 H16        15.1680    4.6080   26.6700 H         1 <0>         0.0000
@<TRIPOS>BOND
     1    5   24 1
     2    5   15 ar
     3    1    5 ar
     4    6   15 ar
     5    1   20 1
     6    1    7 ar
     7    6   25 1
     8    6    9 ar
     9    7    9 ar
    10    7   13 1
    11    9   16 1
    12   12   17 2
    13   13   27 1
    14   13   26 1
    15   13   28 1
    16   12   16 am
    17   16   31 1
    18   12   14 1
    19   11   19 1
    20    3   11 ar
    21    4   11 ar
    22    3   22 1
    23    3    8 ar
    24    8   14 1
    25   14   29 1
    26   14   30 1
    27    2    8 ar
    28    4   23 1
    29    4   10 ar
    30    2   10 ar
    31    2   21 1
    32   10   18 1
    33   18   37 1
    34   32   37 1
    35   35   37 1
    36   37   38 1
    37   35   40 1
    38   35   39 am
    39   34   38 1
    40   38   39 1
    41   33   38 1
    42   36   39 2
@<TRIPOS>MOLECULE
*****
   40    42     0     0     0
SMALL
NO_CHARGES

@<TRIPOS>ATOM
      1 C1          4.4440    1.9230   18.4560 C.ar      1 <0>         0.0000
      2 C2         10.6850    1.8880   23.0940 C.ar      1 <0>         0.0000
      3 C3         11.2360   -0.1960   22.1060 C.ar      1 <0>         0.0000
      4 C4         12.9830    1.3810   22.4240 C.ar      1 <0>         0.0000
      5 C5          5.0020    1.5600   17.1920 C.ar      1 <0>         0.0000
      6 C6          6.8100    0.6980   18.2880 C.ar      1 <0>         0.0000
      7 C7          4.9260    1.4830   19.6200 C.ar      1 <0>         0.0000
      8 C8         10.2260    0.7180   22.5640 C.ar      1 <0>         0.0000
      9 C9          6.2620    0.9260   19.5860 C.ar      1 <0>         0.0000
     10 C10        12.0830    2.2580   23.0290 C.ar      1 <0>         0.0000
     11 C11        12.5740    0.1300   21.9950 C.ar      1 <0>         0.0000
     12 C12         8.2590    0.8930   21.0780 C.2       1 <0>         0.0000
     13 C13         4.1990    1.7010   20.9130 C.3       1 <0>         0.0000
     14 C14         8.7460    0.4270   22.4480 C.3       1 <0>         0.0000
     15 N1          6.1900    1.0060   17.1430 N.ar      1 <0>         0.0000
     16 N2          6.9180    0.6820   20.8420 N.am      1 <0>         0.0000
     17 O1          8.8140    1.7070   20.3690 O.2       1 <0>         0.0000
     18 O2         12.5610    3.5260   23.5390 O.3       1 <0>         0.0000
     19 Cl1        13.6820   -1.0740   21.3480 Cl        1 <0>         0.0000
     20 H1          3.6260    2.6280   18.4490 H         1 <0>         0.0000
     21 H2         10.0730    2.6510   23.5680 H         1 <0>         0.0000
     22 H3         11.0050   -1.1970   21.7760 H         1 <0>         0.0000
     23 H4         13.9700    1.7790   22.2490 H         1 <0>         0.0000
     24 H5          4.4520    1.9620   16.3550 H         1 <0>         0.0000
     25 H6          7.7490    0.1540   18.2280 H         1 <0>         0.0000
     26 H7          3.3660    2.3830   20.7480 H         1 <0>         0.0000
     27 H8          3.7640    0.7390   21.1960 H         1 <0>         0.0000
     28 H9          4.8600    2.0860   21.6950 H         1 <0>         0.0000
     29 H10         8.6010   -0.6450   22.5890 H         1 <0>         0.0000
     30 H11         8.2760    0.9720   23.2730 H         1 <0>         0.0000
     31 H12         6.3280    0.2220   21.5270 H         1 <0>         0.0000
     32 H13        11.1660    5.0110   20.8950 H         1 <0>         0.0000
     33 H14        12.9170    4.6030   21.1110 H         1 <0>         0.0000
     34 N3         12.1680    5.9940   23.5380 N.am      1 <0>         0.0000
     35 O3         12.0880    7.4760   21.8450 O.2       1 <0>         0.0000
     36 C15        11.7730    4.6280   23.1080 C.3       1 <0>         0.0000
     37 C16        12.0210    5.0200   21.5850 C.3       1 <0>         0.0000
     38 C17        12.2860    6.3460   22.2550 C.2       1 <0>         0.0000
     39 H15        11.6660    6.5330   24.2500 H         1 <0>         0.0000
     40 H16        10.7400    4.2760   23.1610 H         1 <0>         0.0000
@<TRIPOS>BOND
     1    5   24 1
     2    5   15 ar
     3    6   15 ar
     4    1    5 ar
     5    6   25 1
     6    6    9 ar
     7    1   20 1
     8    1    7 ar
     9    7    9 ar
    10    9   16 1
    11    7   13 1
    12   12   17 2
    13   13   26 1
    14   12   16 am
    15   16   31 1
    16   32   37 1
    17   13   27 1
    18   13   28 1
    19   12   14 1
    20   33   37 1
    21   11   19 1
    22   37   38 1
    23   36   37 1
    24    3   22 1
    25   35   38 2
    26    3   11 ar
    27    4   11 ar
    28    3    8 ar
    29    4   23 1
    30   34   38 am
    31    4   10 ar
    32    8   14 1
    33   14   29 1
    34   14   30 1
    35    2    8 ar
    36    2   10 ar
    37   10   18 1
    38    2   21 1
    39   36   40 1
    40   34   36 1
    41   18   36 1
    42   34   39 1
@<TRIPOS>MOLECULE
*****
   40    42     0     0     0
SMALL
NO_CHARGES

@<TRIPOS>ATOM
      1 C1          5.1940    1.6980   19.0260 C.ar      1 <0>         0.0000
      2 C2         11.6850    2.0640   23.5690 C.ar      1 <0>         0.0000
      3 C3         11.9870   -0.1800   22.6790 C.ar      1 <0>         0.0000
      4 C4         13.9160    1.2200   23.0280 C.ar      1 <0>         0.0000
      5 C5          5.9350    1.3620   17.9140 C.ar      1 <0>         0.0000
      6 C6          7.7710    0.7070   19.0850 C.ar      1 <0>         0.0000
      7 C7          5.7890    1.4880   20.3200 C.ar      1 <0>         0.0000
      8 C8         11.1000    0.8400   23.1520 C.ar      1 <0>         0.0000
      9 C9          7.0900    0.9740   20.3580 C.ar      1 <0>         0.0000
     10 C10        13.0510    2.2440   23.5250 C.ar      1 <0>         0.0000
     11 C11        13.3690   -0.0360   22.6010 C.ar      1 <0>         0.0000
     12 C12         9.0210    1.1200   21.7800 C.2       1 <0>         0.0000
     13 C13         4.9310    1.8750   21.5500 C.3       1 <0>         0.0000
     14 C14         9.5870    0.6610   23.1310 C.3       1 <0>         0.0000
     15 N1          7.0980    0.8290   17.9400 N.ar      1 <0>         0.0000
     16 N2          7.7420    0.8950   21.6000 N.am      1 <0>         0.0000
     17 O1          9.7230    1.5150   20.8470 O.2       1 <0>         0.0000
     18 O2         13.6670    3.4170   23.8940 O.3       1 <0>         0.0000
     19 Cl1        14.4460   -1.2400   21.9650 Cl        1 <0>         0.0000
     20 H1          4.2170    2.1520   18.8990 H         1 <0>         0.0000
     21 H2         10.9750    2.7980   23.9300 H         1 <0>         0.0000
     22 H3         11.5290   -1.0710   22.2570 H         1 <0>         0.0000
     23 H4         15.0050    1.3050   23.0180 H         1 <0>         0.0000
     24 H5          5.4420    1.4050   16.9550 H         1 <0>         0.0000
     25 H6          8.7630    0.2670   19.1060 H         1 <0>         0.0000
     26 H7          5.2520    2.8660   21.8880 H         1 <0>         0.0000
     27 H8          3.8400    1.8480   21.4200 H         1 <0>         0.0000
     28 H9          5.2130    1.2800   22.4280 H         1 <0>         0.0000
     29 H10         9.3660   -0.4110   23.1580 H         1 <0>         0.0000
     30 H11         9.0650    1.1580   23.9520 H         1 <0>         0.0000
     31 H12         7.2310    0.8210   22.4780 H         1 <0>         0.0000
     32 H13        13.9990    6.3140   24.8770 H         1 <0>         0.0000
     33 H14        12.3240    4.7520   24.8620 H         1 <0>         0.0000
     34 H15        12.3820    4.6070   21.8640 H         1 <0>         0.0000
     35 H16        11.1100    5.4740   22.9070 H         1 <0>         0.0000
     36 N3         13.7730    5.8560   23.9920 N.am      1 <0>         0.0000
     37 O3         12.7780    7.6610   23.0260 O.2       1 <0>         0.0000
     38 C15        12.9590    4.6890   23.9710 C.3       1 <0>         0.0000
     39 C16        12.1700    5.2060   22.7550 C.3       1 <0>         0.0000
     40 C17        13.0550    6.4410   23.0350 C.2       1 <0>         0.0000
@<TRIPOS>BOND
     1    5   24 1
     2    5   15 ar
     3    1    5 ar
     4    6   15 ar
     5    1   20 1
     6    1    7 ar
     7    6   25 1
     8    6    9 ar
     9    7    9 ar
    10    7   13 1
    11    9   16 1
    12   12   17 2
    13   13   27 1
    14   13   26 1
    15   13   28 1
    16   12   16 am
    17   16   31 1
    18   12   14 1
    19   34   39 1
    20   11   19 1
    21    3   22 1
    22    3   11 ar
    23    4   11 ar
    24    3    8 ar
    25   35   39 1
    26   39   40 1
    27   38   39 1
    28    4   23 1
    29   37   40 2
    30    4   10 ar
    31   36   40 am
    32    8   14 1
    33   14   29 1
    34   14   30 1
    35    2    8 ar
    36    2   10 ar
    37   10   18 1
    38    2   21 1
    39   18   38 1
    40   36   38 1
    41   33   38 1
    42   32   36 1
@<TRIPOS>MOLECULE
*****
   40    42     0     0     0
SMALL
NO_CHARGES

@<TRIPOS>ATOM
      1 C1          4.7220    1.4920   19.3080 C.ar      1 <0>         0.0000
      2 C2         11.4040    1.1820   23.6150 C.ar      1 <0>         0.0000
      3 C3         11.8830   -0.7290   22.1420 C.ar      1 <0>         0.0000
      4 C4         13.6550    0.5880   22.9360 C.ar      1 <0>         0.0000
      5 C5          5.2660    1.1860   18.0750 C.ar      1 <0>         0.0000
      6 C6          7.2170    0.4290   19.0670 C.ar      1 <0>         0.0000
      7 C7          5.3900    1.2150   20.4560 C.ar      1 <0>         0.0000
      8 C8         10.9560    0.0230   22.8620 C.ar      1 <0>         0.0000
      9 C9          6.6390    0.5780   20.3290 C.ar      1 <0>         0.0000
     10 C10        12.7620    1.4070   23.6910 C.ar      1 <0>         0.0000
     11 C11        13.1990   -0.4310   22.1270 C.ar      1 <0>         0.0000
     12 C12         8.6970    0.4650   21.6840 C.2       1 <0>         0.0000
     13 C13         4.8420    1.5360   21.7490 C.3       1 <0>         0.0000
     14 C14         9.4390   -0.2400   22.8500 C.3       1 <0>         0.0000
     15 N1          6.5150    0.6740   17.9340 N.ar      1 <0>         0.0000
     16 N2          7.3650    0.2260   21.4810 N.am      1 <0>         0.0000
     17 O1          9.2290    1.4590   21.2060 O.2       1 <0>         0.0000
     18 O2         13.3150    2.5060   24.3320 O.3       1 <0>         0.0000
     19 Cl1        14.3080   -1.5890   21.5050 Cl        1 <0>         0.0000
     20 H1          3.7440    1.9490   19.3580 H         1 <0>         0.0000
     21 H2         10.8170    1.9050   24.1640 H         1 <0>         0.0000
     22 H3         11.6130   -1.5800   21.5330 H         1 <0>         0.0000
     23 H4         14.7130    0.7970   22.9180 H         1 <0>         0.0000
     24 H5          4.6450    1.2070   17.1890 H         1 <0>         0.0000
     25 H6          8.2350    0.0390   19.0210 H         1 <0>         0.0000
     26 H7          5.4070    2.2050   22.3970 H         1 <0>         0.0000
     27 H8          3.8020    1.8870   21.6900 H         1 <0>         0.0000
     28 H9          4.9020    0.7020   22.4500 H         1 <0>         0.0000
     29 H10         9.2500   -1.3130   22.7320 H         1 <0>         0.0000
     30 H11         9.1020    0.2340   23.7790 H         1 <0>         0.0000
     31 H12         7.0260   -0.4030   22.2040 H         1 <0>         0.0000
     32 H13        12.7650    4.2460   22.3300 H         1 <0>         0.0000
     33 H14        11.2710    4.8430   23.2270 H         1 <0>         0.0000
     34 N3         13.5560    4.8320   24.9350 N.am      1 <0>         0.0000
     35 O3         12.8660    6.8710   24.2080 O.2       1 <0>         0.0000
     36 C15        12.6800    3.7360   24.4780 C.3       1 <0>         0.0000
     37 C16        12.3520    4.6620   23.2570 C.3       1 <0>         0.0000
     38 C17        13.1860    5.6590   24.0450 C.2       1 <0>         0.0000
     39 H15        13.4920    5.3110   25.8310 H         1 <0>         0.0000
     40 H16        11.8360    3.5560   25.1450 H         1 <0>         0.0000
@<TRIPOS>BOND
     1    5   24 1
     2    5   15 ar
     3    6   15 ar
     4    1    5 ar
     5    6   25 1
     6    6    9 ar
     7    1   20 1
     8    1    7 ar
     9    7    9 ar
    10    9   16 1
    11    7   13 1
    12   12   17 2
    13   12   16 am
    14   16   31 1
    15   11   19 1
    16    3   22 1
    17   12   14 1
    18   13   27 1
    19   13   26 1
    20   13   28 1
    21    3   11 ar
    22    4   11 ar
    23    3    8 ar
    24   32   37 1
    25   14   29 1
    26    8   14 1
    27   14   30 1
    28    2    8 ar
    29    4   23 1
    30    4   10 ar
    31   33   37 1
    32   37   38 1
    33   36   37 1
    34    2   10 ar
    35    2   21 1
    36   10   18 1
    37   35   38 2
    38   34   38 am
    39   18   36 1
    40   34   36 1
    41   36   40 1
    42   34   39 1
@<TRIPOS>MOLECULE
*****
   40    42     0     0     0
SMALL
NO_CHARGES

@<TRIPOS>ATOM
      1 C1          5.6330    1.1200   20.2090 C.ar      1 <0>         0.0000
      2 C2         12.6950    1.0610   23.6810 C.ar      1 <0>         0.0000
      3 C3         12.7330   -1.1380   22.6200 C.ar      1 <0>         0.0000
      4 C4         14.6470    0.2550   22.6160 C.ar      1 <0>         0.0000
      5 C5          6.1590    0.6770   18.9670 C.ar      1 <0>         0.0000
      6 C6          7.9330   -0.1490   19.9910 C.ar      1 <0>         0.0000
      7 C7          6.2610    0.7400   21.4060 C.ar      1 <0>         0.0000
      8 C8         12.0040   -0.1690   23.3910 C.ar      1 <0>         0.0000
      9 C9          7.5250    0.1660   21.2900 C.ar      1 <0>         0.0000
     10 C10        13.9990    1.2540   23.2470 C.ar      1 <0>         0.0000
     11 C11        14.0290   -0.9660   22.2830 C.ar      1 <0>         0.0000
     12 C12         9.6430    0.1820   22.5690 C.2       1 <0>         0.0000
     13 C13         5.5510    1.0240   22.7090 C.3       1 <0>         0.0000
     14 C14        10.5100   -0.3850   23.7480 C.3       1 <0>         0.0000
     15 N1          7.2980    0.0220   18.8730 N.ar      1 <0>         0.0000
     16 N2          8.3170   -0.1710   22.4530 N.am      1 <0>         0.0000
     17 O1         10.1190    1.0300   21.7880 O.2       1 <0>         0.0000
     18 O2         14.7570    2.3920   23.4040 O.3       1 <0>         0.0000
     19 Cl1        14.8080   -2.2550   21.5120 Cl        1 <0>         0.0000
     20 H1          4.5960    1.4590   20.1920 H         1 <0>         0.0000
     21 H2         12.1780    1.8360   24.2350 H         1 <0>         0.0000
     22 H3         12.1290   -2.0000   22.3310 H         1 <0>         0.0000
     23 H4         15.5530    0.5100   22.0910 H         1 <0>         0.0000
     24 H5          5.5120    0.8140   18.1110 H         1 <0>         0.0000
     25 H6          8.9200   -0.6010   19.8770 H         1 <0>         0.0000
     26 H7          5.9550    0.4060   23.5250 H         1 <0>         0.0000
     27 H8          5.7540    2.0860   22.8890 H         1 <0>         0.0000
     28 H9          4.4740    0.9560   22.5770 H         1 <0>         0.0000
     29 H10        10.3020   -1.4290   23.9960 H         1 <0>         0.0000
     30 H11        10.2780    0.2490   24.6080 H         1 <0>         0.0000
     31 H12         7.8230   -0.5670   23.2530 H         1 <0>         0.0000
     32 C15        14.1740    3.5660   23.9400 C.3       1 <0>         0.0000
     33 C16        13.0110    4.2480   22.9820 C.3       1 <0>         0.0000
     34 C17        14.0580    5.3180   22.9850 C.2       1 <0>         0.0000
     35 H13        15.4770    5.3930   24.2740 H         1 <0>         0.0000
     36 H14        13.8840    3.4560   24.9860 H         1 <0>         0.0000
     37 H15        12.7360    3.7810   22.0350 H         1 <0>         0.0000
     38 H16        12.1210    4.5170   23.5720 H         1 <0>         0.0000
     39 N3         15.0750    4.6950   23.6330 N.am      1 <0>         0.0000
     40 O3         13.8320    6.4960   22.7330 O.2       1 <0>         0.0000
@<TRIPOS>BOND
     1    5   24 1
     2    5   15 ar
     3    6   15 ar
     4    1    5 ar
     5    6   25 1
     6    6    9 ar
     7    1   20 1
     8    1    7 ar
     9    7    9 ar
    10    9   16 1
    11    7   13 1
    12   11   19 1
    13   12   17 2
    14   33   37 1
    15    4   23 1
    16    4   11 ar
    17    3   11 ar
    18    3   22 1
    19   12   16 am
    20   16   31 1
    21   12   14 1
    22   13   28 1
    23    4   10 ar
    24    3    8 ar
    25   13   27 1
    26   13   26 1
    27   34   40 2
    28   33   34 1
    29   33   38 1
    30   32   33 1
    31   34   39 am
    32   10   18 1
    33    2   10 ar
    34    2    8 ar
    35    8   14 1
    36   18   32 1
    37   32   39 1
    38   35   39 1
    39    2   21 1
    40   14   29 1
    41   14   30 1
    42   32   36 1
@<TRIPOS>MOLECULE
*****
   42    44     0     0     0
SMALL
NO_CHARGES

@<TRIPOS>ATOM
      1 C1          4.3960    0.0350   20.5650 C.ar      1 <0>         0.0000
      2 C2         12.0660    1.2850   22.6340 C.ar      1 <0>         0.0000
      3 C3         11.9670   -1.1220   22.6230 C.ar      1 <0>         0.0000
      4 C4         14.0530   -0.0320   22.1030 C.ar      1 <0>         0.0000
      5 C5          4.7550    0.1560   19.2700 C.ar      1 <0>         0.0000
      6 C6          7.0140    0.2180   19.7740 C.ar      1 <0>         0.0000
      7 C7          5.4050    0.1040   21.5570 C.ar      1 <0>         0.0000
      8 C8         11.3910    0.1290   22.8360 C.ar      1 <0>         0.0000
      9 C9          6.7220    0.0330   21.1580 C.ar      1 <0>         0.0000
     10 C10        13.4510    1.2580   22.2650 C.ar      1 <0>         0.0000
     11 C11        13.3130   -1.1730   22.1850 C.ar      1 <0>         0.0000
     12 C12         8.9750    0.5310   22.2520 C.2       1 <0>         0.0000
     13 C13         4.9880    0.0840   22.9670 C.3       1 <0>         0.0000
     14 C14         9.9570    0.1780   23.3090 C.3       1 <0>         0.0000
     15 N1          6.0600    0.2680   18.8540 N.ar      1 <0>         0.0000
     16 N2          7.7260   -0.1070   22.1870 N.am      1 <0>         0.0000
     17 O1          9.2060    1.3610   21.3810 O.2       1 <0>         0.0000
     18 O2         14.2740    2.3870   22.0530 O.3       1 <0>         0.0000
     19 Cl1        14.1360   -2.6750   21.8090 Cl        1 <0>         0.0000
     20 H1          3.3520    0.1050   20.8400 H         1 <0>         0.0000
     21 H2         11.5920    2.2300   22.8500 H         1 <0>         0.0000
     22 H3         11.4200   -2.0180   22.8820 H         1 <0>         0.0000
     23 H4         15.1060    0.0220   21.8340 H         1 <0>         0.0000
     24 H5          3.9620    0.2690   18.5450 H         1 <0>         0.0000
     25 H6          8.0130    0.2210   19.3430 H         1 <0>         0.0000
     26 H7          3.9010    0.1770   23.1000 H         1 <0>         0.0000
     27 H8          5.4030   -0.8390   23.3490 H         1 <0>         0.0000
     28 H9          5.5060    0.9620   23.3700 H         1 <0>         0.0000
     29 H10         9.6060   -0.7680   23.7350 H         1 <0>         0.0000
     30 H11         9.8630    0.9060   24.1150 H         1 <0>         0.0000
     31 H12         7.5130   -0.7790   22.9270 H         1 <0>         0.0000
     32 H13        13.5450    3.1160   23.7670 H         1 <0>         0.0000
     33 H14        12.3430    4.9530   22.6920 H         1 <0>         0.0000
     34 H15        13.0510    4.7520   21.1350 H         1 <0>         0.0000
     35 N3         15.1050    4.3480   23.1940 N.3       1 <0>         0.0000
     36 O3         14.4010    6.4700   23.4750 O.3       1 <0>         0.0000
     37 C15        13.9740    3.5220   22.8460 C.3       1 <0>         0.0000
     38 C16        13.2820    4.7010   22.2050 C.3       1 <0>         0.0000
     39 C17        14.4540    5.4850   22.8140 C.3       1 <0>         0.0000
     40 H16        15.3960    4.3070   24.1700 H         1 <0>         0.0000
     41 H          14.4010    6.4700   23.4750 H         1 <0>         0.0000
     42 H          14.4540    5.4850   22.8140 H         1 <0>         0.0000
@<TRIPOS>BOND
     1    5   24 1
     2    5   15 ar
     3    6   15 ar
     4    1    5 ar
     5    6   25 1
     6    6    9 ar
     7    1   20 1
     8    1    7 ar
     9   34   38 1
    10    7    9 ar
    11    9   16 1
    12   12   17 2
    13    7   13 1
    14   11   19 1
    15    4   23 1
    16   10   18 1
    17   18   37 1
    18    4   11 ar
    19    4   10 ar
    20    3   11 ar
    21   12   16 am
    22   16   31 1
    23   33   38 1
    24   38   39 1
    25   37   38 1
    26   12   14 1
    27    2   10 ar
    28    3    8 ar
    29    3   22 1
    30    2    8 ar
    31    2   21 1
    32   35   39 1
    33   36   39 1
    34    8   14 1
    35   35   37 1
    36   32   37 1
    37   13   26 1
    38   13   27 1
    39   13   28 1
    40   35   40 1
    41   14   29 1
    42   14   30 1
    43   36   41 1
    44   39   42 1
@<TRIPOS>MOLECULE
*****
   40    42     0     0     0
SMALL
NO_CHARGES

@<TRIPOS>ATOM
      1 C1          4.7230    0.7670   20.0000 C.ar      1 <0>         0.0000
      2 C2         11.3910    0.4420   23.5710 C.ar      1 <0>         0.0000
      3 C3         12.2270   -1.7710   23.1410 C.ar      1 <0>         0.0000
      4 C4         13.6960    0.0060   23.7430 C.ar      1 <0>         0.0000
      5 C5          5.2120    0.8520   18.7140 C.ar      1 <0>         0.0000
      6 C6          7.1700   -0.2650   19.2970 C.ar      1 <0>         0.0000
      7 C7          5.4740    0.0560   21.0290 C.ar      1 <0>         0.0000
      8 C8         11.1140   -0.8530   23.1490 C.ar      1 <0>         0.0000
      9 C9          6.7240   -0.4700   20.6240 C.ar      1 <0>         0.0000
     10 C10        12.6690    0.8800   23.9340 C.ar      1 <0>         0.0000
     11 C11        13.4930   -1.3130   23.4480 C.ar      1 <0>         0.0000
     12 C12         8.9220   -0.6480   21.7340 C.2       1 <0>         0.0000
     13 C13         4.8710   -0.1770   22.4420 C.3       1 <0>         0.0000
     14 C14         9.7270   -1.3340   22.9030 C.3       1 <0>         0.0000
     15 N1          6.3950    0.3310   18.3340 N.ar      1 <0>         0.0000
     16 N2          7.5670   -0.8480   21.6170 N.am      1 <0>         0.0000
     17 O1          9.5470   -0.1110   20.8600 O.2       1 <0>         0.0000
     18 O2         12.9600    2.1930   24.2110 O.3       1 <0>         0.0000
     19 Cl1        14.8830   -2.4560   23.3450 Cl        1 <0>         0.0000
     20 H1          3.7510    1.1850   20.2290 H         1 <0>         0.0000
     21 H2         10.5770    1.1630   23.6110 H         1 <0>         0.0000
     22 H3         12.0760   -2.8290   22.9690 H         1 <0>         0.0000
     23 H4         14.7170    0.3790   23.8510 H         1 <0>         0.0000
     24 H5          4.6470    1.3620   17.9430 H         1 <0>         0.0000
     25 H6          8.1480   -0.5800   18.9520 H         1 <0>         0.0000
     26 H7          5.4950    0.1560   23.2790 H         1 <0>         0.0000
     27 H8          3.8900    0.3110   22.5210 H         1 <0>         0.0000
     28 H9          4.6880   -1.2460   22.5430 H         1 <0>         0.0000
     29 H10         9.8390   -2.3870   22.6100 H         1 <0>         0.0000
     30 H11         9.1960   -1.1700   23.8390 H         1 <0>         0.0000
     31 H12         7.1670   -1.2180   22.4800 H         1 <0>         0.0000
     32 H13        15.3110    2.2880   22.8810 H         1 <0>         0.0000
     33 H14        14.7090    3.1650   21.4110 H         1 <0>         0.0000
     34 N3         13.4750    4.4970   23.5690 N.am      1 <0>         0.0000
     35 O3         15.6160    4.9920   23.6580 O.2       1 <0>         0.0000
     36 C15        13.2510    3.1110   23.1410 C.3       1 <0>         0.0000
     37 C16        14.6840    3.1080   22.5120 C.3       1 <0>         0.0000
     38 C17        14.6890    4.4360   23.1250 C.2       1 <0>         0.0000
     39 H15        13.2260    4.7630   24.5140 H         1 <0>         0.0000
     40 H16        12.4720    2.9750   22.3910 H         1 <0>         0.0000
@<TRIPOS>BOND
     1    5   24 1
     2    5   15 ar
     3    6   15 ar
     4    1    5 ar
     5    6   25 1
     6    6    9 ar
     7    1   20 1
     8    1    7 ar
     9    7    9 ar
    10    9   16 1
    11   12   17 2
    12    7   13 1
    13   33   37 1
    14   12   16 am
    15   16   31 1
    16   12   14 1
    17   36   40 1
    18   13   27 1
    19   13   28 1
    20   13   26 1
    21   32   37 1
    22   37   38 1
    23   36   37 1
    24   14   29 1
    25    8   14 1
    26   14   30 1
    27    3   22 1
    28   34   38 am
    29   35   38 2
    30    3    8 ar
    31    3   11 ar
    32   34   36 1
    33   18   36 1
    34    2    8 ar
    35   11   19 1
    36    4   11 ar
    37   34   39 1
    38    2   21 1
    39    2   10 ar
    40    4   23 1
    41    4   10 ar
    42   10   18 1
@<TRIPOS>MOLECULE
*****
   40    42     0     0     0
SMALL
NO_CHARGES

@<TRIPOS>ATOM
      1 C1          4.9370    0.4750   20.2010 C.ar      1 <0>         0.0000
      2 C2         12.0150    0.7130   23.4930 C.ar      1 <0>         0.0000
      3 C3         12.6270   -1.1480   22.1770 C.ar      1 <0>         0.0000
      4 C4         14.2880    0.4490   22.8280 C.ar      1 <0>         0.0000
      5 C5          5.4880    0.7110   18.9170 C.ar      1 <0>         0.0000
      6 C6          7.5980    0.1130   19.4520 C.ar      1 <0>         0.0000
      7 C7          5.8530    0.0530   21.1710 C.ar      1 <0>         0.0000
      8 C8         11.6140   -0.4850   22.9110 C.ar      1 <0>         0.0000
      9 C9          7.1470   -0.1590   20.7770 C.ar      1 <0>         0.0000
     10 C10        13.3610    1.1850   23.5110 C.ar      1 <0>         0.0000
     11 C11        13.9660   -0.6750   22.1840 C.ar      1 <0>         0.0000
     12 C12         9.3680   -0.3400   21.7490 C.2       1 <0>         0.0000
     13 C13         5.3120   -0.0670   22.5380 C.3       1 <0>         0.0000
     14 C14        10.1690   -0.9700   22.9180 C.3       1 <0>         0.0000
     15 N1          6.7280    0.5730   18.5940 N.ar      1 <0>         0.0000
     16 N2          7.9870   -0.5750   21.7490 N.am      1 <0>         0.0000
     17 O1          9.8870    0.4340   21.0420 O.2       1 <0>         0.0000
     18 O2         13.7770    2.2960   24.1670 O.3       1 <0>         0.0000
     19 Cl1        15.1290   -1.6430   21.3250 Cl        1 <0>         0.0000
     20 H1          3.8870    0.6290   20.4390 H         1 <0>         0.0000
     21 H2         11.2420    1.2960   23.9830 H         1 <0>         0.0000
     22 H3         12.4170   -2.0670   21.6460 H         1 <0>         0.0000
     23 H4         15.3040    0.8200   22.6940 H         1 <0>         0.0000
     24 H5          4.8790    1.0260   18.0820 H         1 <0>         0.0000
     25 H6          8.6400    0.0350   19.1610 H         1 <0>         0.0000
     26 H7          4.4720    0.6180   22.7140 H         1 <0>         0.0000
     27 H8          5.0550   -1.1160   22.6630 H         1 <0>         0.0000
     28 H9          6.0620    0.1250   23.3110 H         1 <0>         0.0000
     29 H10        10.1610   -2.0580   22.8180 H         1 <0>         0.0000
     30 H11         9.6650   -0.6350   23.8340 H         1 <0>         0.0000
     31 H12         7.7020   -1.2410   22.4590 H         1 <0>         0.0000
     32 H13        12.2860    3.4110   23.2120 H         1 <0>         0.0000
     33 H14        13.8950    4.8150   21.9100 H         1 <0>         0.0000
     34 H15        15.1490    3.6590   22.6100 H         1 <0>         0.0000
     35 N3         13.3810    4.6220   24.6910 N.am      1 <0>         0.0000
     36 O3         15.2970    5.7710   24.4390 O.2       1 <0>         0.0000
     37 C15        13.2600    3.5250   23.6860 C.3       1 <0>         0.0000
     38 C16        14.2940    4.3100   22.7870 C.3       1 <0>         0.0000
     39 C17        14.3450    5.1770   23.9900 C.2       1 <0>         0.0000
     40 H16        13.5150    4.5220   25.7010 H         1 <0>         0.0000
@<TRIPOS>BOND
     1    5   24 1
     2    5   15 ar
     3    6   15 ar
     4    1    5 ar
     5    6   25 1
     6    6    9 ar
     7    1   20 1
     8    1    7 ar
     9    7    9 ar
    10    9   16 1
    11   12   17 2
    12    7   13 1
    13   11   19 1
    14    3   22 1
    15   12   16 am
    16   12   14 1
    17   16   31 1
    18   33   38 1
    19    3   11 ar
    20    3    8 ar
    21    4   11 ar
    22   13   27 1
    23   13   26 1
    24   13   28 1
    25   34   38 1
    26    4   23 1
    27   37   38 1
    28   38   39 1
    29   14   29 1
    30    4   10 ar
    31    8   14 1
    32    2    8 ar
    33   14   30 1
    34   32   37 1
    35    2   10 ar
    36    2   21 1
    37   10   18 1
    38   18   37 1
    39   35   37 1
    40   36   39 2
    41   35   39 am
    42   35   40 1
@<TRIPOS>MOLECULE
*****
   40    42     0     0     0
SMALL
NO_CHARGES

@<TRIPOS>ATOM
      1 C1          5.9450    1.4360   19.2100 C.ar      1 <0>         0.0000
      2 C2         12.3280    1.6320   23.7760 C.ar      1 <0>         0.0000
      3 C3         12.3950   -0.6960   23.4320 C.ar      1 <0>         0.0000
      4 C4         14.4330    0.6090   23.2460 C.ar      1 <0>         0.0000
      5 C5          6.5340    0.7000   18.1430 C.ar      1 <0>         0.0000
      6 C6          8.1700   -0.0880   19.6280 C.ar      1 <0>         0.0000
      7 C7          6.4610    1.4070   20.4810 C.ar      1 <0>         0.0000
      8 C8         11.6170    0.4200   23.6420 C.ar      1 <0>         0.0000
      9 C9          7.6090    0.6700   20.7390 C.ar      1 <0>         0.0000
     10 C10        13.7280    1.7510   23.4360 C.ar      1 <0>         0.0000
     11 C11        13.7810   -0.6220   23.1850 C.ar      1 <0>         0.0000
     12 C12         9.4730    0.6600   22.2150 C.2       1 <0>         0.0000
     13 C13         5.7600    2.1950   21.5990 C.3       1 <0>         0.0000
     14 C14        10.0830    0.3480   23.5810 C.3       1 <0>         0.0000
     15 N1          7.6640   -0.0880   18.3610 N.ar      1 <0>         0.0000
     16 N2          8.1600    0.6700   22.0140 N.am      1 <0>         0.0000
     17 O1         10.2460    1.0270   21.3590 O.2       1 <0>         0.0000
     18 O2         14.3630    2.9540   23.2660 O.3       1 <0>         0.0000
     19 Cl1        14.5940   -2.0070   22.5440 Cl        1 <0>         0.0000
     20 H1          5.0860    2.0710   19.0320 H         1 <0>         0.0000
     21 H2         11.6850    2.5040   23.8300 H         1 <0>         0.0000
     22 H3         11.8970   -1.6540   23.2660 H         1 <0>         0.0000
     23 H4         15.5140    0.6420   23.1240 H         1 <0>         0.0000
     24 H5          6.0850    0.7020   17.1490 H         1 <0>         0.0000
     25 H6          9.1090   -0.6170   19.7520 H         1 <0>         0.0000
     26 H7          6.4570    2.9450   21.9710 H         1 <0>         0.0000
     27 H8          4.8050    2.6150   21.2570 H         1 <0>         0.0000
     28 H9          5.4420    1.5210   22.3960 H         1 <0>         0.0000
     29 H10         9.8670   -0.7030   23.7650 H         1 <0>         0.0000
     30 H11         9.6810    1.0640   24.3020 H         1 <0>         0.0000
     31 H12         7.5080    0.4450   22.7710 H         1 <0>         0.0000
     32 H13        13.1110    4.0410   24.5400 H         1 <0>         0.0000
     33 H14        11.9700    5.2820   22.8940 H         1 <0>         0.0000
     34 H15        12.9560    4.4900   21.5810 H         1 <0>         0.0000
     35 N3         14.7510    5.2210   23.7290 N.am      1 <0>         0.0000
     36 O3         13.9130    7.2110   22.9350 O.2       1 <0>         0.0000
     37 C15        13.7610    4.1770   23.6710 C.3       1 <0>         0.0000
     38 C16        12.9610    4.9100   22.5970 C.3       1 <0>         0.0000
     39 C17        13.9970    5.9610   22.9190 C.2       1 <0>         0.0000
     40 H16        15.0360    5.7240   24.5690 H         1 <0>         0.0000
@<TRIPOS>BOND
     1    5   24 1
     2    5   15 ar
     3    1    5 ar
     4    6   15 ar
     5    1   20 1
     6    1    7 ar
     7    6   25 1
     8    6    9 ar
     9    7    9 ar
    10    7   13 1
    11    9   16 1
    12   13   27 1
    13   12   17 2
    14   34   38 1
    15   13   26 1
    16   13   28 1
    17   12   16 am
    18   16   31 1
    19   12   14 1
    20   11   19 1
    21   33   38 1
    22   38   39 1
    23   37   38 1
    24   36   39 2
    25   35   39 am
    26    4   23 1
    27    4   11 ar
    28    3   11 ar
    29    4   10 ar
    30   10   18 1
    31   18   37 1
    32    3   22 1
    33    3    8 ar
    34    2   10 ar
    35    8   14 1
    36   14   29 1
    37   14   30 1
    38    2    8 ar
    39   35   37 1
    40   32   37 1
    41   35   40 1
    42    2   21 1
@<TRIPOS>MOLECULE
*****
   40    42     0     0     0
SMALL
NO_CHARGES

@<TRIPOS>ATOM
      1 C1          4.7180    1.1430   19.7140 C.ar      1 <0>         0.0000
      2 C2         11.1140    0.7500   24.1790 C.ar      1 <0>         0.0000
      3 C3         11.5880   -1.3020   23.1920 C.ar      1 <0>         0.0000
      4 C4         13.4510    0.1480   23.7420 C.ar      1 <0>         0.0000
      5 C5          5.3680    0.7910   18.4410 C.ar      1 <0>         0.0000
      6 C6          7.0940   -0.1650   19.6880 C.ar      1 <0>         0.0000
      7 C7          5.2990    0.8980   20.8850 C.ar      1 <0>         0.0000
      8 C8         10.6680   -0.4630   23.7870 C.ar      1 <0>         0.0000
      9 C9          6.6020    0.3110   20.9410 C.ar      1 <0>         0.0000
     10 C10        12.5000    1.0480   24.1750 C.ar      1 <0>         0.0000
     11 C11        13.0020   -1.0700   23.2320 C.ar      1 <0>         0.0000
     12 C12         8.6700   -0.1770   22.2500 C.2       1 <0>         0.0000
     13 C13         4.5300    1.2640   22.1250 C.3       1 <0>         0.0000
     14 C14         9.1380   -0.7150   23.5840 C.3       1 <0>         0.0000
     15 N1          6.4230   -0.0480   18.4960 N.ar      1 <0>         0.0000
     16 N2          7.2860    0.0860   22.1160 N.am      1 <0>         0.0000
     17 O1          9.4960    0.1370   21.3740 O.2       1 <0>         0.0000
     18 O2         12.9330    2.2230   24.7060 O.3       1 <0>         0.0000
     19 Cl1        14.2210   -2.1090   22.7970 Cl        1 <0>         0.0000
     20 H1          3.6830    1.4380   19.5790 H         1 <0>         0.0000
     21 H2         10.3630    1.4350   24.5610 H         1 <0>         0.0000
     22 H3         11.1850   -2.2070   22.7600 H         1 <0>         0.0000
     23 H4         14.4980    0.4290   23.7020 H         1 <0>         0.0000
     24 H5          4.9360    0.9920   17.4690 H         1 <0>         0.0000
     25 H6          7.9750   -0.8040   19.6670 H         1 <0>         0.0000
     26 H7          3.5650    1.6810   21.8240 H         1 <0>         0.0000
     27 H8          4.3150    0.3800   22.7370 H         1 <0>         0.0000
     28 H9          5.0120    2.0370   22.7260 H         1 <0>         0.0000
     29 H10         8.9060   -1.7710   23.7210 H         1 <0>         0.0000
     30 H11         8.6860   -0.1660   24.4150 H         1 <0>         0.0000
     31 H12         6.6930    0.0910   22.9470 H         1 <0>         0.0000
     32 N3         12.9350    4.6660   24.8320 N.am      1 <0>         0.0000
     33 O3         13.3790    5.7730   22.9260 O.2       1 <0>         0.0000
     34 C15        12.1390    3.4540   24.5860 C.3       1 <0>         0.0000
     35 C16        11.8380    3.9810   23.1020 C.3       1 <0>         0.0000
     36 C17        12.6360    5.0920   23.5940 C.2       1 <0>         0.0000
     37 H13        13.9180    4.6670   25.0920 H         1 <0>         0.0000
     38 H14        11.2240    3.3660   25.1820 H         1 <0>         0.0000
     39 H15        12.2050    3.3710   22.2720 H         1 <0>         0.0000
     40 H16        10.8320    4.3890   22.9510 H         1 <0>         0.0000
@<TRIPOS>BOND
     1    5   24 1
     2    5   15 ar
     3    1    5 ar
     4    6   15 ar
     5    1   20 1
     6    6   25 1
     7    6    9 ar
     8    1    7 ar
     9    7    9 ar
    10    7   13 1
    11    9   16 1
    12   12   17 2
    13   13   26 1
    14   12   16 am
    15   16   31 1
    16   13   28 1
    17   13   27 1
    18   12   14 1
    19   35   39 1
    20    3   22 1
    21   11   19 1
    22   33   36 2
    23   35   40 1
    24   35   36 1
    25   34   35 1
    26    3   11 ar
    27    3    8 ar
    28    4   11 ar
    29   14   29 1
    30    8   14 1
    31   14   30 1
    32   32   36 am
    33    4   23 1
    34    4   10 ar
    35    2    8 ar
    36    2   10 ar
    37   10   18 1
    38    2   21 1
    39   18   34 1
    40   32   34 1
    41   34   38 1
    42   32   37 1
@<TRIPOS>MOLECULE
*****
   40    42     0     0     0
SMALL
NO_CHARGES

@<TRIPOS>ATOM
      1 C1          4.0810    1.4450   18.4350 C.ar      1 <0>         0.0000
      2 C2         10.4450    1.7600   22.9170 C.ar      1 <0>         0.0000
      3 C3         10.7120   -0.5960   22.5190 C.ar      1 <0>         0.0000
      4 C4         12.6460    0.8170   22.4840 C.ar      1 <0>         0.0000
      5 C5          4.8720    1.3430   17.2880 C.ar      1 <0>         0.0000
      6 C6          6.6080    0.5720   18.6190 C.ar      1 <0>         0.0000
      7 C7          4.5960    1.0990   19.6840 C.ar      1 <0>         0.0000
      8 C8          9.8910    0.4680   22.7130 C.ar      1 <0>         0.0000
      9 C9          5.8970    0.6730   19.7740 C.ar      1 <0>         0.0000
     10 C10        11.8770    1.9280   22.8320 C.ar      1 <0>         0.0000
     11 C11        12.1080   -0.4660   22.3030 C.ar      1 <0>         0.0000
     12 C12         7.7180    0.8450   21.3930 C.2       1 <0>         0.0000
     13 C13         3.8070    1.3430   20.8950 C.3       1 <0>         0.0000
     14 C14         8.3950    0.3060   22.6800 C.3       1 <0>         0.0000
     15 N1          6.1370    0.8820   17.4230 N.ar      1 <0>         0.0000
     16 N2          6.4860    0.3470   20.9880 N.am      1 <0>         0.0000
     17 O1          8.3360    1.6020   20.6130 O.2       1 <0>         0.0000
     18 O2         12.5670    3.1090   22.9710 O.3       1 <0>         0.0000
     19 Cl1        13.0770   -1.8860   21.9880 Cl        1 <0>         0.0000
     20 H1          3.1080    1.9170   18.3370 H         1 <0>         0.0000
     21 H2          9.7390    2.4990   23.2790 H         1 <0>         0.0000
     22 H3         10.3090   -1.5840   22.3640 H         1 <0>         0.0000
     23 H4         13.7230    0.9340   22.4620 H         1 <0>         0.0000
     24 H5          4.4180    1.5760   16.3260 H         1 <0>         0.0000
     25 H6          7.6020    0.1680   18.7490 H         1 <0>         0.0000
     26 H7          3.7050    0.3680   21.3960 H         1 <0>         0.0000
     27 H8          4.2510    2.1340   21.5020 H         1 <0>         0.0000
     28 H9          2.7890    1.6670   20.6510 H         1 <0>         0.0000
     29 H10         8.2430   -0.7590   22.8660 H         1 <0>         0.0000
     30 H11         7.9160    0.7630   23.5410 H         1 <0>         0.0000
     31 H12         5.8330    0.1990   21.7690 H         1 <0>         0.0000
     32 C15        11.8360    4.1700   23.5670 C.3       1 <0>         0.0000
     33 C16        11.1220    5.1730   22.5550 C.3       1 <0>         0.0000
     34 C17        12.0790    6.1570   23.1580 C.2       1 <0>         0.0000
     35 H13        12.9510    5.5320   24.9270 H         1 <0>         0.0000
     36 H14        11.1460    3.8160   24.3500 H         1 <0>         0.0000
     37 H15        10.0860    5.4200   22.8140 H         1 <0>         0.0000
     38 H16        11.3240    5.0730   21.4870 H         1 <0>         0.0000
     39 N3         12.6380    5.2820   23.9830 N.am      1 <0>         0.0000
     40 O3         11.9170    7.3450   23.3970 O.2       1 <0>         0.0000
@<TRIPOS>BOND
     1    5   24 1
     2    5   15 ar
     3    1    5 ar
     4    6   15 ar
     5    1   20 1
     6    1    7 ar
     7    6   25 1
     8    6    9 ar
     9    7    9 ar
    10    7   13 1
    11    9   16 1
    12   12   17 2
    13   13   28 1
    14   13   26 1
    15   13   27 1
    16   12   16 am
    17   16   31 1
    18   12   14 1
    19   33   38 1
    20   11   19 1
    21    4   11 ar
    22    3   11 ar
    23    3   22 1
    24    4   23 1
    25    4   10 ar
    26    3    8 ar
    27   33   37 1
    28   33   34 1
    29   32   33 1
    30    8   14 1
    31   14   29 1
    32   14   30 1
    33    2    8 ar
    34    2   10 ar
    35   10   18 1
    36    2   21 1
    37   18   32 1
    38   34   40 2
    39   34   39 am
    40   32   39 1
    41   32   36 1
    42   35   39 1
@<TRIPOS>MOLECULE
*****
   40    42     0     0     0
SMALL
NO_CHARGES

@<TRIPOS>ATOM
      1 C1          6.0890    1.2160   18.8790 C.ar      1 <0>         0.0000
      2 C2         13.0050    1.8460   22.9650 C.ar      1 <0>         0.0000
      3 C3         12.7750   -0.4370   22.1660 C.ar      1 <0>         0.0000
      4 C4         14.9090    0.7620   21.9490 C.ar      1 <0>         0.0000
      5 C5          6.8240    0.8100   17.7960 C.ar      1 <0>         0.0000
      6 C6          8.7100    0.5370   19.0700 C.ar      1 <0>         0.0000
      7 C7          6.6550    1.2510   20.1020 C.ar      1 <0>         0.0000
      8 C8         12.2080    0.6900   22.6410 C.ar      1 <0>         0.0000
      9 C9          8.0360    0.9790   20.2140 C.ar      1 <0>         0.0000
     10 C10        14.3690    1.9260   22.6060 C.ar      1 <0>         0.0000
     11 C11        14.1350   -0.4020   21.7040 C.ar      1 <0>         0.0000
     12 C12        10.0880    1.1310   21.5560 C.2       1 <0>         0.0000
     13 C13         5.8470    1.7400   21.2430 C.3       1 <0>         0.0000
     14 C14        10.7570    0.7250   22.8400 C.3       1 <0>         0.0000
     15 N1          8.0830    0.4910   17.8900 N.ar      1 <0>         0.0000
     16 N2          8.7310    0.9900   21.4400 N.am      1 <0>         0.0000
     17 O1         10.7030    1.8850   20.7820 O.2       1 <0>         0.0000
     18 O2         15.1240    3.0550   22.6090 O.3       1 <0>         0.0000
     19 Cl1        14.7510   -1.6780   20.7470 Cl        1 <0>         0.0000
     20 H1          5.0890    1.6070   18.7900 H         1 <0>         0.0000
     21 H2         12.5880    2.7630   23.3630 H         1 <0>         0.0000
     22 H3         12.2030   -1.3570   22.1770 H         1 <0>         0.0000
     23 H4         15.9210    0.7690   21.5590 H         1 <0>         0.0000
     24 H5          6.4680    0.8670   16.7610 H         1 <0>         0.0000
     25 H6          9.7530    0.2610   19.1550 H         1 <0>         0.0000
     26 H7          5.3460    2.6920   21.0450 H         1 <0>         0.0000
     27 H8          5.1840    0.9170   21.5140 H         1 <0>         0.0000
     28 H9          6.4680    1.9340   22.1320 H         1 <0>         0.0000
     29 H10        10.2450   -0.1440   23.2530 H         1 <0>         0.0000
     30 H11        10.6700    1.4470   23.6550 H         1 <0>         0.0000
     31 H12         8.2390    0.5580   22.2270 H         1 <0>         0.0000
     32 H13        16.3000    5.5810   23.8770 H         1 <0>         0.0000
     33 H14        14.2960    4.2530   24.1220 H         1 <0>         0.0000
     34 H15        13.5060    4.7460   21.2930 H         1 <0>         0.0000
     35 H16        12.7610    5.3550   22.8390 H         1 <0>         0.0000
     36 N3         15.6330    5.3780   23.1300 N.am      1 <0>         0.0000
     37 O3         14.5020    7.4120   22.7060 O.2       1 <0>         0.0000
     38 C15        14.6510    4.2950   23.0980 C.3       1 <0>         0.0000
     39 C16        13.6870    5.1730   22.2820 C.3       1 <0>         0.0000
     40 C17        14.7800    6.2070   22.4670 C.2       1 <0>         0.0000
@<TRIPOS>BOND
     1    5   24 1
     2    5   15 ar
     3    1    5 ar
     4    6   15 ar
     5    1   20 1
     6    1    7 ar
     7    6   25 1
     8    6    9 ar
     9    7    9 ar
    10    7   13 1
    11    9   16 1
    12   11   19 1
    13   12   17 2
    14   13   26 1
    15   13   27 1
    16   13   28 1
    17   34   39 1
    18   12   16 am
    19   16   31 1
    20   12   14 1
    21    4   23 1
    22    4   11 ar
    23    3   11 ar
    24    4   10 ar
    25    3   22 1
    26    3    8 ar
    27   39   40 1
    28   35   39 1
    29   38   39 1
    30   37   40 2
    31   36   40 am
    32   10   18 1
    33    2   10 ar
    34   18   38 1
    35    8   14 1
    36    2    8 ar
    37   14   29 1
    38   14   30 1
    39    2   21 1
    40   36   38 1
    41   33   38 1
    42   32   36 1
@<TRIPOS>MOLECULE
*****
   40    42     0     0     0
SMALL
NO_CHARGES

@<TRIPOS>ATOM
      1 C1          6.2860    0.9850   17.6900 C.ar      1 <0>         0.0000
      2 C2         12.9150    1.7160   21.7800 C.ar      1 <0>         0.0000
      3 C3         13.1730   -0.5180   20.9190 C.ar      1 <0>         0.0000
      4 C4         15.1050    0.9590   21.1500 C.ar      1 <0>         0.0000
      5 C5          6.9090    1.0750   16.4260 C.ar      1 <0>         0.0000
      6 C6          8.8550    0.2570   17.4570 C.ar      1 <0>         0.0000
      7 C7          6.9480    0.5640   18.8630 C.ar      1 <0>         0.0000
      8 C8         12.3430    0.4970   21.3610 C.ar      1 <0>         0.0000
      9 C9          8.2630    0.2250   18.7140 C.ar      1 <0>         0.0000
     10 C10        14.2970    1.9760   21.6810 C.ar      1 <0>         0.0000
     11 C11        14.5200   -0.2490   20.7140 C.ar      1 <0>         0.0000
     12 C12        10.1600    0.5340   20.1760 C.2       1 <0>         0.0000
     13 C13         6.1810    0.5410   20.2040 C.3       1 <0>         0.0000
     14 C14        10.8990    0.1950   21.4730 C.3       1 <0>         0.0000
     15 N1          8.2210    0.6720   16.3700 N.ar      1 <0>         0.0000
     16 N2          9.0150   -0.1140   19.8160 N.am      1 <0>         0.0000
     17 O1         10.5330    1.4750   19.4590 O.2       1 <0>         0.0000
     18 O2         14.8740    3.1820   22.0170 O.3       1 <0>         0.0000
     19 Cl1        15.3670   -1.5730   19.9020 Cl        1 <0>         0.0000
     20 H1          5.2490    1.2800   17.7770 H         1 <0>         0.0000
     21 H2         12.2250    2.4590   22.1550 H         1 <0>         0.0000
     22 H3         12.7590   -1.5000   20.7270 H         1 <0>         0.0000
     23 H4         16.1740    0.9850   20.9830 H         1 <0>         0.0000
     24 H5          6.3340    1.3770   15.5550 H         1 <0>         0.0000
     25 H6          9.9020   -0.0230   17.3450 H         1 <0>         0.0000
     26 H7          5.1260    0.3280   19.9980 H         1 <0>         0.0000
     27 H8          6.5540   -0.2440   20.8740 H         1 <0>         0.0000
     28 H9          6.4260    1.4930   20.6820 H         1 <0>         0.0000
     29 H10        10.7180   -0.8620   21.6920 H         1 <0>         0.0000
     30 H11        10.4420    0.7170   22.3180 H         1 <0>         0.0000
     31 H12         8.5880   -0.6930   20.5320 H         1 <0>         0.0000
     32 H13        13.1950    3.9870   22.9800 H         1 <0>         0.0000
     33 H14        13.9180    4.8900   20.0530 H         1 <0>         0.0000
     34 H15        12.3670    5.1940   20.9500 H         1 <0>         0.0000
     35 N3         14.6570    5.4750   22.7300 N.am      1 <0>         0.0000
     36 O3         14.6020    7.2050   21.1900 O.2       1 <0>         0.0000
     37 C15        13.9820    4.2890   22.2900 C.3       1 <0>         0.0000
     38 C16        13.4370    5.0250   21.0270 C.3       1 <0>         0.0000
     39 C17        14.1380    6.1880   21.6870 C.2       1 <0>         0.0000
     40 H16        15.6720    5.5220   22.8310 H         1 <0>         0.0000
@<TRIPOS>BOND
     1    5   24 1
     2    5   15 ar
     3    6   15 ar
     4    1    5 ar
     5    6   25 1
     6    6    9 ar
     7    1   20 1
     8    1    7 ar
     9    7    9 ar
    10    9   16 1
    11    7   13 1
    12   12   17 2
    13   12   16 am
    14   16   31 1
    15   11   19 1
    16   13   26 1
    17   33   38 1
    18   12   14 1
    19   13   28 1
    20   13   27 1
    21    3   11 ar
    22    4   11 ar
    23    3   22 1
    24    3    8 ar
    25   34   38 1
    26    4   23 1
    27   38   39 1
    28   37   38 1
    29    4   10 ar
    30   36   39 2
    31    8   14 1
    32    2    8 ar
    33   14   29 1
    34   14   30 1
    35    2   10 ar
    36   10   18 1
    37   35   39 am
    38    2   21 1
    39   18   37 1
    40   35   37 1
    41   32   37 1
    42   35   40 1
@<TRIPOS>MOLECULE
*****
   40    42     0     0     0
SMALL
NO_CHARGES

@<TRIPOS>ATOM
      1 C1          6.7410    2.6560   19.0990 C.ar      1 <0>         0.0000
      2 C2          9.9100   -1.5380   24.0370 C.ar      1 <0>         0.0000
      3 C3         10.9780   -2.0950   21.9440 C.ar      1 <0>         0.0000
      4 C4         12.3070   -1.3420   23.8470 C.ar      1 <0>         0.0000
      5 C5          6.3690    2.1410   17.8820 C.ar      1 <0>         0.0000
      6 C6          6.9790    0.0280   18.5670 C.ar      1 <0>         0.0000
      7 C7          7.3510    1.8930   20.0850 C.ar      1 <0>         0.0000
      8 C8          9.7830   -1.9740   22.7380 C.ar      1 <0>         0.0000
      9 C9          7.4650    0.5050   19.7780 C.ar      1 <0>         0.0000
     10 C10        11.1450   -1.2930   24.6380 C.ar      1 <0>         0.0000
     11 C11        12.2060   -1.6620   22.4590 C.ar      1 <0>         0.0000
     12 C12         7.8180   -1.7030   20.9590 C.2       1 <0>         0.0000
     13 C13         7.8850    2.4580   21.4770 C.3       1 <0>         0.0000
     14 C14         8.4090   -2.4430   22.1730 C.3       1 <0>         0.0000
     15 N1          6.5870    0.8320   17.6240 N.ar      1 <0>         0.0000
     16 N2          8.0390   -0.3930   20.6960 N.am      1 <0>         0.0000
     17 O1          7.0060   -2.3100   20.3070 O.2       1 <0>         0.0000
     18 O2         11.3530   -1.0390   26.0050 O.3       1 <0>         0.0000
     19 Cl1        13.5530   -1.5990   21.3870 Cl        1 <0>         0.0000
     20 H1          6.6020    3.7200   19.2710 H         1 <0>         0.0000
     21 H2          9.0250   -1.5620   24.6770 H         1 <0>         0.0000
     22 H3         10.9860   -2.4730   20.9240 H         1 <0>         0.0000
     23 H4         13.2740   -1.2030   24.3200 H         1 <0>         0.0000
     24 H5          5.8950    2.7970   17.1540 H         1 <0>         0.0000
     25 H6          7.0600   -1.0080   18.2770 H         1 <0>         0.0000
     26 H7          8.9530    2.2600   21.6130 H         1 <0>         0.0000
     27 H8          7.7600    3.5440   21.5720 H         1 <0>         0.0000
     28 H9          7.3660    2.0220   22.3400 H         1 <0>         0.0000
     29 H10         8.4430   -3.5030   21.9080 H         1 <0>         0.0000
     30 H11         7.6640   -2.5030   22.9720 H         1 <0>         0.0000
     31 H12         8.6950   -0.0400   21.3990 H         1 <0>         0.0000
     32 H13         9.5070   -1.8840   26.6820 H         1 <0>         0.0000
     33 H14         8.3850    0.3940   26.1010 H         1 <0>         0.0000
     34 H15        10.0270    1.1510   25.9730 H         1 <0>         0.0000
     35 N3         10.3390   -0.6430   28.1500 N.am      1 <0>         0.0000
     36 O3          9.7750    1.5610   28.6450 O.2       1 <0>         0.0000
     37 C15        10.1010   -0.9770   26.7970 C.3       1 <0>         0.0000
     38 C16         9.3910    0.4500   26.5180 C.3       1 <0>         0.0000
     39 C17         9.6660    0.5470   28.0090 C.2       1 <0>         0.0000
     40 H16        11.3090   -0.5120   28.4490 H         1 <0>         0.0000
@<TRIPOS>BOND
     1    5   24 1
     2    5   15 ar
     3    6   15 ar
     4    1    5 ar
     5    6   25 1
     6    6    9 ar
     7    1   20 1
     8    1    7 ar
     9    7    9 ar
    10    9   16 1
    11    7   13 1
    12   12   17 2
    13   12   16 am
    14   16   31 1
    15    3   22 1
    16   12   14 1
    17   11   19 1
    18   13   27 1
    19   13   26 1
    20   13   28 1
    21   14   29 1
    22    3   11 ar
    23    3    8 ar
    24    8   14 1
    25   14   30 1
    26    4   11 ar
    27    2    8 ar
    28    4   23 1
    29    4   10 ar
    30    2   10 ar
    31    2   21 1
    32   10   18 1
    33   34   38 1
    34   18   37 1
    35   33   38 1
    36   37   38 1
    37   38   39 1
    38   32   37 1
    39   35   37 1
    40   35   39 am
    41   36   39 2
    42   35   40 1
@<TRIPOS>MOLECULE
*****
   42    44     0     0     0
SMALL
NO_CHARGES

@<TRIPOS>ATOM
      1 C1          4.6390    0.4650   20.1820 C.ar      1 <0>         0.0000
      2 C2         11.7900    0.0300   24.2390 C.ar      1 <0>         0.0000
      3 C3         11.8640   -1.6010   22.4150 C.ar      1 <0>         0.0000
      4 C4         13.8770   -0.4330   23.1480 C.ar      1 <0>         0.0000
      5 C5          5.2510    0.6930   18.9950 C.ar      1 <0>         0.0000
      6 C6          7.2330   -0.2340   19.7960 C.ar      1 <0>         0.0000
      7 C7          5.3900    0.0630   21.3420 C.ar      1 <0>         0.0000
      8 C8         11.1640   -0.9290   23.3850 C.ar      1 <0>         0.0000
      9 C9          6.6760   -0.3560   21.1010 C.ar      1 <0>         0.0000
     10 C10        13.1650    0.2660   24.1930 C.ar      1 <0>         0.0000
     11 C11        13.2550   -1.3890   22.3460 C.ar      1 <0>         0.0000
     12 C12         8.8830   -0.6290   22.3330 C.2       1 <0>         0.0000
     13 C13         4.6670   -0.0190   22.6250 C.3       1 <0>         0.0000
     14 C14         9.6420   -1.2010   23.5120 C.3       1 <0>         0.0000
     15 N1          6.5230    0.3040   18.7550 N.ar      1 <0>         0.0000
     16 N2          7.5500   -0.8510   22.1650 N.am      1 <0>         0.0000
     17 O1          9.4330    0.1020   21.4990 O.2       1 <0>         0.0000
     18 O2         13.8420    1.2200   24.9620 O.3       1 <0>         0.0000
     19 Cl1        14.1400   -2.2260   21.0880 Cl        1 <0>         0.0000
     20 H1          3.6120    0.8100   20.1860 H         1 <0>         0.0000
     21 H2         11.1940    0.5800   24.9620 H         1 <0>         0.0000
     22 H3         11.4110   -2.4060   21.8300 H         1 <0>         0.0000
     23 H4         14.9150   -0.2540   22.9120 H         1 <0>         0.0000
     24 H5          4.7060    1.2170   18.2190 H         1 <0>         0.0000
     25 H6          8.1600   -0.7790   19.6460 H         1 <0>         0.0000
     26 H7          5.0560   -0.7630   23.3250 H         1 <0>         0.0000
     27 H8          4.8460    0.9360   23.1270 H         1 <0>         0.0000
     28 H9          3.5850   -0.1580   22.4830 H         1 <0>         0.0000
     29 H10         9.3940   -2.2690   23.4710 H         1 <0>         0.0000
     30 H11         9.2820   -0.8000   24.4670 H         1 <0>         0.0000
     31 H12         7.1250   -1.2240   23.0180 H         1 <0>         0.0000
     32 H13        12.6510    2.7980   22.9870 H         1 <0>         0.0000
     33 H14        11.5030    3.6630   24.2120 H         1 <0>         0.0000
     34 N3         14.1630    3.4700   25.2940 N.3       1 <0>         0.0000
     35 O3         14.3620    4.8440   23.5400 O.3       1 <0>         0.0000
     36 C15        13.1790    2.4210   25.1960 C.3       1 <0>         0.0000
     37 C16        12.5030    3.2750   23.9550 C.3       1 <0>         0.0000
     38 C17        13.6370    4.2350   24.3520 C.3       1 <0>         0.0000
     39 H15        15.0810    3.3070   24.8910 H         1 <0>         0.0000
     40 H16        12.4930    2.2790   26.0430 H         1 <0>         0.0000
     41 H          14.3620    4.8440   23.5400 H         1 <0>         0.0000
     42 H          13.6370    4.2350   24.3520 H         1 <0>         0.0000
@<TRIPOS>BOND
     1    5   24 1
     2    5   15 ar
     3    6   15 ar
     4    1    5 ar
     5    6   25 1
     6    6    9 ar
     7    1   20 1
     8    1    7 ar
     9   11   19 1
    10    7    9 ar
    11    9   16 1
    12    7   13 1
    13   12   17 2
    14    3   22 1
    15   12   16 am
    16   16   31 1
    17   12   14 1
    18    3   11 ar
    19    4   11 ar
    20    3    8 ar
    21   13   28 1
    22   13   27 1
    23   13   26 1
    24    4   23 1
    25   32   37 1
    26    4   10 ar
    27    8   14 1
    28    2    8 ar
    29   14   29 1
    30   14   30 1
    31   35   38 1
    32   33   37 1
    33   37   38 1
    34   36   37 1
    35    2   10 ar
    36   10   18 1
    37    2   21 1
    38   34   38 1
    39   34   39 1
    40   18   36 1
    41   34   36 1
    42   36   40 1
    43   35   41 1
    44   38   42 1
@<TRIPOS>MOLECULE
*****
   40    42     0     0     0
SMALL
NO_CHARGES

@<TRIPOS>ATOM
      1 C1          5.3800    1.1270   20.2540 C.ar      1 <0>         0.0000
      2 C2         12.1930    2.9520   22.4560 C.ar      1 <0>         0.0000
      3 C3         12.6530    0.8230   23.5340 C.ar      1 <0>         0.0000
      4 C4         14.4210    2.2000   22.5930 C.ar      1 <0>         0.0000
      5 C5          5.6700    0.3210   19.1080 C.ar      1 <0>         0.0000
      6 C6          7.6240   -0.2790   20.1510 C.ar      1 <0>         0.0000
      7 C7          6.2120    1.2820   21.3520 C.ar      1 <0>         0.0000
      8 C8         11.7490    1.8130   23.1410 C.ar      1 <0>         0.0000
      9 C9          7.4010    0.5410   21.2700 C.ar      1 <0>         0.0000
     10 C10        13.5280    3.1950   22.2110 C.ar      1 <0>         0.0000
     11 C11        13.9940    0.9770   23.2220 C.ar      1 <0>         0.0000
     12 C12         9.6580    0.6850   22.3570 C.2       1 <0>         0.0000
     13 C13         5.8960    2.2460   22.4590 C.3       1 <0>         0.0000
     14 C14        10.3320    1.5050   23.4400 C.3       1 <0>         0.0000
     15 N1          6.7880   -0.3790   19.0270 N.ar      1 <0>         0.0000
     16 N2          8.2930    0.6880   22.3790 N.am      1 <0>         0.0000
     17 O1         10.2600    0.0240   21.5010 O.2       1 <0>         0.0000
     18 O2         13.9200    4.2960   21.5420 O.3       1 <0>         0.0000
     19 Cl1        15.1210   -0.3510   23.6250 Cl        1 <0>         0.0000
     20 H1          4.3940    1.5670   20.2190 H         1 <0>         0.0000
     21 H2         11.4610    3.6400   22.0560 H         1 <0>         0.0000
     22 H3         12.2750   -0.0600   24.0490 H         1 <0>         0.0000
     23 H4         15.4960    2.2000   22.4320 H         1 <0>         0.0000
     24 H5          5.0730    0.2580   18.2040 H         1 <0>         0.0000
     25 H6          8.5670   -0.8280   20.1360 H         1 <0>         0.0000
     26 H7          5.2870    1.7550   23.2280 H         1 <0>         0.0000
     27 H8          6.7980    2.6290   22.9540 H         1 <0>         0.0000
     28 H9          5.3400    3.0730   22.0230 H         1 <0>         0.0000
     29 H10        10.2360    0.9140   24.3460 H         1 <0>         0.0000
     30 H11         9.7670    2.4210   23.6130 H         1 <0>         0.0000
     31 H12         8.0030    1.2400   23.1850 H         1 <0>         0.0000
     32 H13        14.9070    6.5240   20.5620 H         1 <0>         0.0000
     33 H14        16.0120    4.0360   21.5300 H         1 <0>         0.0000
     34 H15        16.2170    4.9850   23.7440 H         1 <0>         0.0000
     35 H16        14.5500    5.5900   23.7530 H         1 <0>         0.0000
     36 N3         15.5660    6.0480   21.1770 N.am      1 <0>         0.0000
     37 O3         15.5680    7.8480   22.5450 O.2       1 <0>         0.0000
     38 C15        15.2240    4.7620   21.7530 C.3       1 <0>         0.0000
     39 C16        15.4570    5.5090   23.1500 C.3       1 <0>         0.0000
     40 C17        15.8130    6.6630   22.3430 C.2       1 <0>         0.0000
@<TRIPOS>BOND
     1    5   24 1
     2    5   15 ar
     3    6   15 ar
     4    1    5 ar
     5    6   25 1
     6    6    9 ar
     7    1   20 1
     8    1    7 ar
     9   32   36 1
    10   36   38 1
    11   36   40 am
    12    7    9 ar
    13    9   16 1
    14    7   13 1
    15   12   17 2
    16   33   38 1
    17   18   38 1
    18   10   18 1
    19   38   39 1
    20   13   28 1
    21    2   21 1
    22    2   10 ar
    23    4   10 ar
    24   37   40 2
    25   39   40 1
    26   12   16 am
    27   12   14 1
    28   16   31 1
    29    4   23 1
    30    2    8 ar
    31   13   27 1
    32   13   26 1
    33    4   11 ar
    34    8   14 1
    35    3    8 ar
    36   34   39 1
    37   35   39 1
    38    3   11 ar
    39   11   19 1
    40   14   30 1
    41   14   29 1
    42    3   22 1
