NAU-LAT-ec9-4
 OpenBabel03242009303D

 43 46  0  0  0  0  0  0  0  0999 V2000
    6.6530    0.9152   20.5719 C   0  0  0  0  0  0  0  0  0  0  0  0
   11.6479   -0.0086   22.9488 C   0  0  0  0  0  0  0  0  0  0  0  0
    7.0040    1.2775   21.8723 C   0  0  0  0  0  0  0  0  0  0  0  0
    6.7090   -0.4227   20.1814 C   0  0  0  0  0  0  0  0  0  0  0  0
   11.7467   -1.3026   22.4001 C   0  0  0  0  0  0  0  0  0  0  0  0
   11.1811    0.1831   24.2500 C   0  0  0  0  0  0  0  0  0  0  0  0
    7.4111    0.3019   22.7823 C   0  0  0  0  0  0  0  0  0  0  0  0
    7.1162   -1.3984   21.0913 C   0  0  0  0  0  0  0  0  0  0  0  0
   11.3805   -2.4318   23.1419 C   0  0  0  0  0  0  0  0  0  0  0  0
   10.8277   -0.9465   24.9569 C   0  0  0  0  0  0  0  0  0  0  0  0
    7.4672   -1.0361   22.3918 C   0  0  0  0  0  0  0  0  0  0  0  0
   10.9190   -2.2332   24.4301 C   0  0  0  0  0  0  0  0  0  0  0  0
    6.8895   -4.0220   25.0911 C   0  0  0  0  0  0  0  0  0  0  0  0
   10.3133   -1.0830   26.3169 C   0  0  0  0  0  0  0  0  0  0  0  0
   10.1052   -2.5737   26.5556 C   0  0  0  0  0  0  0  0  0  0  0  0
    7.9044   -2.0841   23.3682 C   0  0  0  0  0  0  0  0  0  0  0  0
    9.1410   -5.0765   24.5456 C   0  0  0  0  0  0  0  0  0  0  0  0
   10.4629   -4.6087   25.1446 C   0  0  0  0  0  0  0  0  0  0  0  0
    6.1045   -4.0033   26.1436 N   0  0  0  0  0  0  0  0  0  0  0  0
    6.7490   -4.7542   27.1007 N   0  0  0  0  0  0  0  0  0  0  0  0
    7.9033   -5.2226   26.6421 N   0  0  0  0  0  0  0  0  0  0  0  0
    7.9889   -4.7634   25.3858 N   0  0  0  0  0  0  0  0  0  0  0  0
   10.4926   -3.1850   25.3752 N   0  0  0  0  0  0  0  0  0  0  0  0
   10.0819   -0.2230   27.1317 O   0  0  0  0  0  0  0  0  0  0  0  0
    9.6832   -3.0134   27.6033 O   0  0  0  0  0  0  0  0  0  0  0  0
    6.6359   -4.2145   22.5156 O   0  0  0  0  0  0  0  0  0  0  0  0
    5.3444   -2.4210   23.7244 O   0  0  0  0  0  0  0  0  0  0  0  0
    6.5537   -3.2235   23.5814 S   0  0  0  0  0  0  0  0  0  0  0  0
    6.3348    1.6749   19.8638 H   0  0  0  0  0  0  0  0  0  0  0  0
   11.9397    0.8494   22.3488 H   0  0  0  0  0  0  0  0  0  0  0  0
    6.9594    2.3191   22.1768 H   0  0  0  0  0  0  0  0  0  0  0  0
    6.4348   -0.7053   19.1693 H   0  0  0  0  0  0  0  0  0  0  0  0
   12.1133   -1.4241   21.3839 H   0  0  0  0  0  0  0  0  0  0  0  0
   11.1031    1.1759   24.6766 H   0  0  0  0  0  0  0  0  0  0  0  0
    7.6830    0.5934   23.7934 H   0  0  0  0  0  0  0  0  0  0  0  0
    7.1569   -2.4383   20.7782 H   0  0  0  0  0  0  0  0  0  0  0  0
   11.4627   -3.4210   22.7060 H   0  0  0  0  0  0  0  0  0  0  0  0
    8.1481   -1.6577   24.3453 H   0  0  0  0  0  0  0  0  0  0  0  0
    8.7701   -2.6459   23.0061 H   0  0  0  0  0  0  0  0  0  0  0  0
    8.9726   -4.5901   23.5772 H   0  0  0  0  0  0  0  0  0  0  0  0
    9.1466   -6.1585   24.3678 H   0  0  0  0  0  0  0  0  0  0  0  0
   10.6255   -5.0900   26.1138 H   0  0  0  0  0  0  0  0  0  0  0  0
   11.3080   -4.8535   24.4932 H   0  0  0  0  0  0  0  0  0  0  0  0
  1  3  1  0  0  0  0
  1  4  2  0  0  0  0
  1 29  1  0  0  0  0
  2  5  1  0  0  0  0
  2  6  2  0  0  0  0
  2 30  1  0  0  0  0
  3  7  2  0  0  0  0
  3 31  1  0  0  0  0
  4  8  1  0  0  0  0
  4 32  1  0  0  0  0
  5  9  2  0  0  0  0
  5 33  1  0  0  0  0
  6 10  1  0  0  0  0
  6 34  1  0  0  0  0
  7 11  1  0  0  0  0
  7 35  1  0  0  0  0
  8 11  2  0  0  0  0
  8 36  1  0  0  0  0
  9 12  1  0  0  0  0
  9 37  1  0  0  0  0
 10 12  2  0  0  0  0
 10 14  1  0  0  0  0
 11 16  1  0  0  0  0
 12 23  1  0  0  0  0
 13 19  2  0  0  0  0
 13 22  1  0  0  0  0
 13 28  1  0  0  0  0
 14 15  1  0  0  0  0
 14 24  2  0  0  0  0
 15 23  1  0  0  0  0
 15 25  2  0  0  0  0
 16 28  1  0  0  0  0
 16 38  1  0  0  0  0
 16 39  1  0  0  0  0
 17 18  1  0  0  0  0
 17 22  1  0  0  0  0
 17 40  1  0  0  0  0
 17 41  1  0  0  0  0
 18 23  1  0  0  0  0
 18 42  1  0  0  0  0
 18 43  1  0  0  0  0
 19 20  1  0  0  0  0
 20 21  2  0  0  0  0
 21 22  1  0  0  0  0
 26 28  2  0  0  0  0
 27 28  2  0  0  0  0
M  END
>  <Chemgauss4 Score>
-4.52927207946777

>  <Number of Confs>
200

$$$$
