DAR-DIA-fc9-7
 OpenBabel03242009303D

 35 37  0  0  1  0  0  0  0  0999 V2000
   13.4352   -0.6722   22.2698 C   0  0  0  0  0  0  0  0  0  0  0  0
   12.5791    0.4290   22.2628 C   0  0  0  0  0  0  0  0  0  0  0  0
   13.0352   -1.8628   22.8766 C   0  0  0  0  0  0  0  0  0  0  0  0
    8.0335   -4.3111   28.5829 C   0  0  0  0  0  0  0  0  0  0  0  0
   11.3230    0.3397   22.8626 C   0  0  0  0  0  0  0  0  0  0  0  0
   11.7790   -1.9521   23.4765 C   0  0  0  0  0  0  0  0  0  0  0  0
    8.3231   -3.4586   27.5234 C   0  0  0  0  0  0  0  0  0  0  0  0
    7.9274   -5.6663   28.3146 C   0  0  0  0  0  0  0  0  0  0  0  0
    8.3686   -5.3500   26.0822 C   0  0  0  0  0  0  0  0  0  0  0  0
   10.9229   -0.8509   23.4695 C   0  0  0  0  0  0  0  0  0  0  0  0
    8.4952   -3.9799   26.2459 C   0  0  0  0  0  0  0  0  0  0  0  0
    9.5182   -1.9221   25.2978 C   0  0  0  0  0  0  0  0  0  0  0  0
    8.4495   -2.6074   22.6323 C   0  0  0  0  0  0  0  0  0  0  0  0
    8.4238   -1.1798   23.1269 C   0  0  0  0  0  0  0  0  0  0  0  0
    8.3817   -3.5983   23.7859 C   0  0  0  0  0  0  0  0  0  0  0  0
    9.5534   -0.9489   24.1240 C   0  0  2  0  0  0  0  0  0  0  0  0
    8.0880   -6.2096   27.0872 N   0  0  0  0  0  0  0  0  0  0  0  0
    8.7983   -3.1148   25.1183 N   0  0  0  0  0  0  0  0  0  0  0  0
   10.1546   -1.6219   26.3134 O   0  0  0  0  0  0  0  0  0  0  0  0
   14.4127   -0.6029   21.8015 H   0  0  0  0  0  0  0  0  0  0  0  0
   12.8900    1.3558   21.7894 H   0  0  0  0  0  0  0  0  0  0  0  0
   13.7010   -2.7207   22.8813 H   0  0  0  0  0  0  0  0  0  0  0  0
    7.8953   -3.9268   29.5871 H   0  0  0  0  0  0  0  0  0  0  0  0
   10.6627    1.2029   22.8525 H   0  0  0  0  0  0  0  0  0  0  0  0
   11.4759   -2.8837   23.9470 H   0  0  0  0  0  0  0  0  0  0  0  0
    8.4123   -2.3906   27.7041 H   0  0  0  0  0  0  0  0  0  0  0  0
    7.7021   -6.3728   29.1066 H   0  0  0  0  0  0  0  0  0  0  0  0
    8.4920   -5.8160   25.1091 H   0  0  0  0  0  0  0  0  0  0  0  0
    7.6106   -2.7877   21.9349 H   0  0  0  0  0  0  0  0  0  0  0  0
    9.3705   -2.7868   22.0499 H   0  0  0  0  0  0  0  0  0  0  0  0
    8.5094   -0.4871   22.2721 H   0  0  0  0  0  0  0  0  0  0  0  0
    7.4491   -0.9679   23.5963 H   0  0  0  0  0  0  0  0  0  0  0  0
    7.3477   -3.9878   23.8690 H   0  0  0  0  0  0  0  0  0  0  0  0
    9.0244   -4.4711   23.5558 H   0  0  0  0  0  0  0  0  0  0  0  0
    9.3757    0.0659   24.6035 H   0  0  0  0  0  0  0  0  0  0  0  0
  1  2  1  0  0  0  0
  1  3  2  0  0  0  0
  1 20  1  0  0  0  0
  2  5  2  0  0  0  0
  2 21  1  0  0  0  0
  3  6  1  0  0  0  0
  3 22  1  0  0  0  0
  4  7  2  0  0  0  0
  4  8  1  0  0  0  0
  4 23  1  0  0  0  0
  5 10  1  0  0  0  0
  5 24  1  0  0  0  0
  6 10  2  0  0  0  0
  6 25  1  0  0  0  0
  7 11  1  0  0  0  0
  7 26  1  0  0  0  0
  8 17  2  0  0  0  0
  8 27  1  0  0  0  0
  9 11  2  0  0  0  0
  9 17  1  0  0  0  0
  9 28  1  0  0  0  0
 10 16  1  0  0  0  0
 11 18  1  0  0  0  0
 12 16  1  0  0  0  0
 12 18  1  0  0  0  0
 12 19  2  0  0  0  0
 13 14  1  0  0  0  0
 13 15  1  0  0  0  0
 13 29  1  0  0  0  0
 13 30  1  0  0  0  0
 14 16  1  0  0  0  0
 14 31  1  0  0  0  0
 14 32  1  0  0  0  0
 15 18  1  0  0  0  0
 15 33  1  0  0  0  0
 15 34  1  0  0  0  0
 16 35  1  1  0  0  0
M  END
>  <Chemgauss4 Score>
-5.2729320526123

>  <Number of Confs>
20

$$$$
