WAR-XCH-eb7-2
 OpenBabel03242009303D

 28 29  0  0  0  0  0  0  0  0999 V2000
    9.9232    1.5260   23.0649 C   0  0  0  0  0  0  0  0  0  0  0  0
    7.0109   -6.3488   28.3823 C   0  0  0  0  0  0  0  0  0  0  0  0
    7.6660   -5.9717   27.2153 C   0  0  0  0  0  0  0  0  0  0  0  0
   10.0447   -0.8239   23.7308 C   0  0  0  0  0  0  0  0  0  0  0  0
   11.6686    0.0608   22.1760 C   0  0  0  0  0  0  0  0  0  0  0  0
   11.7749   -2.2584   22.8444 C   0  0  0  0  0  0  0  0  0  0  0  0
    7.1793   -5.5557   29.5059 C   0  0  0  0  0  0  0  0  0  0  0  0
    8.5618   -4.1039   28.3838 C   0  0  0  0  0  0  0  0  0  0  0  0
   10.5506    0.2441   22.9898 C   0  0  0  0  0  0  0  0  0  0  0  0
    8.4584   -4.8291   27.2077 C   0  0  0  0  0  0  0  0  0  0  0  0
   10.6569   -2.0751   23.6582 C   0  0  0  0  0  0  0  0  0  0  0  0
   12.2807   -1.1905   22.1033 C   0  0  0  0  0  0  0  0  0  0  0  0
    9.4743   -3.1150   25.6430 C   0  0  0  0  0  0  0  0  0  0  0  0
    9.4137    2.5669   23.1260 N   0  0  0  0  0  0  0  0  0  0  0  0
    7.9406   -4.4390   29.5368 N   0  0  0  0  0  0  0  0  0  0  0  0
    9.1375   -4.4202   26.0357 N   0  0  0  0  0  0  0  0  0  0  0  0
   10.1516   -3.1437   24.3994 N   0  0  0  0  0  0  0  0  0  0  0  0
    9.2226   -2.0958   26.2778 O   0  0  0  0  0  0  0  0  0  0  0  0
   13.6607   -1.4166   21.0997 Cl  0  0  0  0  0  0  0  0  0  0  0  0
    6.3881   -7.2356   28.4113 H   0  0  0  0  0  0  0  0  0  0  0  0
    7.5523   -6.5748   26.3184 H   0  0  0  0  0  0  0  0  0  0  0  0
    9.1728   -0.6843   24.3671 H   0  0  0  0  0  0  0  0  0  0  0  0
   12.0644    0.8935   21.5976 H   0  0  0  0  0  0  0  0  0  0  0  0
   12.2507   -3.2354   22.7898 H   0  0  0  0  0  0  0  0  0  0  0  0
    6.6903   -5.8075   30.4412 H   0  0  0  0  0  0  0  0  0  0  0  0
    9.1653   -3.2029   28.4401 H   0  0  0  0  0  0  0  0  0  0  0  0
    9.4158   -5.1631   25.3995 H   0  0  0  0  0  0  0  0  0  0  0  0
   10.2811   -4.0797   24.0009 H   0  0  0  0  0  0  0  0  0  0  0  0
  1  9  1  0  0  0  0
  1 14  3  0  0  0  0
  2  3  2  0  0  0  0
  2  7  1  0  0  0  0
  2 20  1  0  0  0  0
  3 10  1  0  0  0  0
  3 21  1  0  0  0  0
  4  9  2  0  0  0  0
  4 11  1  0  0  0  0
  4 22  1  0  0  0  0
  5  9  1  0  0  0  0
  5 12  2  0  0  0  0
  5 23  1  0  0  0  0
  6 11  2  0  0  0  0
  6 12  1  0  0  0  0
  6 24  1  0  0  0  0
  7 15  2  0  0  0  0
  7 25  1  0  0  0  0
  8 10  2  0  0  0  0
  8 15  1  0  0  0  0
  8 26  1  0  0  0  0
 10 16  1  0  0  0  0
 11 17  1  0  0  0  0
 12 19  1  0  0  0  0
 13 16  1  0  0  0  0
 13 17  1  0  0  0  0
 13 18  2  0  0  0  0
 16 27  1  0  0  0  0
 17 28  1  0  0  0  0
M  END
>  <Chemgauss4 Score>
-4.55587100982666

>  <Number of Confs>
12

$$$$
