JOH-MSK-a63-8
 OpenBabel03242009303D

 29 31  0  0  0  0  0  0  0  0999 V2000
   11.7072   -1.8742   22.7758 C   0  0  0  0  0  0  0  0  0  0  0  0
   11.7966   -0.4796   22.7978 C   0  0  0  0  0  0  0  0  0  0  0  0
   10.7883   -0.3911   25.0049 C   0  0  0  0  0  0  0  0  0  0  0  0
   10.6856   -1.7966   25.0069 C   0  0  0  0  0  0  0  0  0  0  0  0
   10.1919   -2.7570   25.9298 C   0  0  0  0  0  0  0  0  0  0  0  0
   11.1488   -2.5069   23.8925 C   0  0  0  0  0  0  0  0  0  0  0  0
   11.3453    0.2524   23.8940 C   0  0  0  0  0  0  0  0  0  0  0  0
   10.3692   -4.0023   25.3681 C   0  0  0  0  0  0  0  0  0  0  0  0
    9.5946   -2.6089   27.2859 C   0  0  0  0  0  0  0  0  0  0  0  0
    9.9689   -5.2904   25.9905 C   0  0  0  0  0  0  0  0  0  0  0  0
    8.9045   -3.9220   27.7213 C   0  0  0  0  0  0  0  0  0  0  0  0
   10.9675    2.3028   25.0381 C   0  0  0  0  0  0  0  0  0  0  0  0
   10.9415   -3.8488   24.1396 N   0  0  0  0  0  0  0  0  0  0  0  0
    9.7340   -5.1088   27.4376 N   0  0  0  0  0  0  0  0  0  0  0  0
   11.4471    1.6115   23.8868 O   0  0  0  0  0  0  0  0  0  0  0  0
   12.0594   -2.4427   21.9217 H   0  0  0  0  0  0  0  0  0  0  0  0
   12.2278    0.0352   21.9423 H   0  0  0  0  0  0  0  0  0  0  0  0
   10.4387    0.1877   25.8557 H   0  0  0  0  0  0  0  0  0  0  0  0
   10.3918   -2.3611   27.9974 H   0  0  0  0  0  0  0  0  0  0  0  0
    8.8675   -1.7895   27.2991 H   0  0  0  0  0  0  0  0  0  0  0  0
    9.0556   -5.6632   25.5122 H   0  0  0  0  0  0  0  0  0  0  0  0
   10.7524   -6.0430   25.8527 H   0  0  0  0  0  0  0  0  0  0  0  0
    8.7002   -3.8758   28.7967 H   0  0  0  0  0  0  0  0  0  0  0  0
    7.9355   -4.0243   27.2162 H   0  0  0  0  0  0  0  0  0  0  0  0
   11.1076    3.3780   24.9030 H   0  0  0  0  0  0  0  0  0  0  0  0
   11.5123    1.9618   25.9221 H   0  0  0  0  0  0  0  0  0  0  0  0
    9.9034    2.0891   25.1634 H   0  0  0  0  0  0  0  0  0  0  0  0
   11.1774   -4.5983   23.5035 H   0  0  0  0  0  0  0  0  0  0  0  0
    9.2736   -5.9408   27.8056 H   0  0  0  0  0  0  0  0  0  0  0  0
  1  2  2  0  0  0  0
  1  6  1  0  0  0  0
  1 16  1  0  0  0  0
  2  7  1  0  0  0  0
  2 17  1  0  0  0  0
  3  4  1  0  0  0  0
  3  7  2  0  0  0  0
  3 18  1  0  0  0  0
  4  5  1  0  0  0  0
  4  6  2  0  0  0  0
  5  8  2  0  0  0  0
  5  9  1  0  0  0  0
  6 13  1  0  0  0  0
  7 15  1  0  0  0  0
  8 10  1  0  0  0  0
  8 13  1  0  0  0  0
  9 11  1  0  0  0  0
  9 19  1  0  0  0  0
  9 20  1  0  0  0  0
 10 14  1  0  0  0  0
 10 21  1  0  0  0  0
 10 22  1  0  0  0  0
 11 14  1  0  0  0  0
 11 23  1  0  0  0  0
 11 24  1  0  0  0  0
 12 15  1  0  0  0  0
 12 25  1  0  0  0  0
 12 26  1  0  0  0  0
 12 27  1  0  0  0  0
 13 28  1  0  0  0  0
 14 29  1  0  0  0  0
M  END
>  <Chemgauss4 Score>
-5.08693265914917

>  <Number of Confs>
2

$$$$
