DAN-LON-a5f-9
 OpenBabel03242009303D

 40 41  0  0  1  0  0  0  0  0999 V2000
   11.9074    0.2051   24.6630 C   0  0  0  0  0  0  0  0  0  0  0  0
   11.4142   -1.0025   25.1569 C   0  0  0  0  0  0  0  0  0  0  0  0
   12.2940    0.3062   23.3265 C   0  0  0  0  0  0  0  0  0  0  0  0
   11.6943   -2.0080   22.9780 C   0  0  0  0  0  0  0  0  0  0  0  0
   11.3077   -2.1091   24.3144 C   0  0  0  0  0  0  0  0  0  0  0  0
   12.1875   -0.8003   22.4840 C   0  0  0  0  0  0  0  0  0  0  0  0
    5.9025   -5.6086   24.5135 C   0  0  0  0  0  0  0  0  0  0  0  0
    7.6265   -3.9339   23.7488 C   0  0  0  0  0  0  0  0  0  0  0  0
    8.4786   -2.8188   24.3466 C   0  0  0  0  0  0  0  0  0  0  0  0
    7.3989   -4.5092   26.1524 C   0  0  0  0  0  0  0  0  0  0  0  0
    8.9420   -4.3832   26.2273 C   0  0  0  0  0  0  0  0  0  0  0  0
    9.5612   -5.7638   25.9002 C   0  0  0  0  0  0  0  0  0  0  0  0
    9.3168   -4.0233   27.6793 C   0  0  0  0  0  0  0  0  0  0  0  0
   10.7779   -3.4090   24.8470 C   0  0  0  0  0  0  0  0  0  0  0  0
    5.4960   -5.7415   23.0660 C   0  0  0  0  0  0  0  0  0  0  0  0
    6.9395   -4.7142   24.7786 N   0  0  0  0  0  0  0  0  0  0  0  0
    9.4241   -3.2729   25.3707 N   0  0  0  0  0  0  0  0  0  0  0  0
    5.3185   -6.2698   25.3748 O   0  0  0  0  0  0  0  0  0  0  0  0
   12.6657   -0.6753   20.8356 Cl  0  0  0  0  0  0  0  0  0  0  0  0
    6.5082   -7.0033   22.3722 Cl  0  0  0  0  0  0  0  0  0  0  0  0
   11.9903    1.0666   25.3194 H   0  0  0  0  0  0  0  0  0  0  0  0
   11.1154   -1.0722   26.1996 H   0  0  0  0  0  0  0  0  0  0  0  0
   12.6768    1.2537   22.9554 H   0  0  0  0  0  0  0  0  0  0  0  0
   11.6089   -2.8736   22.3250 H   0  0  0  0  0  0  0  0  0  0  0  0
    6.8482   -3.5135   23.0937 H   0  0  0  0  0  0  0  0  0  0  0  0
    8.2510   -4.5840   23.1208 H   0  0  0  0  0  0  0  0  0  0  0  0
    9.0037   -2.2839   23.5331 H   0  0  0  0  0  0  0  0  0  0  0  0
    7.7863   -2.0783   24.7877 H   0  0  0  0  0  0  0  0  0  0  0  0
    7.0522   -5.3061   26.8137 H   0  0  0  0  0  0  0  0  0  0  0  0
    6.9201   -3.5850   26.5016 H   0  0  0  0  0  0  0  0  0  0  0  0
   10.6399   -5.6853   25.9501 H   0  0  0  0  0  0  0  0  0  0  0  0
    9.2566   -6.0577   24.9037 H   0  0  0  0  0  0  0  0  0  0  0  0
    9.2080   -6.4871   26.6245 H   0  0  0  0  0  0  0  0  0  0  0  0
   10.3930   -3.9309   27.7508 H   0  0  0  0  0  0  0  0  0  0  0  0
    8.9673   -4.8094   28.3365 H   0  0  0  0  0  0  0  0  0  0  0  0
    8.8455   -3.0842   27.9403 H   0  0  0  0  0  0  0  0  0  0  0  0
   10.7599   -4.1703   24.0595 H   0  0  0  0  0  0  0  0  0  0  0  0
   11.4122   -3.7908   25.6540 H   0  0  0  0  0  0  0  0  0  0  0  0
    5.6780   -4.7992   22.5617 H   0  0  0  0  0  0  0  0  0  0  0  0
    4.4530   -6.0331   23.0191 H   0  0  0  0  0  0  0  0  0  0  0  0
  1  2  2  0  0  0  0
  1  3  1  0  0  0  0
  1 21  1  0  0  0  0
  2  5  1  0  0  0  0
  2 22  1  0  0  0  0
  3  6  2  0  0  0  0
  3 23  1  0  0  0  0
  4  5  2  0  0  0  0
  4  6  1  0  0  0  0
  4 24  1  0  0  0  0
  5 14  1  0  0  0  0
  6 19  1  0  0  0  0
  7 15  1  0  0  0  0
  7 16  1  0  0  0  0
  7 18  2  0  0  0  0
  8  9  1  0  0  0  0
  8 16  1  0  0  0  0
  8 25  1  0  0  0  0
  8 26  1  0  0  0  0
  9 17  1  0  0  0  0
  9 27  1  0  0  0  0
  9 28  1  0  0  0  0
 10 11  1  0  0  0  0
 10 16  1  0  0  0  0
 10 29  1  0  0  0  0
 10 30  1  0  0  0  0
 11 12  1  0  0  0  0
 11 13  1  0  0  0  0
 11 17  1  0  0  0  0
 12 31  1  0  0  0  0
 12 32  1  0  0  0  0
 12 33  1  0  0  0  0
 13 34  1  0  0  0  0
 13 35  1  0  0  0  0
 13 36  1  0  0  0  0
 14 17  1  0  0  0  0
 14 37  1  0  0  0  0
 14 38  1  0  0  0  0
 15 20  1  0  0  0  0
 15 39  1  0  0  0  0
 15 40  1  0  0  0  0
M  END
>  <Chemgauss4 Score>
-5.09587717056274

>  <Number of Confs>
54

$$$$
