DUN-NEW-f8c-17
 OpenBabel03242009303D

 51 54  0  0  0  0  0  0  0  0999 V2000
   13.3823   -2.3095   22.0527 C   0  0  0  0  0  0  0  0  0  0  0  0
    6.7684    0.0414   19.3876 C   0  0  0  0  0  0  0  0  0  0  0  0
   13.7183   -0.9509   22.0609 C   0  0  0  0  0  0  0  0  0  0  0  0
   12.2000   -2.7554   22.6402 C   0  0  0  0  0  0  0  0  0  0  0  0
    7.8028   -0.1467   20.2975 C   0  0  0  0  0  0  0  0  0  0  0  0
   12.8640    1.3797   22.8626 C   0  0  0  0  0  0  0  0  0  0  0  0
    5.7173   -0.8612   19.4048 C   0  0  0  0  0  0  0  0  0  0  0  0
    6.6597   -2.0627   21.1213 C   0  0  0  0  0  0  0  0  0  0  0  0
   11.7190    1.7268   23.5419 C   0  0  0  0  0  0  0  0  0  0  0  0
   12.8444   -0.0304   22.6729 C   0  0  0  0  0  0  0  0  0  0  0  0
   11.6667   -0.5058   23.2537 C   0  0  0  0  0  0  0  0  0  0  0  0
    7.7551   -1.2165   21.1844 C   0  0  0  0  0  0  0  0  0  0  0  0
   11.3178   -1.8610   23.2532 C   0  0  0  0  0  0  0  0  0  0  0  0
    8.8863   -2.4592   23.0720 C   0  0  0  0  0  0  0  0  0  0  0  0
    8.8068   -2.5755   25.9300 C   0  0  0  0  0  0  0  0  0  0  0  0
   10.5112   -4.3219   25.2677 C   0  0  0  0  0  0  0  0  0  0  0  0
    8.8172   -3.1085   27.3631 C   0  0  0  0  0  0  0  0  0  0  0  0
   10.5205   -4.8565   26.7005 C   0  0  0  0  0  0  0  0  0  0  0  0
   10.1377   -2.8382   25.2219 C   0  0  1  0  0  0  0  0  0  0  0  0
    9.2018   -4.5872   27.4250 C   0  0  2  0  0  0  0  0  0  0  0  0
    9.7337    0.5648   24.4689 C   0  0  0  0  0  0  0  0  0  0  0  0
    5.6360   -1.9122   20.2512 N   0  0  0  0  0  0  0  0  0  0  0  0
   11.0034    0.5828   23.7736 N   0  0  0  0  0  0  0  0  0  0  0  0
    8.7935   -1.4341   22.1222 N   0  0  0  0  0  0  0  0  0  0  0  0
   10.0872   -2.3657   23.8594 N   0  0  0  0  0  0  0  0  0  0  0  0
    8.0378   -3.3412   23.2135 O   0  0  0  0  0  0  0  0  0  0  0  0
    8.1793   -5.3779   26.8227 O   0  0  0  0  0  0  0  0  0  0  0  0
   14.0534   -3.0232   21.5816 H   0  0  0  0  0  0  0  0  0  0  0  0
    6.7846    0.8685   18.6870 H   0  0  0  0  0  0  0  0  0  0  0  0
   14.6431   -0.6173   21.5990 H   0  0  0  0  0  0  0  0  0  0  0  0
   11.9703   -3.8187   22.6157 H   0  0  0  0  0  0  0  0  0  0  0  0
    8.6404    0.5457   20.3070 H   0  0  0  0  0  0  0  0  0  0  0  0
   13.6322    2.0677   22.5370 H   0  0  0  0  0  0  0  0  0  0  0  0
    4.8865   -0.7587   18.7145 H   0  0  0  0  0  0  0  0  0  0  0  0
    6.5657   -2.9150   21.7877 H   0  0  0  0  0  0  0  0  0  0  0  0
   11.3584    2.6898   23.8775 H   0  0  0  0  0  0  0  0  0  0  0  0
    7.9777   -3.0189   25.3740 H   0  0  0  0  0  0  0  0  0  0  0  0
    8.6285   -1.4966   25.9576 H   0  0  0  0  0  0  0  0  0  0  0  0
   11.5100   -4.4462   24.8425 H   0  0  0  0  0  0  0  0  0  0  0  0
    9.8290   -4.9128   24.6543 H   0  0  0  0  0  0  0  0  0  0  0  0
    9.5171   -2.5218   27.9735 H   0  0  0  0  0  0  0  0  0  0  0  0
    7.8327   -2.9605   27.8290 H   0  0  0  0  0  0  0  0  0  0  0  0
   10.7276   -5.9358   26.6978 H   0  0  0  0  0  0  0  0  0  0  0  0
   11.3490   -4.4033   27.2607 H   0  0  0  0  0  0  0  0  0  0  0  0
   10.9247   -2.2541   25.7103 H   0  0  0  0  0  0  0  0  0  0  0  0
    9.2893   -4.9009   28.4740 H   0  0  0  0  0  0  0  0  0  0  0  0
    8.9408    0.6883   23.7265 H   0  0  0  0  0  0  0  0  0  0  0  0
    9.6200   -0.3873   24.9948 H   0  0  0  0  0  0  0  0  0  0  0  0
    9.7084    1.3809   25.1963 H   0  0  0  0  0  0  0  0  0  0  0  0
    9.5611   -0.7686   22.1039 H   0  0  0  0  0  0  0  0  0  0  0  0
    7.3671   -5.2132   27.3272 H   0  0  0  0  0  0  0  0  0  0  0  0
  1  3  2  0  0  0  0
  1  4  1  0  0  0  0
  1 28  1  0  0  0  0
  2  5  2  0  0  0  0
  2  7  1  0  0  0  0
  2 29  1  0  0  0  0
  3 10  1  0  0  0  0
  3 30  1  0  0  0  0
  4 13  2  0  0  0  0
  4 31  1  0  0  0  0
  5 12  1  0  0  0  0
  5 32  1  0  0  0  0
  6  9  2  0  0  0  0
  6 10  1  0  0  0  0
  6 33  1  0  0  0  0
  7 22  2  0  0  0  0
  7 34  1  0  0  0  0
  8 12  2  0  0  0  0
  8 22  1  0  0  0  0
  8 35  1  0  0  0  0
  9 23  1  0  0  0  0
  9 36  1  0  0  0  0
 10 11  2  0  0  0  0
 11 13  1  0  0  0  0
 11 23  1  0  0  0  0
 12 24  1  0  0  0  0
 13 25  1  0  0  0  0
 14 24  1  0  0  0  0
 14 25  1  0  0  0  0
 14 26  2  0  0  0  0
 15 17  1  0  0  0  0
 15 19  1  0  0  0  0
 15 37  1  0  0  0  0
 15 38  1  0  0  0  0
 16 18  1  0  0  0  0
 16 19  1  0  0  0  0
 16 39  1  0  0  0  0
 16 40  1  0  0  0  0
 17 20  1  0  0  0  0
 17 41  1  0  0  0  0
 17 42  1  0  0  0  0
 18 20  1  0  0  0  0
 18 43  1  0  0  0  0
 18 44  1  0  0  0  0
 19 25  1  0  0  0  0
 19 45  1  1  0  0  0
 20 27  1  0  0  0  0
 20 46  1  1  0  0  0
 21 23  1  0  0  0  0
 21 47  1  0  0  0  0
 21 48  1  0  0  0  0
 21 49  1  0  0  0  0
 24 50  1  0  0  0  0
 27 51  1  0  0  0  0
M  END
>  <Chemgauss4 Score>
-4.73341846466064

>  <Number of Confs>
23

$$$$
