DAV-AUT-fa2-3
 OpenBabel03242009303D

 48 50  0  0  1  0  0  0  0  0999 V2000
    7.0176   -3.2753   22.6626 C   0  0  0  0  0  0  0  0  0  0  0  0
    6.6787   -2.3733   21.6590 C   0  0  0  0  0  0  0  0  0  0  0  0
    8.8573   -1.3705   21.8630 C   0  0  0  0  0  0  0  0  0  0  0  0
    8.2790   -3.2332   23.2962 C   0  0  0  0  0  0  0  0  0  0  0  0
    9.2426   -2.2732   22.8794 C   0  0  0  0  0  0  0  0  0  0  0  0
    7.5974   -1.4165   21.2626 C   0  0  0  0  0  0  0  0  0  0  0  0
   12.7370   -2.0423   22.4531 C   0  0  0  0  0  0  0  0  0  0  0  0
   11.9226   -0.3015   24.0675 C   0  0  0  0  0  0  0  0  0  0  0  0
   10.9474   -3.2543   24.3779 C   0  0  0  0  0  0  0  0  0  0  0  0
   13.8413   -1.0664   22.0673 C   0  0  0  0  0  0  0  0  0  0  0  0
   13.0713    0.5777   23.5899 C   0  0  0  0  0  0  0  0  0  0  0  0
   11.5120   -1.2918   22.9767 C   0  0  0  0  0  0  0  0  0  0  0  0
    8.6086   -4.2548   24.3937 C   0  0  0  0  0  0  0  0  0  0  0  0
    9.7917   -3.7336   25.2272 C   0  0  0  0  0  0  0  0  0  0  0  0
    8.9699   -5.5931   23.7140 C   0  0  0  0  0  0  0  0  0  0  0  0
    7.4303   -4.5039   25.3618 C   0  0  0  0  0  0  0  0  0  0  0  0
    7.3176    1.3432   20.7815 C   0  0  0  0  0  0  0  0  0  0  0  0
    8.2924   -0.3454   18.9490 N   0  0  0  0  0  0  0  0  0  0  0  0
   10.5116   -2.2113   23.4581 N   0  0  0  0  0  0  0  0  0  0  0  0
    5.7505   -0.4123   19.7432 O   0  0  0  0  0  0  0  0  0  0  0  0
   14.1767   -0.2203   23.1669 O   0  0  0  0  0  0  0  0  0  0  0  0
   10.2327   -4.6993   26.0740 F   0  0  0  0  0  0  0  0  0  0  0  0
    9.3844   -2.7004   26.0160 F   0  0  0  0  0  0  0  0  0  0  0  0
    7.1763   -0.2619   20.0224 S   0  0  1  0  0  0  0  0  0  0  0  0
    6.2732   -4.0124   22.9514 H   0  0  0  0  0  0  0  0  0  0  0  0
    5.6961   -2.4279   21.1988 H   0  0  0  0  0  0  0  0  0  0  0  0
    9.5444   -0.5986   21.5221 H   0  0  0  0  0  0  0  0  0  0  0  0
   12.4360   -2.5968   21.5590 H   0  0  0  0  0  0  0  0  0  0  0  0
   13.1006   -2.7691   23.1823 H   0  0  0  0  0  0  0  0  0  0  0  0
   12.1862   -0.8144   24.9933 H   0  0  0  0  0  0  0  0  0  0  0  0
   11.0624    0.3393   24.2795 H   0  0  0  0  0  0  0  0  0  0  0  0
   11.7755   -2.8910   24.9966 H   0  0  0  0  0  0  0  0  0  0  0  0
   11.3360   -4.1120   23.8153 H   0  0  0  0  0  0  0  0  0  0  0  0
   14.7409   -1.5875   21.7186 H   0  0  0  0  0  0  0  0  0  0  0  0
   13.4983   -0.4246   21.2488 H   0  0  0  0  0  0  0  0  0  0  0  0
   12.7480    1.1770   22.7331 H   0  0  0  0  0  0  0  0  0  0  0  0
   13.4006    1.2725   24.3709 H   0  0  0  0  0  0  0  0  0  0  0  0
   11.0641   -0.7209   22.1341 H   0  0  0  0  0  0  0  0  0  0  0  0
    9.2048   -6.3233   24.4784 H   0  0  0  0  0  0  0  0  0  0  0  0
    9.8282   -5.4404   23.0716 H   0  0  0  0  0  0  0  0  0  0  0  0
    8.1236   -5.9294   23.1280 H   0  0  0  0  0  0  0  0  0  0  0  0
    7.7328   -5.2312   26.1055 H   0  0  0  0  0  0  0  0  0  0  0  0
    6.5852   -4.8809   24.7988 H   0  0  0  0  0  0  0  0  0  0  0  0
    7.1667   -3.5703   25.8438 H   0  0  0  0  0  0  0  0  0  0  0  0
    7.0619    2.0996   20.0378 H   0  0  0  0  0  0  0  0  0  0  0  0
    6.6269    1.3873   21.6248 H   0  0  0  0  0  0  0  0  0  0  0  0
    8.3459    1.4738   21.1218 H   0  0  0  0  0  0  0  0  0  0  0  0
    8.1528    0.2944   18.1613 H   0  0  0  0  0  0  0  0  0  0  0  0
  1  2  2  0  0  0  0
  1  4  1  0  0  0  0
  1 25  1  0  0  0  0
  2  6  1  0  0  0  0
  2 26  1  0  0  0  0
  3  5  1  0  0  0  0
  3  6  2  0  0  0  0
  3 27  1  0  0  0  0
  4  5  2  0  0  0  0
  4 13  1  0  0  0  0
  5 19  1  0  0  0  0
  6 24  1  0  0  0  0
  7 10  1  0  0  0  0
  7 12  1  0  0  0  0
  7 28  1  0  0  0  0
  7 29  1  0  0  0  0
  8 11  1  0  0  0  0
  8 12  1  0  0  0  0
  8 30  1  0  0  0  0
  8 31  1  0  0  0  0
  9 14  1  0  0  0  0
  9 19  1  0  0  0  0
  9 32  1  0  0  0  0
  9 33  1  0  0  0  0
 10 21  1  0  0  0  0
 10 34  1  0  0  0  0
 10 35  1  0  0  0  0
 11 21  1  0  0  0  0
 11 36  1  0  0  0  0
 11 37  1  0  0  0  0
 12 19  1  0  0  0  0
 12 38  1  0  0  0  0
 13 14  1  0  0  0  0
 13 15  1  0  0  0  0
 13 16  1  0  0  0  0
 14 22  1  0  0  0  0
 14 23  1  0  0  0  0
 15 39  1  0  0  0  0
 15 40  1  0  0  0  0
 15 41  1  0  0  0  0
 16 42  1  0  0  0  0
 16 43  1  0  0  0  0
 16 44  1  0  0  0  0
 17 24  1  0  0  0  0
 17 45  1  0  0  0  0
 17 46  1  0  0  0  0
 17 47  1  0  0  0  0
 18 24  2  0  0  0  0
 18 48  1  0  0  0  0
 24 20  2  6  0  0  0
M  END
>  <Chemgauss4 Score>
-5.56031227111816

>  <Number of Confs>
12

$$$$
