DAR-DIA-fc9-7
 OpenBabel03242009303D

 35 37  0  0  1  0  0  0  0  0999 V2000
   13.0745    0.0320   23.1959 C   0  0  0  0  0  0  0  0  0  0  0  0
   12.5204   -0.5867   22.0753 C   0  0  0  0  0  0  0  0  0  0  0  0
   12.5183   -0.1816   24.4571 C   0  0  0  0  0  0  0  0  0  0  0  0
    7.5658   -6.4416   27.8461 C   0  0  0  0  0  0  0  0  0  0  0  0
   11.4099   -1.4190   22.2159 C   0  0  0  0  0  0  0  0  0  0  0  0
   11.4078   -1.0139   24.5977 C   0  0  0  0  0  0  0  0  0  0  0  0
    7.8077   -5.8558   26.6085 C   0  0  0  0  0  0  0  0  0  0  0  0
    7.6400   -5.6357   28.9707 C   0  0  0  0  0  0  0  0  0  0  0  0
    8.1618   -3.7820   27.7178 C   0  0  0  0  0  0  0  0  0  0  0  0
   10.8536   -1.6326   23.4771 C   0  0  0  0  0  0  0  0  0  0  0  0
    8.1122   -4.5011   26.5344 C   0  0  0  0  0  0  0  0  0  0  0  0
    9.6040   -3.2389   24.9946 C   0  0  0  0  0  0  0  0  0  0  0  0
    7.1357   -2.7089   23.4292 C   0  0  0  0  0  0  0  0  0  0  0  0
    8.3368   -1.7705   23.4192 C   0  0  0  0  0  0  0  0  0  0  0  0
    7.3940   -4.0143   24.1812 C   0  0  0  0  0  0  0  0  0  0  0  0
    9.6437   -2.5391   23.6310 C   0  0  1  0  0  0  0  0  0  0  0  0
    7.9328   -4.3163   28.9383 N   0  0  0  0  0  0  0  0  0  0  0  0
    8.3678   -3.8663   25.2685 N   0  0  0  0  0  0  0  0  0  0  0  0
   10.6010   -3.2794   25.7162 O   0  0  0  0  0  0  0  0  0  0  0  0
   13.9400    0.6790   23.0864 H   0  0  0  0  0  0  0  0  0  0  0  0
   12.9541   -0.4214   21.0933 H   0  0  0  0  0  0  0  0  0  0  0  0
   12.9501    0.2991   25.3299 H   0  0  0  0  0  0  0  0  0  0  0  0
    7.3266   -7.4957   27.9277 H   0  0  0  0  0  0  0  0  0  0  0  0
   10.9847   -1.8968   21.3372 H   0  0  0  0  0  0  0  0  0  0  0  0
   10.9810   -1.1744   25.5842 H   0  0  0  0  0  0  0  0  0  0  0  0
    7.7565   -6.4636   25.7090 H   0  0  0  0  0  0  0  0  0  0  0  0
    7.4605   -6.0449   29.9595 H   0  0  0  0  0  0  0  0  0  0  0  0
    8.3941   -2.7212   27.7243 H   0  0  0  0  0  0  0  0  0  0  0  0
    6.2652   -2.1914   23.8842 H   0  0  0  0  0  0  0  0  0  0  0  0
    6.8243   -2.9355   22.3865 H   0  0  0  0  0  0  0  0  0  0  0  0
    8.3657   -1.2245   22.4589 H   0  0  0  0  0  0  0  0  0  0  0  0
    8.2068   -0.9981   24.2004 H   0  0  0  0  0  0  0  0  0  0  0  0
    6.4625   -4.3640   24.6278 H   0  0  0  0  0  0  0  0  0  0  0  0
    7.7535   -4.7680   23.4816 H   0  0  0  0  0  0  0  0  0  0  0  0
    9.7149   -3.3339   22.8858 H   0  0  0  0  0  0  0  0  0  0  0  0
  1  2  1  0  0  0  0
  1  3  2  0  0  0  0
  1 20  1  0  0  0  0
  2  5  2  0  0  0  0
  2 21  1  0  0  0  0
  3  6  1  0  0  0  0
  3 22  1  0  0  0  0
  4  7  2  0  0  0  0
  4  8  1  0  0  0  0
  4 23  1  0  0  0  0
  5 10  1  0  0  0  0
  5 24  1  0  0  0  0
  6 10  2  0  0  0  0
  6 25  1  0  0  0  0
  7 11  1  0  0  0  0
  7 26  1  0  0  0  0
  8 17  2  0  0  0  0
  8 27  1  0  0  0  0
  9 11  2  0  0  0  0
  9 17  1  0  0  0  0
  9 28  1  0  0  0  0
 10 16  1  0  0  0  0
 11 18  1  0  0  0  0
 12 16  1  0  0  0  0
 12 18  1  0  0  0  0
 12 19  2  0  0  0  0
 13 14  1  0  0  0  0
 13 15  1  0  0  0  0
 13 29  1  0  0  0  0
 13 30  1  0  0  0  0
 14 16  1  0  0  0  0
 14 31  1  0  0  0  0
 14 32  1  0  0  0  0
 15 18  1  0  0  0  0
 15 33  1  0  0  0  0
 15 34  1  0  0  0  0
 16 35  1  6  0  0  0
M  END
>  <Chemgauss4 Score>
-4.98037385940552

>  <Number of Confs>
20

$$$$
