JOH-MEM-5e3-3
 OpenBabel03242009303D

 53 55  0  0  1  0  0  0  0  0999 V2000
    7.8205   -2.0362   23.7761 C   0  0  0  0  0  0  0  0  0  0  0  0
    7.1285   -1.1728   22.9220 C   0  0  0  0  0  0  0  0  0  0  0  0
    9.1815   -0.5702   21.7735 C   0  0  0  0  0  0  0  0  0  0  0  0
   11.3811   -2.6983   23.7717 C   0  0  0  0  0  0  0  0  0  0  0  0
    9.9004   -1.4345   22.6228 C   0  0  0  0  0  0  0  0  0  0  0  0
   11.2724   -1.7931   22.7414 C   0  0  0  0  0  0  0  0  0  0  0  0
    9.2047   -2.1462   23.6026 C   0  0  0  0  0  0  0  0  0  0  0  0
    7.7965   -0.4501   21.9354 C   0  0  0  0  0  0  0  0  0  0  0  0
    6.8459   -5.8377   25.9143 C   0  0  0  0  0  0  0  0  0  0  0  0
   12.4769    0.5397   24.6994 C   0  0  0  0  0  0  0  0  0  0  0  0
    8.2356   -5.4118   26.2605 C   0  0  2  0  0  0  0  0  0  0  0  0
    8.2944   -4.8521   27.6806 C   0  0  2  0  0  0  0  0  0  0  0  0
    9.6245   -4.1325   27.9174 C   0  0  1  0  0  0  0  0  0  0  0  0
    9.9124   -3.1268   26.8001 C   0  0  1  0  0  0  0  0  0  0  0  0
    9.8227   -3.8366   25.4407 C   0  0  2  0  0  0  0  0  0  0  0  0
   13.1733    0.5865   26.0190 C   0  0  0  0  0  0  0  0  0  0  0  0
    7.8341    1.0948   20.1278 C   0  0  0  0  0  0  0  0  0  0  0  0
   12.3875   -1.2888   21.9146 C   0  0  0  0  0  0  0  0  0  0  0  0
   12.8380    0.1392   22.2722 C   0  0  0  0  0  0  0  0  0  0  0  0
   10.1287   -2.9052   24.2848 N   0  0  0  0  0  0  0  0  0  0  0  0
   13.3037    0.2369   23.6296 N   0  0  0  0  0  0  0  0  0  0  0  0
    6.1612   -5.3464   25.0294 O   0  0  0  0  0  0  0  0  0  0  0  0
   11.2727    0.7599   24.6437 O   0  0  0  0  0  0  0  0  0  0  0  0
    8.5221   -4.4190   25.2784 O   0  0  0  0  0  0  0  0  0  0  0  0
    6.4402   -6.8488   26.7207 O   0  0  0  0  0  0  0  0  0  0  0  0
    8.1790   -5.9363   28.6009 O   0  0  0  0  0  0  0  0  0  0  0  0
    9.5771   -3.4660   29.1762 O   0  0  0  0  0  0  0  0  0  0  0  0
    8.9366   -2.0821   26.8482 O   0  0  0  0  0  0  0  0  0  0  0  0
    7.0938    0.3832   21.1172 O   0  0  0  0  0  0  0  0  0  0  0  0
    7.2953   -2.5964   24.5426 H   0  0  0  0  0  0  0  0  0  0  0  0
    6.0516   -1.0702   23.0343 H   0  0  0  0  0  0  0  0  0  0  0  0
    9.6930   -0.0021   21.0011 H   0  0  0  0  0  0  0  0  0  0  0  0
   12.2425   -3.2080   24.1831 H   0  0  0  0  0  0  0  0  0  0  0  0
    8.8958   -6.2759   26.1262 H   0  0  0  0  0  0  0  0  0  0  0  0
    7.4566   -4.1706   27.8745 H   0  0  0  0  0  0  0  0  0  0  0  0
   10.4336   -4.8700   27.9773 H   0  0  0  0  0  0  0  0  0  0  0  0
   10.8950   -2.6592   26.9445 H   0  0  0  0  0  0  0  0  0  0  0  0
   10.5973   -4.6241   25.3584 H   0  0  0  0  0  0  0  0  0  0  0  0
   13.5582    1.5914   26.2559 H   0  0  0  0  0  0  0  0  0  0  0  0
   12.5060    0.3256   26.8561 H   0  0  0  0  0  0  0  0  0  0  0  0
   14.0397   -0.0866   26.1187 H   0  0  0  0  0  0  0  0  0  0  0  0
    7.1552    1.7219   19.5447 H   0  0  0  0  0  0  0  0  0  0  0  0
    8.3446    0.3846   19.4725 H   0  0  0  0  0  0  0  0  0  0  0  0
    8.5744    1.7268   20.6240 H   0  0  0  0  0  0  0  0  0  0  0  0
   12.1008   -1.2961   20.8444 H   0  0  0  0  0  0  0  0  0  0  0  0
   13.2671   -1.9616   21.9705 H   0  0  0  0  0  0  0  0  0  0  0  0
   13.6643    0.4622   21.6310 H   0  0  0  0  0  0  0  0  0  0  0  0
   12.0150    0.8516   22.1532 H   0  0  0  0  0  0  0  0  0  0  0  0
   14.2926    0.0751   23.8139 H   0  0  0  0  0  0  0  0  0  0  0  0
    5.5280   -7.1419   26.5102 H   0  0  0  0  0  0  0  0  0  0  0  0
    8.9258   -6.5279   28.4230 H   0  0  0  0  0  0  0  0  0  0  0  0
   10.4336   -3.0251   29.2876 H   0  0  0  0  0  0  0  0  0  0  0  0
    8.0770   -2.5094   26.7228 H   0  0  0  0  0  0  0  0  0  0  0  0
  1  2  2  0  0  0  0
  1  7  1  0  0  0  0
  1 30  1  0  0  0  0
  2  8  1  0  0  0  0
  2 31  1  0  0  0  0
  3  5  1  0  0  0  0
  3  8  2  0  0  0  0
  3 32  1  0  0  0  0
  4  6  2  0  0  0  0
  4 20  1  0  0  0  0
  4 33  1  0  0  0  0
  5  6  1  0  0  0  0
  5  7  2  0  0  0  0
  6 18  1  0  0  0  0
  7 20  1  0  0  0  0
  8 29  1  0  0  0  0
  9 11  1  0  0  0  0
  9 22  2  0  0  0  0
  9 25  1  0  0  0  0
 10 16  1  0  0  0  0
 10 21  1  0  0  0  0
 10 23  2  0  0  0  0
 11 12  1  0  0  0  0
 11 24  1  0  0  0  0
 11 34  1  6  0  0  0
 12 13  1  0  0  0  0
 12 26  1  0  0  0  0
 12 35  1  1  0  0  0
 13 14  1  0  0  0  0
 13 27  1  0  0  0  0
 13 36  1  1  0  0  0
 14 15  1  0  0  0  0
 14 28  1  0  0  0  0
 14 37  1  1  0  0  0
 15 20  1  0  0  0  0
 15 24  1  0  0  0  0
 15 38  1  6  0  0  0
 16 39  1  0  0  0  0
 16 40  1  0  0  0  0
 16 41  1  0  0  0  0
 17 29  1  0  0  0  0
 17 42  1  0  0  0  0
 17 43  1  0  0  0  0
 17 44  1  0  0  0  0
 18 19  1  0  0  0  0
 18 45  1  0  0  0  0
 18 46  1  0  0  0  0
 19 21  1  0  0  0  0
 19 47  1  0  0  0  0
 19 48  1  0  0  0  0
 21 49  1  0  0  0  0
 25 50  1  0  0  0  0
 26 51  1  0  0  0  0
 27 52  1  0  0  0  0
 28 53  1  0  0  0  0
M  END
>  <Chemgauss4 Score>
-4.79766845703125

>  <Number of Confs>
200

$$$$
