HEI-REL-0c9-6
 OpenBabel03242009303D

 53 56  0  0  1  0  0  0  0  0999 V2000
   11.6047   -1.1617   23.6452 C   0  0  0  0  0  0  0  0  0  0  0  0
   10.7907   -1.2935   22.5239 C   0  0  0  0  0  0  0  0  0  0  0  0
   11.4149   -1.9965   24.7459 C   0  0  0  0  0  0  0  0  0  0  0  0
    9.7875   -2.2615   22.5013 C   0  0  0  0  0  0  0  0  0  0  0  0
    5.4256   -2.9675   20.0110 C   0  0  0  0  0  0  0  0  0  0  0  0
    5.4882   -1.7375   19.3670 C   0  0  0  0  0  0  0  0  0  0  0  0
    6.5670   -0.8010   21.3135 C   0  0  0  0  0  0  0  0  0  0  0  0
   10.4076   -2.9732   24.7373 C   0  0  0  0  0  0  0  0  0  0  0  0
    9.5897   -3.1099   23.6015 C   0  0  0  0  0  0  0  0  0  0  0  0
    5.9256   -3.1199   21.3168 C   0  0  0  0  0  0  0  0  0  0  0  0
    6.5272   -2.0338   21.9958 C   0  0  0  0  0  0  0  0  0  0  0  0
    6.0565   -0.6531   20.0199 C   0  0  0  0  0  0  0  0  0  0  0  0
    8.5022   -5.3898   26.9648 C   0  0  0  0  0  0  0  0  0  0  0  0
    5.8396   -4.4840   21.9538 C   0  0  0  0  0  0  0  0  0  0  0  0
   10.2390   -3.8556   25.9498 C   0  0  0  0  0  0  0  0  0  0  0  0
    5.9570   -4.3943   23.4680 C   0  0  0  0  0  0  0  0  0  0  0  0
    8.8170   -5.3080   24.5155 C   0  0  0  0  0  0  0  0  0  0  0  0
    8.4920   -4.1507   23.5645 C   0  0  1  0  0  0  0  0  0  0  0  0
    7.1366   -3.5193   23.8948 C   0  0  1  0  0  0  0  0  0  0  0  0
    8.4463   -4.5420   28.2119 C   0  0  0  0  0  0  0  0  0  0  0  0
    7.3219   -1.0295   24.1246 C   0  0  0  0  0  0  0  0  0  0  0  0
    7.0398   -2.1868   23.2842 N   0  0  0  0  0  0  0  0  0  0  0  0
    9.1365   -4.8215   25.8572 N   0  0  0  0  0  0  0  0  0  0  0  0
    7.6548    0.7815   18.4412 N   0  0  0  0  0  0  0  0  0  0  0  0
    7.9939   -6.5135   26.9734 O   0  0  0  0  0  0  0  0  0  0  0  0
    5.0928    0.9509   18.2110 O   0  0  0  0  0  0  0  0  0  0  0  0
    6.2164    1.9375   20.2389 O   0  0  0  0  0  0  0  0  0  0  0  0
    6.1395    0.8983   19.2218 S   0  0  0  0  0  0  0  0  0  0  0  0
   12.3868   -0.4085   23.6643 H   0  0  0  0  0  0  0  0  0  0  0  0
   10.9366   -0.6430   21.6666 H   0  0  0  0  0  0  0  0  0  0  0  0
   12.0577   -1.8817   25.6153 H   0  0  0  0  0  0  0  0  0  0  0  0
    9.1588   -2.3526   21.6191 H   0  0  0  0  0  0  0  0  0  0  0  0
    4.9811   -3.8142   19.4933 H   0  0  0  0  0  0  0  0  0  0  0  0
    5.0923   -1.6377   18.3604 H   0  0  0  0  0  0  0  0  0  0  0  0
    7.0089    0.0751   21.7836 H   0  0  0  0  0  0  0  0  0  0  0  0
    4.8827   -4.9574   21.7030 H   0  0  0  0  0  0  0  0  0  0  0  0
    6.6368   -5.1152   21.5443 H   0  0  0  0  0  0  0  0  0  0  0  0
   11.1537   -4.4418   26.0982 H   0  0  0  0  0  0  0  0  0  0  0  0
   10.0923   -3.2183   26.8269 H   0  0  0  0  0  0  0  0  0  0  0  0
    5.0325   -3.9680   23.8809 H   0  0  0  0  0  0  0  0  0  0  0  0
    6.0506   -5.4011   23.8917 H   0  0  0  0  0  0  0  0  0  0  0  0
    7.9878   -6.0232   24.5436 H   0  0  0  0  0  0  0  0  0  0  0  0
    9.6993   -5.8576   24.1622 H   0  0  0  0  0  0  0  0  0  0  0  0
    8.4406   -4.5683   22.5502 H   0  0  0  0  0  0  0  0  0  0  0  0
    7.0780   -3.4180   24.9865 H   0  0  0  0  0  0  0  0  0  0  0  0
    7.5393   -3.9476   28.1953 H   0  0  0  0  0  0  0  0  0  0  0  0
    9.3155   -3.8931   28.2385 H   0  0  0  0  0  0  0  0  0  0  0  0
    8.4499   -5.1908   29.0814 H   0  0  0  0  0  0  0  0  0  0  0  0
    7.7169   -1.3673   25.0941 H   0  0  0  0  0  0  0  0  0  0  0  0
    8.0661   -0.3890   23.6287 H   0  0  0  0  0  0  0  0  0  0  0  0
    6.3955   -0.4585   24.2852 H   0  0  0  0  0  0  0  0  0  0  0  0
    7.6636    0.6755   17.4194 H   0  0  0  0  0  0  0  0  0  0  0  0
    8.4300    1.3481   18.8065 H   0  0  0  0  0  0  0  0  0  0  0  0
  1  2  1  0  0  0  0
  1  3  2  0  0  0  0
  1 29  1  0  0  0  0
  2  4  2  0  0  0  0
  2 30  1  0  0  0  0
  3  8  1  0  0  0  0
  3 31  1  0  0  0  0
  4  9  1  0  0  0  0
  4 32  1  0  0  0  0
  5  6  2  0  0  0  0
  5 10  1  0  0  0  0
  5 33  1  0  0  0  0
  6 12  1  0  0  0  0
  6 34  1  0  0  0  0
  7 11  1  0  0  0  0
  7 12  2  0  0  0  0
  7 35  1  0  0  0  0
  8  9  2  0  0  0  0
  8 15  1  0  0  0  0
  9 18  1  0  0  0  0
 10 11  2  0  0  0  0
 10 14  1  0  0  0  0
 11 22  1  0  0  0  0
 12 28  1  0  0  0  0
 13 20  1  0  0  0  0
 13 23  1  0  0  0  0
 13 25  2  0  0  0  0
 14 16  1  0  0  0  0
 14 36  1  0  0  0  0
 14 37  1  0  0  0  0
 15 23  1  0  0  0  0
 15 38  1  0  0  0  0
 15 39  1  0  0  0  0
 16 19  1  0  0  0  0
 16 40  1  0  0  0  0
 16 41  1  0  0  0  0
 17 18  1  0  0  0  0
 17 23  1  0  0  0  0
 17 42  1  0  0  0  0
 17 43  1  0  0  0  0
 18 19  1  0  0  0  0
 18 44  1  6  0  0  0
 19 22  1  0  0  0  0
 19 45  1  1  0  0  0
 20 46  1  0  0  0  0
 20 47  1  0  0  0  0
 20 48  1  0  0  0  0
 21 22  1  0  0  0  0
 21 49  1  0  0  0  0
 21 50  1  0  0  0  0
 21 51  1  0  0  0  0
 24 28  1  0  0  0  0
 24 52  1  0  0  0  0
 24 53  1  0  0  0  0
 26 28  2  0  0  0  0
 27 28  2  0  0  0  0
M  END
>  <Chemgauss4 Score>
-5.54669189453125

>  <Number of Confs>
9

$$$$
