JOH-MEM-5e3-7
 OpenBabel03242009303D

 22 23  0  0  0  0  0  0  0  0999 V2000
    9.1501   -3.2330   27.3367 C   0  0  0  0  0  0  0  0  0  0  0  0
    9.3081   -4.6204   27.2732 C   0  0  0  0  0  0  0  0  0  0  0  0
   10.4785   -4.4481   25.1524 C   0  0  0  0  0  0  0  0  0  0  0  0
   10.2949   -0.8059   24.9046 C   0  0  0  0  0  0  0  0  0  0  0  0
   10.3312   -3.0474   25.1946 C   0  0  0  0  0  0  0  0  0  0  0  0
   10.7189   -1.9833   24.3329 C   0  0  0  0  0  0  0  0  0  0  0  0
    9.6717   -2.4733   26.2836 C   0  0  0  0  0  0  0  0  0  0  0  0
    9.9617   -5.2207   26.1988 C   0  0  0  0  0  0  0  0  0  0  0  0
   12.3499   -0.9323   22.7255 C   0  0  0  0  0  0  0  0  0  0  0  0
   11.4464   -2.1082   23.0539 C   0  0  0  0  0  0  0  0  0  0  0  0
    9.6646   -1.1116   26.0809 N   0  0  0  0  0  0  0  0  0  0  0  0
   13.4148   -1.0308   22.1248 O   0  0  0  0  0  0  0  0  0  0  0  0
   10.1012   -6.5761   26.1652 O   0  0  0  0  0  0  0  0  0  0  0  0
    8.6406   -2.7667   28.1734 H   0  0  0  0  0  0  0  0  0  0  0  0
    8.9110   -5.2345   28.0782 H   0  0  0  0  0  0  0  0  0  0  0  0
   10.9871   -4.9252   24.3191 H   0  0  0  0  0  0  0  0  0  0  0  0
   10.3844    0.2218   24.5811 H   0  0  0  0  0  0  0  0  0  0  0  0
   11.9931    0.0559   23.0643 H   0  0  0  0  0  0  0  0  0  0  0  0
   10.7507   -2.2213   22.2019 H   0  0  0  0  0  0  0  0  0  0  0  0
   12.0831   -3.0121   23.0369 H   0  0  0  0  0  0  0  0  0  0  0  0
    9.2528   -0.4362   26.7099 H   0  0  0  0  0  0  0  0  0  0  0  0
   10.5738   -6.8438   25.3618 H   0  0  0  0  0  0  0  0  0  0  0  0
  1  2  2  0  0  0  0
  1  7  1  0  0  0  0
  1 14  1  0  0  0  0
  2  8  1  0  0  0  0
  2 15  1  0  0  0  0
  3  5  1  0  0  0  0
  3  8  2  0  0  0  0
  3 16  1  0  0  0  0
  4  6  2  0  0  0  0
  4 11  1  0  0  0  0
  4 17  1  0  0  0  0
  5  6  1  0  0  0  0
  5  7  2  0  0  0  0
  6 10  1  0  0  0  0
  7 11  1  0  0  0  0
  8 13  1  0  0  0  0
  9 10  1  0  0  0  0
  9 12  2  0  0  0  0
  9 18  1  0  0  0  0
 10 19  1  0  0  0  0
 10 20  1  0  0  0  0
 11 21  1  0  0  0  0
 13 22  1  0  0  0  0
M  END
>  <Chemgauss4 Score>
-6.39984846115112

>  <Number of Confs>
5

$$$$
