JOH-MSK-ec6-3
 OpenBabel03242009303D

 35 36  0  0  0  0  0  0  0  0999 V2000
    8.0114   -2.1979   27.0374 C   0  0  0  0  0  0  0  0  0  0  0  0
    8.4575   -1.1830   26.1905 C   0  0  0  0  0  0  0  0  0  0  0  0
    9.9575   -0.4088   24.4147 C   0  0  0  0  0  0  0  0  0  0  0  0
    8.5956   -3.4598   26.9808 C   0  0  0  0  0  0  0  0  0  0  0  0
   10.9902   -0.6605   23.5111 C   0  0  0  0  0  0  0  0  0  0  0  0
   11.1284   -2.9374   24.3014 C   0  0  0  0  0  0  0  0  0  0  0  0
    9.4958   -1.4186   25.2747 C   0  0  0  0  0  0  0  0  0  0  0  0
   10.0900   -2.7018   25.2172 C   0  0  0  0  0  0  0  0  0  0  0  0
    9.6283   -3.7115   26.0771 C   0  0  0  0  0  0  0  0  0  0  0  0
   11.5745   -1.9224   23.4545 C   0  0  0  0  0  0  0  0  0  0  0  0
    8.0416   -5.0207   23.5421 C   0  0  0  0  0  0  0  0  0  0  0  0
    8.0051   -4.8147   22.0641 C   0  0  0  0  0  0  0  0  0  0  0  0
   12.9882   -1.0836   21.7359 C   0  0  0  0  0  0  0  0  0  0  0  0
   10.2117   -5.0906   26.0686 C   0  0  0  0  0  0  0  0  0  0  0  0
    9.3231   -6.1214   25.3666 C   0  0  0  0  0  0  0  0  0  0  0  0
    9.0990   -5.8004   23.9825 N   0  0  0  0  0  0  0  0  0  0  0  0
    7.1765   -4.5111   24.2447 O   0  0  0  0  0  0  0  0  0  0  0  0
   12.5818   -2.1659   22.5719 O   0  0  0  0  0  0  0  0  0  0  0  0
    7.2066   -2.0025   27.7401 H   0  0  0  0  0  0  0  0  0  0  0  0
    7.9861   -0.2044   26.2521 H   0  0  0  0  0  0  0  0  0  0  0  0
    9.5147    0.5846   24.4419 H   0  0  0  0  0  0  0  0  0  0  0  0
    8.2397   -4.2423   27.6459 H   0  0  0  0  0  0  0  0  0  0  0  0
   11.3332    0.1339   22.8534 H   0  0  0  0  0  0  0  0  0  0  0  0
   11.6064   -3.9122   24.2322 H   0  0  0  0  0  0  0  0  0  0  0  0
    7.4214   -5.5922   21.5455 H   0  0  0  0  0  0  0  0  0  0  0  0
    7.5317   -3.8600   21.7841 H   0  0  0  0  0  0  0  0  0  0  0  0
    8.9872   -4.8083   21.5648 H   0  0  0  0  0  0  0  0  0  0  0  0
   13.7982   -1.4128   21.0804 H   0  0  0  0  0  0  0  0  0  0  0  0
   13.3238   -0.2489   22.3564 H   0  0  0  0  0  0  0  0  0  0  0  0
   12.1378   -0.7648   21.1286 H   0  0  0  0  0  0  0  0  0  0  0  0
   10.3798   -5.4164   27.1068 H   0  0  0  0  0  0  0  0  0  0  0  0
   11.2081   -5.0816   25.5992 H   0  0  0  0  0  0  0  0  0  0  0  0
    9.7954   -7.1085   25.3892 H   0  0  0  0  0  0  0  0  0  0  0  0
    8.3438   -6.2003   25.8501 H   0  0  0  0  0  0  0  0  0  0  0  0
    9.7515   -6.1651   23.2903 H   0  0  0  0  0  0  0  0  0  0  0  0
  1  2  2  0  0  0  0
  1  4  1  0  0  0  0
  1 19  1  0  0  0  0
  2  7  1  0  0  0  0
  2 20  1  0  0  0  0
  3  5  2  0  0  0  0
  3  7  1  0  0  0  0
  3 21  1  0  0  0  0
  4  9  2  0  0  0  0
  4 22  1  0  0  0  0
  5 10  1  0  0  0  0
  5 23  1  0  0  0  0
  6  8  1  0  0  0  0
  6 10  2  0  0  0  0
  6 24  1  0  0  0  0
  7  8  2  0  0  0  0
  8  9  1  0  0  0  0
  9 14  1  0  0  0  0
 10 18  1  0  0  0  0
 11 12  1  0  0  0  0
 11 16  1  0  0  0  0
 11 17  2  0  0  0  0
 12 25  1  0  0  0  0
 12 26  1  0  0  0  0
 12 27  1  0  0  0  0
 13 18  1  0  0  0  0
 13 28  1  0  0  0  0
 13 29  1  0  0  0  0
 13 30  1  0  0  0  0
 14 15  1  0  0  0  0
 14 31  1  0  0  0  0
 14 32  1  0  0  0  0
 15 16  1  0  0  0  0
 15 33  1  0  0  0  0
 15 34  1  0  0  0  0
 16 35  1  0  0  0  0
M  END
>  <Chemgauss4 Score>
-5.43759155273438

>  <Number of Confs>
54

$$$$
