TRY-UNI-1fd-6
 OpenBabel03242009303D

 36 38  0  0  0  0  0  0  0  0999 V2000
   13.1085   -1.2752   22.2415 C   0  0  0  0  0  0  0  0  0  0  0  0
   10.8532    0.7486   24.4034 C   0  0  0  0  0  0  0  0  0  0  0  0
   10.0846   -4.9331   25.9180 C   0  0  0  0  0  0  0  0  0  0  0  0
   12.0123    0.2101   23.8448 C   0  0  0  0  0  0  0  0  0  0  0  0
    8.9368   -4.2975   25.4478 C   0  0  0  0  0  0  0  0  0  0  0  0
    9.6021    0.3530   23.9300 C   0  0  0  0  0  0  0  0  0  0  0  0
   10.6694   -1.1193   22.3394 C   0  0  0  0  0  0  0  0  0  0  0  0
   10.3335   -4.9374   27.2839 C   0  0  0  0  0  0  0  0  0  0  0  0
    6.5351   -2.6321   27.6384 C   0  0  0  0  0  0  0  0  0  0  0  0
   11.9205   -0.7238   22.8128 C   0  0  0  0  0  0  0  0  0  0  0  0
    8.0898   -3.6922   26.3902 C   0  0  0  0  0  0  0  0  0  0  0  0
    9.5102   -0.5809   22.8980 C   0  0  0  0  0  0  0  0  0  0  0  0
    6.8691   -2.9682   26.3441 C   0  0  0  0  0  0  0  0  0  0  0  0
    8.4607   -3.7721   27.7293 C   0  0  0  0  0  0  0  0  0  0  0  0
    6.6688   -1.4769   24.3160 C   0  0  0  0  0  0  0  0  0  0  0  0
    6.0911   -2.6306   25.1353 C   0  0  0  0  0  0  0  0  0  0  0  0
    8.1635   -1.0064   22.3887 C   0  0  0  0  0  0  0  0  0  0  0  0
   14.0733   -1.7231   21.7775 N   0  0  0  0  0  0  0  0  0  0  0  0
    9.5549   -4.3718   28.2354 N   0  0  0  0  0  0  0  0  0  0  0  0
    7.5074   -3.1243   28.4700 N   0  0  0  0  0  0  0  0  0  0  0  0
    7.5040   -1.9142   23.2977 N   0  0  0  0  0  0  0  0  0  0  0  0
    6.4032   -0.3012   24.5530 O   0  0  0  0  0  0  0  0  0  0  0  0
   10.9243    1.4766   25.2062 H   0  0  0  0  0  0  0  0  0  0  0  0
   10.7698   -5.4148   25.2287 H   0  0  0  0  0  0  0  0  0  0  0  0
   12.9804    0.5280   24.2247 H   0  0  0  0  0  0  0  0  0  0  0  0
    8.7124   -4.2766   24.3863 H   0  0  0  0  0  0  0  0  0  0  0  0
    8.7046    0.7777   24.3721 H   0  0  0  0  0  0  0  0  0  0  0  0
   10.5913   -1.8466   21.5339 H   0  0  0  0  0  0  0  0  0  0  0  0
   11.2232   -5.4290   27.6686 H   0  0  0  0  0  0  0  0  0  0  0  0
    5.6933   -2.0877   28.0434 H   0  0  0  0  0  0  0  0  0  0  0  0
    6.0052   -3.5055   24.4616 H   0  0  0  0  0  0  0  0  0  0  0  0
    5.0485   -2.3607   25.3933 H   0  0  0  0  0  0  0  0  0  0  0  0
    7.5117   -0.1373   22.2479 H   0  0  0  0  0  0  0  0  0  0  0  0
    8.2506   -1.5080   21.4191 H   0  0  0  0  0  0  0  0  0  0  0  0
    7.5205   -3.0239   29.4754 H   0  0  0  0  0  0  0  0  0  0  0  0
    7.6575   -2.9123   23.1875 H   0  0  0  0  0  0  0  0  0  0  0  0
  1 10  1  0  0  0  0
  1 18  3  0  0  0  0
  2  4  2  0  0  0  0
  2  6  1  0  0  0  0
  2 23  1  0  0  0  0
  3  5  2  0  0  0  0
  3  8  1  0  0  0  0
  3 24  1  0  0  0  0
  4 10  1  0  0  0  0
  4 25  1  0  0  0  0
  5 11  1  0  0  0  0
  5 26  1  0  0  0  0
  6 12  2  0  0  0  0
  6 27  1  0  0  0  0
  7 10  2  0  0  0  0
  7 12  1  0  0  0  0
  7 28  1  0  0  0  0
  8 19  2  0  0  0  0
  8 29  1  0  0  0  0
  9 13  2  0  0  0  0
  9 20  1  0  0  0  0
  9 30  1  0  0  0  0
 11 13  1  0  0  0  0
 11 14  2  0  0  0  0
 12 17  1  0  0  0  0
 13 16  1  0  0  0  0
 14 19  1  0  0  0  0
 14 20  1  0  0  0  0
 15 16  1  0  0  0  0
 15 21  1  0  0  0  0
 15 22  2  0  0  0  0
 16 31  1  0  0  0  0
 16 32  1  0  0  0  0
 17 21  1  0  0  0  0
 17 33  1  0  0  0  0
 17 34  1  0  0  0  0
 20 35  1  0  0  0  0
 21 36  1  0  0  0  0
M  END
>  <Chemgauss4 Score>
-4.81508636474609

>  <Number of Confs>
200

$$$$
