KIM-UNI-60f-7
 OpenBabel03242009303D

 41 43  0  0  1  0  0  0  0  0999 V2000
   12.8177   -0.9484   22.6341 C   0  0  0  0  0  0  0  0  0  0  0  0
   12.8311    0.0899   23.5515 C   0  0  0  0  0  0  0  0  0  0  0  0
   10.7968   -0.5317   24.4194 C   0  0  0  0  0  0  0  0  0  0  0  0
   11.7220   -1.8044   22.6361 C   0  0  0  0  0  0  0  0  0  0  0  0
   10.6879   -1.5989   23.5425 C   0  0  0  0  0  0  0  0  0  0  0  0
    7.2992   -4.1159   23.4729 C   0  0  0  0  0  0  0  0  0  0  0  0
    7.2964   -3.0135   22.7238 C   0  0  0  0  0  0  0  0  0  0  0  0
    8.3981   -4.4553   24.3585 C   0  0  0  0  0  0  0  0  0  0  0  0
    9.4669   -3.6167   24.3934 C   0  0  0  0  0  0  0  0  0  0  0  0
    8.4596   -2.0981   22.7379 C   0  0  0  0  0  0  0  0  0  0  0  0
    6.1896   -5.7283   26.2645 C   0  0  0  0  0  0  0  0  0  0  0  0
   10.5726   -3.8757   25.4037 C   0  0  0  0  0  0  0  0  0  0  0  0
   10.1228   -4.7613   26.5638 C   0  0  0  0  0  0  0  0  0  0  0  0
    9.4067   -5.9993   26.0496 C   0  0  0  0  0  0  0  0  0  0  0  0
   11.6811   -2.9319   21.6573 C   0  0  0  0  0  0  0  0  0  0  0  0
    7.0989   -6.4245   25.2799 C   0  0  0  0  0  0  0  0  0  0  0  0
   11.8454    0.3211   24.4473 N   0  0  0  0  0  0  0  0  0  0  0  0
    5.3605   -4.8414   25.8057 N   0  0  0  0  0  0  0  0  0  0  0  0
    9.5309   -2.4584   23.5849 N   0  0  0  0  0  0  0  0  0  0  0  0
    8.3093   -5.6129   25.1564 N   0  0  0  0  0  0  0  0  0  0  0  0
    6.2869   -6.0881   27.5831 N   0  0  0  0  0  0  0  0  0  0  0  0
    8.4234   -1.1251   21.9831 O   0  0  0  0  0  0  0  0  0  0  0  0
   13.6405   -1.0811   21.9400 H   0  0  0  0  0  0  0  0  0  0  0  0
   13.6629    0.7855   23.5907 H   0  0  0  0  0  0  0  0  0  0  0  0
   10.0223   -0.3198   25.1507 H   0  0  0  0  0  0  0  0  0  0  0  0
    6.4303   -4.7628   23.4242 H   0  0  0  0  0  0  0  0  0  0  0  0
    6.4608   -2.7695   22.0780 H   0  0  0  0  0  0  0  0  0  0  0  0
   11.4197   -4.3413   24.8848 H   0  0  0  0  0  0  0  0  0  0  0  0
   10.9320   -2.9349   25.8369 H   0  0  0  0  0  0  0  0  0  0  0  0
   10.9915   -5.0533   27.1648 H   0  0  0  0  0  0  0  0  0  0  0  0
    9.4543   -4.1960   27.2263 H   0  0  0  0  0  0  0  0  0  0  0  0
   10.1037   -6.6456   25.5026 H   0  0  0  0  0  0  0  0  0  0  0  0
    9.0317   -6.5675   26.9089 H   0  0  0  0  0  0  0  0  0  0  0  0
   12.1464   -3.8259   22.0882 H   0  0  0  0  0  0  0  0  0  0  0  0
   10.6491   -3.1756   21.3765 H   0  0  0  0  0  0  0  0  0  0  0  0
   12.2111   -2.6730   20.7323 H   0  0  0  0  0  0  0  0  0  0  0  0
    6.6256   -6.5008   24.2976 H   0  0  0  0  0  0  0  0  0  0  0  0
    7.3805   -7.4179   25.6381 H   0  0  0  0  0  0  0  0  0  0  0  0
    4.8131   -4.4664   26.5883 H   0  0  0  0  0  0  0  0  0  0  0  0
    6.9473   -6.7957   27.8867 H   0  0  0  0  0  0  0  0  0  0  0  0
    5.7083   -5.6606   28.2984 H   0  0  0  0  0  0  0  0  0  0  0  0
  1  2  2  0  0  0  0
  1  4  1  0  0  0  0
  1 23  1  0  0  0  0
  2 17  1  0  0  0  0
  2 24  1  0  0  0  0
  3  5  1  0  0  0  0
  3 17  2  0  0  0  0
  3 25  1  0  0  0  0
  4  5  2  0  0  0  0
  4 15  1  0  0  0  0
  5 19  1  0  0  0  0
  6  7  2  0  0  0  0
  6  8  1  0  0  0  0
  6 26  1  0  0  0  0
  7 10  1  0  0  0  0
  7 27  1  0  0  0  0
  8  9  2  0  0  0  0
  8 20  1  0  0  0  0
  9 12  1  0  0  0  0
  9 19  1  0  0  0  0
 10 19  1  0  0  0  0
 10 22  2  0  0  0  0
 11 16  1  0  0  0  0
 11 18  2  0  0  0  0
 11 21  1  0  0  0  0
 12 13  1  0  0  0  0
 12 28  1  0  0  0  0
 12 29  1  0  0  0  0
 13 14  1  0  0  0  0
 13 30  1  0  0  0  0
 13 31  1  0  0  0  0
 14 20  1  0  0  0  0
 14 32  1  0  0  0  0
 14 33  1  0  0  0  0
 15 34  1  0  0  0  0
 15 35  1  0  0  0  0
 15 36  1  0  0  0  0
 16 20  1  0  0  0  0
 16 37  1  0  0  0  0
 16 38  1  0  0  0  0
 18 39  1  0  0  0  0
 21 40  1  0  0  0  0
 21 41  1  0  0  0  0
M  END
>  <Chemgauss4 Score>
-5.99012565612793

>  <Number of Confs>
10

$$$$
