JOH-MEM-5e3-3
 OpenBabel03242009303D

 53 55  0  0  1  0  0  0  0  0999 V2000
   10.5511   -2.6079   23.8992 C   0  0  0  0  0  0  0  0  0  0  0  0
   11.6123   -1.8079   23.4660 C   0  0  0  0  0  0  0  0  0  0  0  0
   10.3088   -0.9968   21.5845 C   0  0  0  0  0  0  0  0  0  0  0  0
    7.2950   -2.9202   22.3446 C   0  0  0  0  0  0  0  0  0  0  0  0
    9.2253   -1.7951   22.0019 C   0  0  0  0  0  0  0  0  0  0  0  0
    7.9104   -2.0194   21.5063 C   0  0  0  0  0  0  0  0  0  0  0  0
    9.3712   -2.5807   23.1472 C   0  0  0  0  0  0  0  0  0  0  0  0
   11.4952   -1.0139   22.3269 C   0  0  0  0  0  0  0  0  0  0  0  0
    7.6740   -3.3856   27.9995 C   0  0  0  0  0  0  0  0  0  0  0  0
    6.7645    1.8308   22.0994 C   0  0  0  0  0  0  0  0  0  0  0  0
    7.6525   -4.3057   26.8215 C   0  0  2  0  0  0  0  0  0  0  0  0
    8.6814   -5.4214   26.9683 C   0  0  1  0  0  0  0  0  0  0  0  0
    8.6720   -6.2805   25.7037 C   0  0  1  0  0  0  0  0  0  0  0  0
    8.8661   -5.4167   24.4512 C   0  0  2  0  0  0  0  0  0  0  0  0
    7.8874   -4.2260   24.4554 C   0  0  2  0  0  0  0  0  0  0  0  0
    5.8558    2.1380   23.2432 C   0  0  0  0  0  0  0  0  0  0  0  0
   13.7289   -0.3020   22.7265 C   0  0  0  0  0  0  0  0  0  0  0  0
    7.3056   -1.4037   20.3078 C   0  0  0  0  0  0  0  0  0  0  0  0
    7.2566    0.1345   20.3493 C   0  0  0  0  0  0  0  0  0  0  0  0
    8.1838   -3.2527   23.3314 N   0  0  0  0  0  0  0  0  0  0  0  0
    6.5030    0.6228   21.4729 N   0  0  0  0  0  0  0  0  0  0  0  0
    7.9497   -2.1959   27.9559 O   0  0  0  0  0  0  0  0  0  0  0  0
    7.6445    2.6277   21.7960 O   0  0  0  0  0  0  0  0  0  0  0  0
    7.9478   -3.4971   25.6883 O   0  0  0  0  0  0  0  0  0  0  0  0
    7.3467   -4.0521   29.1335 O   0  0  0  0  0  0  0  0  0  0  0  0
    9.9774   -4.8383   27.1341 O   0  0  0  0  0  0  0  0  0  0  0  0
    9.7090   -7.2532   25.8005 O   0  0  0  0  0  0  0  0  0  0  0  0
    8.6095   -6.2113   23.2933 O   0  0  0  0  0  0  0  0  0  0  0  0
   12.5474   -0.2438   21.9302 O   0  0  0  0  0  0  0  0  0  0  0  0
   10.6478   -3.2243   24.7868 H   0  0  0  0  0  0  0  0  0  0  0  0
   12.5401   -1.8092   24.0335 H   0  0  0  0  0  0  0  0  0  0  0  0
   10.2277   -0.3742   20.6975 H   0  0  0  0  0  0  0  0  0  0  0  0
    6.3036   -3.3530   22.3193 H   0  0  0  0  0  0  0  0  0  0  0  0
    6.6378   -4.7097   26.7316 H   0  0  0  0  0  0  0  0  0  0  0  0
    8.4872   -6.0300   27.8581 H   0  0  0  0  0  0  0  0  0  0  0  0
    7.7247   -6.8291   25.6380 H   0  0  0  0  0  0  0  0  0  0  0  0
    9.9058   -5.0717   24.3908 H   0  0  0  0  0  0  0  0  0  0  0  0
    6.8490   -4.5487   24.2556 H   0  0  0  0  0  0  0  0  0  0  0  0
    6.2421    1.7555   24.2016 H   0  0  0  0  0  0  0  0  0  0  0  0
    5.7219    3.2211   23.3947 H   0  0  0  0  0  0  0  0  0  0  0  0
    4.8362    1.7293   23.1580 H   0  0  0  0  0  0  0  0  0  0  0  0
   14.4889    0.3577   22.3009 H   0  0  0  0  0  0  0  0  0  0  0  0
   14.0988   -1.3300   22.7565 H   0  0  0  0  0  0  0  0  0  0  0  0
   13.4906    0.0271   23.7407 H   0  0  0  0  0  0  0  0  0  0  0  0
    6.2695   -1.7725   20.1728 H   0  0  0  0  0  0  0  0  0  0  0  0
    7.8335   -1.7160   19.3842 H   0  0  0  0  0  0  0  0  0  0  0  0
    8.2626    0.5570   20.4364 H   0  0  0  0  0  0  0  0  0  0  0  0
    6.7947    0.5369   19.4418 H   0  0  0  0  0  0  0  0  0  0  0  0
    5.7375    0.0510   21.8264 H   0  0  0  0  0  0  0  0  0  0  0  0
    7.3570   -3.4651   29.9194 H   0  0  0  0  0  0  0  0  0  0  0  0
    9.9298   -4.2958   27.9348 H   0  0  0  0  0  0  0  0  0  0  0  0
    9.5158   -7.7857   26.5876 H   0  0  0  0  0  0  0  0  0  0  0  0
    7.6931   -6.5176   23.3686 H   0  0  0  0  0  0  0  0  0  0  0  0
  1  2  2  0  0  0  0
  1  7  1  0  0  0  0
  1 30  1  0  0  0  0
  2  8  1  0  0  0  0
  2 31  1  0  0  0  0
  3  5  1  0  0  0  0
  3  8  2  0  0  0  0
  3 32  1  0  0  0  0
  4  6  2  0  0  0  0
  4 20  1  0  0  0  0
  4 33  1  0  0  0  0
  5  6  1  0  0  0  0
  5  7  2  0  0  0  0
  6 18  1  0  0  0  0
  7 20  1  0  0  0  0
  8 29  1  0  0  0  0
  9 11  1  0  0  0  0
  9 22  2  0  0  0  0
  9 25  1  0  0  0  0
 10 16  1  0  0  0  0
 10 21  1  0  0  0  0
 10 23  2  0  0  0  0
 11 12  1  0  0  0  0
 11 24  1  0  0  0  0
 11 34  1  6  0  0  0
 12 13  1  0  0  0  0
 12 26  1  0  0  0  0
 12 35  1  1  0  0  0
 13 14  1  0  0  0  0
 13 27  1  0  0  0  0
 13 36  1  6  0  0  0
 14 15  1  0  0  0  0
 14 28  1  0  0  0  0
 14 37  1  6  0  0  0
 15 20  1  0  0  0  0
 15 24  1  0  0  0  0
 15 38  1  6  0  0  0
 16 39  1  0  0  0  0
 16 40  1  0  0  0  0
 16 41  1  0  0  0  0
 17 29  1  0  0  0  0
 17 42  1  0  0  0  0
 17 43  1  0  0  0  0
 17 44  1  0  0  0  0
 18 19  1  0  0  0  0
 18 45  1  0  0  0  0
 18 46  1  0  0  0  0
 19 21  1  0  0  0  0
 19 47  1  0  0  0  0
 19 48  1  0  0  0  0
 21 49  1  0  0  0  0
 25 50  1  0  0  0  0
 26 51  1  0  0  0  0
 27 52  1  0  0  0  0
 28 53  1  0  0  0  0
M  END
>  <Chemgauss4 Score>
-5.35275650024414

>  <Number of Confs>
200

$$$$
