AGN-NEW-891-9
 OpenBabel03242009303D

 32 33  0  0  0  0  0  0  0  0999 V2000
    6.1590   -1.2741   27.2076 C   0  0  0  0  0  0  0  0  0  0  0  0
    8.5755   -5.3038   28.1971 C   0  0  0  0  0  0  0  0  0  0  0  0
   12.5421   -0.7967   22.6583 C   0  0  0  0  0  0  0  0  0  0  0  0
   11.5683   -1.7710   22.8468 C   0  0  0  0  0  0  0  0  0  0  0  0
    7.7266   -4.2861   28.6321 C   0  0  0  0  0  0  0  0  0  0  0  0
    8.7732   -5.5112   26.8319 C   0  0  0  0  0  0  0  0  0  0  0  0
    7.2729   -3.6834   26.3369 C   0  0  0  0  0  0  0  0  0  0  0  0
   12.5317    0.3024   23.5019 C   0  0  0  0  0  0  0  0  0  0  0  0
   10.7024   -0.4829   24.6488 C   0  0  0  0  0  0  0  0  0  0  0  0
   10.6270   -1.6187   23.8588 C   0  0  0  0  0  0  0  0  0  0  0  0
    7.0753   -3.4759   27.7020 C   0  0  0  0  0  0  0  0  0  0  0  0
    8.1219   -4.7010   25.9018 C   0  0  0  0  0  0  0  0  0  0  0  0
    9.5824   -2.6329   24.0836 C   0  0  0  0  0  0  0  0  0  0  0  0
    9.7266   -3.9426   23.8467 C   0  0  0  0  0  0  0  0  0  0  0  0
    6.1677   -2.3880   28.1680 C   0  0  0  0  0  0  0  0  0  0  0  0
    6.1524   -0.3943   26.4509 N   0  0  0  0  0  0  0  0  0  0  0  0
   11.6337    0.4851   24.4959 N   0  0  0  0  0  0  0  0  0  0  0  0
    8.7690   -6.3493   23.9899 O   0  0  0  0  0  0  0  0  0  0  0  0
    7.1974   -4.4516   23.4915 O   0  0  0  0  0  0  0  0  0  0  0  0
    8.3687   -4.9621   24.1934 S   0  0  0  0  0  0  0  0  0  0  0  0
    9.0833   -5.9342   28.9212 H   0  0  0  0  0  0  0  0  0  0  0  0
   13.2859   -0.8945   21.8760 H   0  0  0  0  0  0  0  0  0  0  0  0
   11.5552   -2.6430   22.1976 H   0  0  0  0  0  0  0  0  0  0  0  0
    7.5794   -4.1311   29.6977 H   0  0  0  0  0  0  0  0  0  0  0  0
    9.4364   -6.3074   26.5044 H   0  0  0  0  0  0  0  0  0  0  0  0
    6.7648   -3.0509   25.6129 H   0  0  0  0  0  0  0  0  0  0  0  0
   13.2699    1.0904   23.3952 H   0  0  0  0  0  0  0  0  0  0  0  0
    9.9975   -0.3047   25.4558 H   0  0  0  0  0  0  0  0  0  0  0  0
    8.6450   -2.2561   24.4880 H   0  0  0  0  0  0  0  0  0  0  0  0
   10.6339   -4.3930   23.4655 H   0  0  0  0  0  0  0  0  0  0  0  0
    6.4813   -2.0206   29.1546 H   0  0  0  0  0  0  0  0  0  0  0  0
    5.1455   -2.7682   28.2999 H   0  0  0  0  0  0  0  0  0  0  0  0
  1 15  1  0  0  0  0
  1 16  3  0  0  0  0
  2  5  2  0  0  0  0
  2  6  1  0  0  0  0
  2 21  1  0  0  0  0
  3  4  2  0  0  0  0
  3  8  1  0  0  0  0
  3 22  1  0  0  0  0
  4 10  1  0  0  0  0
  4 23  1  0  0  0  0
  5 11  1  0  0  0  0
  5 24  1  0  0  0  0
  6 12  2  0  0  0  0
  6 25  1  0  0  0  0
  7 11  2  0  0  0  0
  7 12  1  0  0  0  0
  7 26  1  0  0  0  0
  8 17  2  0  0  0  0
  8 27  1  0  0  0  0
  9 10  2  0  0  0  0
  9 17  1  0  0  0  0
  9 28  1  0  0  0  0
 10 13  1  0  0  0  0
 11 15  1  0  0  0  0
 12 20  1  0  0  0  0
 13 14  2  0  0  0  0
 13 29  1  0  0  0  0
 14 20  1  0  0  0  0
 14 30  1  0  0  0  0
 15 31  1  0  0  0  0
 15 32  1  0  0  0  0
 18 20  2  0  0  0  0
 19 20  2  0  0  0  0
M  END
>  <Chemgauss4 Score>
-5.19323921203613

>  <Number of Confs>
200

$$$$
