GIA-UNK-995-1
 OpenBabel03242009303D

 34 34  0  0  0  0  0  0  0  0999 V2000
    8.2829   -3.8813   25.8992 C   0  0  0  0  0  0  0  0  0  0  0  0
   11.1898   -1.2027   22.6690 C   0  0  0  0  0  0  0  0  0  0  0  0
    8.4757   -3.3585   23.4742 C   0  0  0  0  0  0  0  0  0  0  0  0
   10.5288   -4.0422   24.8086 C   0  0  0  0  0  0  0  0  0  0  0  0
    8.9790   -1.9168   23.5192 C   0  0  0  0  0  0  0  0  0  0  0  0
   10.9781   -2.5805   24.7957 C   0  0  0  0  0  0  0  0  0  0  0  0
    9.0160   -4.2061   24.6303 C   0  0  0  0  0  0  0  0  0  0  0  0
   13.3773   -1.1801   21.4973 C   0  0  0  0  0  0  0  0  0  0  0  0
   13.1252   -0.0472   23.7269 C   0  0  0  0  0  0  0  0  0  0  0  0
    8.0851   -4.4185   28.5814 C   0  0  0  0  0  0  0  0  0  0  0  0
   12.6864   -1.2151   22.8533 C   0  0  0  0  0  0  0  0  0  0  0  0
   10.4368   -1.8796   23.6274 N   0  0  0  0  0  0  0  0  0  0  0  0
    7.8512   -2.7635   26.1543 O   0  0  0  0  0  0  0  0  0  0  0  0
   10.7067   -0.6103   21.7006 O   0  0  0  0  0  0  0  0  0  0  0  0
    9.2612   -3.7594   28.7590 F   0  0  0  0  0  0  0  0  0  0  0  0
    8.0999   -5.2588   26.9847 S   0  0  0  0  0  0  0  0  0  0  0  0
    7.3790   -3.3574   23.4803 H   0  0  0  0  0  0  0  0  0  0  0  0
    8.7877   -3.8117   22.5244 H   0  0  0  0  0  0  0  0  0  0  0  0
   11.0401   -4.5721   23.9945 H   0  0  0  0  0  0  0  0  0  0  0  0
   10.8545   -4.5101   25.7454 H   0  0  0  0  0  0  0  0  0  0  0  0
    8.6400   -1.3821   22.6261 H   0  0  0  0  0  0  0  0  0  0  0  0
    8.5700   -1.3880   24.3879 H   0  0  0  0  0  0  0  0  0  0  0  0
   10.6147   -2.0545   25.6859 H   0  0  0  0  0  0  0  0  0  0  0  0
   12.0684   -2.5400   24.8287 H   0  0  0  0  0  0  0  0  0  0  0  0
    8.7962   -5.2610   24.4238 H   0  0  0  0  0  0  0  0  0  0  0  0
   13.1464   -0.2603   20.9481 H   0  0  0  0  0  0  0  0  0  0  0  0
   13.0719   -2.0285   20.8748 H   0  0  0  0  0  0  0  0  0  0  0  0
   14.4641   -1.2334   21.6223 H   0  0  0  0  0  0  0  0  0  0  0  0
   12.8841    0.9124   23.2561 H   0  0  0  0  0  0  0  0  0  0  0  0
   14.2041   -0.0658   23.9185 H   0  0  0  0  0  0  0  0  0  0  0  0
   12.6115   -0.0820   24.6937 H   0  0  0  0  0  0  0  0  0  0  0  0
    7.9757   -5.1372   29.3976 H   0  0  0  0  0  0  0  0  0  0  0  0
    7.2775   -3.6833   28.6259 H   0  0  0  0  0  0  0  0  0  0  0  0
   12.9462   -2.1478   23.3613 H   0  0  0  0  0  0  0  0  0  0  0  0
  1  7  1  0  0  0  0
  1 13  2  0  0  0  0
  1 16  1  0  0  0  0
  2 11  1  0  0  0  0
  2 12  1  0  0  0  0
  2 14  2  0  0  0  0
  3  5  1  0  0  0  0
  3  7  1  0  0  0  0
  3 17  1  0  0  0  0
  3 18  1  0  0  0  0
  4  6  1  0  0  0  0
  4  7  1  0  0  0  0
  4 19  1  0  0  0  0
  4 20  1  0  0  0  0
  5 12  1  0  0  0  0
  5 21  1  0  0  0  0
  5 22  1  0  0  0  0
  6 12  1  0  0  0  0
  6 23  1  0  0  0  0
  6 24  1  0  0  0  0
  7 25  1  0  0  0  0
  8 11  1  0  0  0  0
  8 26  1  0  0  0  0
  8 27  1  0  0  0  0
  8 28  1  0  0  0  0
  9 11  1  0  0  0  0
  9 29  1  0  0  0  0
  9 30  1  0  0  0  0
  9 31  1  0  0  0  0
 10 15  1  0  0  0  0
 10 16  1  0  0  0  0
 10 32  1  0  0  0  0
 10 33  1  0  0  0  0
 11 34  1  0  0  0  0
M  END
>  <Chemgauss4 Score>
-5.12599277496338

>  <Number of Confs>
200

$$$$
