DAV-AUT-7eb-2
 OpenBabel03242009303D

 37 39  0  0  1  0  0  0  0  0999 V2000
   10.2520   -3.3600   25.1010 C   0  0  0  0  0  0  0  0  0  0  0  0
   11.3336   -2.6904   24.5246 C   0  0  0  0  0  0  0  0  0  0  0  0
    8.6984   -2.3998   23.4734 C   0  0  0  0  0  0  0  0  0  0  0  0
    9.7763   -1.7444   22.9146 C   0  0  0  0  0  0  0  0  0  0  0  0
    8.9482   -3.2160   24.5818 C   0  0  0  0  0  0  0  0  0  0  0  0
   11.0582   -1.8896   23.4394 C   0  0  0  0  0  0  0  0  0  0  0  0
    9.8126   -0.8319   21.7517 C   0  0  0  0  0  0  0  0  0  0  0  0
    7.3745   -4.6557   28.2938 C   0  0  0  0  0  0  0  0  0  0  0  0
    6.5792   -5.6392   27.4533 C   0  0  0  0  0  0  0  0  0  0  0  0
    7.1434   -3.1089   26.3357 C   0  0  0  0  0  0  0  0  0  0  0  0
    7.3183   -6.1169   26.2080 C   0  0  0  0  0  0  0  0  0  0  0  0
    7.8002   -3.9612   25.2359 C   0  0  2  0  0  0  0  0  0  0  0  0
    8.3719   -2.3890   28.3833 C   0  0  0  0  0  0  0  0  0  0  0  0
   12.7016    0.3510   23.5911 C   0  0  0  0  0  0  0  0  0  0  0  0
   11.1421   -0.3729   21.4983 N   0  0  0  0  0  0  0  0  0  0  0  0
    7.6305   -3.4254   27.6808 N   0  0  0  0  0  0  0  0  0  0  0  0
    8.8026   -0.5449   21.1270 O   0  0  0  0  0  0  0  0  0  0  0  0
    7.7389   -4.9643   29.4292 O   0  0  0  0  0  0  0  0  0  0  0  0
   13.3288   -1.7978   22.2023 O   0  0  0  0  0  0  0  0  0  0  0  0
    8.2982   -5.2109   25.7180 O   0  0  0  0  0  0  0  0  0  0  0  0
   12.1950   -0.9473   22.4987 S   0  0  2  0  0  0  0  0  0  0  0  0
   10.4241   -4.0008   25.9628 H   0  0  0  0  0  0  0  0  0  0  0  0
   12.3358   -2.8010   24.9203 H   0  0  0  0  0  0  0  0  0  0  0  0
    7.6978   -2.2889   23.0703 H   0  0  0  0  0  0  0  0  0  0  0  0
    6.2539   -6.4822   28.0876 H   0  0  0  0  0  0  0  0  0  0  0  0
    5.6585   -5.1152   27.1391 H   0  0  0  0  0  0  0  0  0  0  0  0
    7.3268   -2.0374   26.1548 H   0  0  0  0  0  0  0  0  0  0  0  0
    6.0495   -3.2465   26.3305 H   0  0  0  0  0  0  0  0  0  0  0  0
    7.8638   -7.0454   26.4618 H   0  0  0  0  0  0  0  0  0  0  0  0
    6.6208   -6.3940   25.3901 H   0  0  0  0  0  0  0  0  0  0  0  0
    7.0588   -4.1612   24.4065 H   0  0  0  0  0  0  0  0  0  0  0  0
    9.4465   -2.5029   28.1777 H   0  0  0  0  0  0  0  0  0  0  0  0
    8.0355   -1.4001   28.0385 H   0  0  0  0  0  0  0  0  0  0  0  0
    8.1940   -2.4803   29.4649 H   0  0  0  0  0  0  0  0  0  0  0  0
   13.4182    0.9838   23.0649 H   0  0  0  0  0  0  0  0  0  0  0  0
   11.8192    0.9266   23.8745 H   0  0  0  0  0  0  0  0  0  0  0  0
   13.1633   -0.0998   24.4708 H   0  0  0  0  0  0  0  0  0  0  0  0
  1  2  2  0  0  0  0
  1  5  1  0  0  0  0
  1 22  1  0  0  0  0
  2  6  1  0  0  0  0
  2 23  1  0  0  0  0
  3  4  1  0  0  0  0
  3  5  2  0  0  0  0
  3 24  1  0  0  0  0
  4  6  2  0  0  0  0
  4  7  1  0  0  0  0
  5 12  1  0  0  0  0
  6 21  1  0  0  0  0
  7 15  1  0  0  0  0
  7 17  2  0  0  0  0
  8  9  1  0  0  0  0
  8 16  1  0  0  0  0
  8 18  2  0  0  0  0
  9 11  1  0  0  0  0
  9 25  1  0  0  0  0
  9 26  1  0  0  0  0
 10 12  1  0  0  0  0
 10 16  1  0  0  0  0
 10 27  1  0  0  0  0
 10 28  1  0  0  0  0
 11 20  1  0  0  0  0
 11 29  1  0  0  0  0
 11 30  1  0  0  0  0
 12 20  1  0  0  0  0
 12 31  1  6  0  0  0
 13 16  1  0  0  0  0
 13 32  1  0  0  0  0
 13 33  1  0  0  0  0
 13 34  1  0  0  0  0
 14 21  1  0  0  0  0
 14 35  1  0  0  0  0
 14 36  1  0  0  0  0
 14 37  1  0  0  0  0
 15 21  2  0  0  0  0
 21 19  2  6  0  0  0
M  END
>  <Chemgauss4 Score>
-4.88886165618896

>  <Number of Confs>
8

$$$$
