DAN-LON-a5f-3
 OpenBabel03242009303D

 35 37  0  0  1  0  0  0  0  0999 V2000
   11.2728    0.0649   24.6279 C   0  0  0  0  0  0  0  0  0  0  0  0
   10.4180   -1.0194   24.4298 C   0  0  0  0  0  0  0  0  0  0  0  0
   12.4240    0.1965   23.8513 C   0  0  0  0  0  0  0  0  0  0  0  0
   11.8657   -1.8406   22.6785 C   0  0  0  0  0  0  0  0  0  0  0  0
   10.7145   -1.9722   23.4551 C   0  0  0  0  0  0  0  0  0  0  0  0
   12.7204   -0.7563   22.8766 C   0  0  0  0  0  0  0  0  0  0  0  0
    7.9819   -5.1449   27.9335 C   0  0  0  0  0  0  0  0  0  0  0  0
    9.1783   -5.8893   24.6181 C   0  0  0  0  0  0  0  0  0  0  0  0
    7.2968   -4.7561   25.5041 C   0  0  0  0  0  0  0  0  0  0  0  0
   10.0795   -3.9258   25.5381 C   0  0  0  0  0  0  0  0  0  0  0  0
    8.2464   -4.7228   24.2887 C   0  0  1  0  0  0  0  0  0  0  0  0
    9.5505   -5.3002   25.9724 C   0  0  1  0  0  0  0  0  0  0  0  0
    9.7946   -3.1397   23.2433 C   0  0  0  0  0  0  0  0  0  0  0  0
    6.5726   -5.5238   28.3102 C   0  0  0  0  0  0  0  0  0  0  0  0
    8.2322   -5.0885   26.5801 N   0  0  0  0  0  0  0  0  0  0  0  0
    9.1159   -3.5301   24.4737 N   0  0  0  0  0  0  0  0  0  0  0  0
    8.8214   -4.9072   28.8025 O   0  0  0  0  0  0  0  0  0  0  0  0
   14.1415   -0.5940   21.9195 Cl  0  0  0  0  0  0  0  0  0  0  0  0
    6.6745   -6.3894   29.8395 Cl  0  0  0  0  0  0  0  0  0  0  0  0
   11.0416    0.8065   25.3871 H   0  0  0  0  0  0  0  0  0  0  0  0
    9.5233   -1.1141   25.0396 H   0  0  0  0  0  0  0  0  0  0  0  0
   13.0812    1.0466   24.0169 H   0  0  0  0  0  0  0  0  0  0  0  0
   12.0921   -2.5859   21.9194 H   0  0  0  0  0  0  0  0  0  0  0  0
    8.6590   -6.8509   24.6959 H   0  0  0  0  0  0  0  0  0  0  0  0
   10.0277   -5.9899   23.9347 H   0  0  0  0  0  0  0  0  0  0  0  0
    6.7938   -3.8050   25.7039 H   0  0  0  0  0  0  0  0  0  0  0  0
    6.5555   -5.5583   25.4270 H   0  0  0  0  0  0  0  0  0  0  0  0
   10.0774   -3.1985   26.3566 H   0  0  0  0  0  0  0  0  0  0  0  0
   11.1042   -4.0212   25.1579 H   0  0  0  0  0  0  0  0  0  0  0  0
    7.7243   -4.7729   23.3300 H   0  0  0  0  0  0  0  0  0  0  0  0
   10.2308   -5.8818   26.5972 H   0  0  0  0  0  0  0  0  0  0  0  0
    9.0291   -2.8978   22.4980 H   0  0  0  0  0  0  0  0  0  0  0  0
   10.3447   -4.0114   22.8734 H   0  0  0  0  0  0  0  0  0  0  0  0
    6.1650   -6.1721   27.5425 H   0  0  0  0  0  0  0  0  0  0  0  0
    5.9858   -4.6203   28.4325 H   0  0  0  0  0  0  0  0  0  0  0  0
  1  2  2  0  0  0  0
  1  3  1  0  0  0  0
  1 20  1  0  0  0  0
  2  5  1  0  0  0  0
  2 21  1  0  0  0  0
  3  6  2  0  0  0  0
  3 22  1  0  0  0  0
  4  5  2  0  0  0  0
  4  6  1  0  0  0  0
  4 23  1  0  0  0  0
  5 13  1  0  0  0  0
  6 18  1  0  0  0  0
  7 14  1  0  0  0  0
  7 15  1  0  0  0  0
  7 17  2  0  0  0  0
  8 11  1  0  0  0  0
  8 12  1  0  0  0  0
  8 24  1  0  0  0  0
  8 25  1  0  0  0  0
  9 11  1  0  0  0  0
  9 15  1  0  0  0  0
  9 26  1  0  0  0  0
  9 27  1  0  0  0  0
 10 12  1  0  0  0  0
 10 16  1  0  0  0  0
 10 28  1  0  0  0  0
 10 29  1  0  0  0  0
 11 16  1  0  0  0  0
 11 30  1  6  0  0  0
 12 15  1  0  0  0  0
 12 31  1  1  0  0  0
 13 16  1  0  0  0  0
 13 32  1  0  0  0  0
 13 33  1  0  0  0  0
 14 19  1  0  0  0  0
 14 34  1  0  0  0  0
 14 35  1  0  0  0  0
M  END
>  <Chemgauss4 Score>
-4.79421854019165

>  <Number of Confs>
74

$$$$
