GIA-UNK-595-1
 OpenBabel03242009303D

 42 43  0  0  0  0  0  0  0  0999 V2000
    9.0126   -2.7279   23.8753 C   0  0  0  0  0  0  0  0  0  0  0  0
    7.5963   -4.6165   28.1162 C   0  0  0  0  0  0  0  0  0  0  0  0
   12.3188   -0.3223   23.1962 C   0  0  0  0  0  0  0  0  0  0  0  0
   10.9691    0.1762   23.7034 C   0  0  0  0  0  0  0  0  0  0  0  0
   12.1997   -1.7282   22.6160 C   0  0  0  0  0  0  0  0  0  0  0  0
    8.9469   -6.0086   25.6198 C   0  0  0  0  0  0  0  0  0  0  0  0
    6.7676   -5.1558   24.6424 C   0  0  0  0  0  0  0  0  0  0  0  0
   10.3589   -0.8163   24.6855 C   0  0  0  0  0  0  0  0  0  0  0  0
   11.5360   -2.7016   23.5925 C   0  0  0  0  0  0  0  0  0  0  0  0
    9.7561   -4.9552   24.8469 C   0  0  0  0  0  0  0  0  0  0  0  0
    7.7019   -4.7847   23.4871 C   0  0  0  0  0  0  0  0  0  0  0  0
    7.5269   -5.5296   25.9234 C   0  0  0  0  0  0  0  0  0  0  0  0
    7.7034   -2.1291   28.1664 C   0  0  0  0  0  0  0  0  0  0  0  0
   10.2724   -2.1581   24.1068 N   0  0  0  0  0  0  0  0  0  0  0  0
    8.9072   -4.1247   23.9782 N   0  0  0  0  0  0  0  0  0  0  0  0
    7.6568   -3.4239   28.8059 N   0  0  0  0  0  0  0  0  0  0  0  0
    8.0275   -2.0252   23.6141 O   0  0  0  0  0  0  0  0  0  0  0  0
    7.5554   -5.7341   28.6200 O   0  0  0  0  0  0  0  0  0  0  0  0
    7.5878   -4.3784   26.7664 O   0  0  0  0  0  0  0  0  0  0  0  0
   12.6928    0.3609   22.4242 H   0  0  0  0  0  0  0  0  0  0  0  0
   13.0493   -0.3165   24.0123 H   0  0  0  0  0  0  0  0  0  0  0  0
   11.0997    1.1433   24.1972 H   0  0  0  0  0  0  0  0  0  0  0  0
   10.2913    0.3278   22.8604 H   0  0  0  0  0  0  0  0  0  0  0  0
   11.6182   -1.6925   21.6837 H   0  0  0  0  0  0  0  0  0  0  0  0
   13.1985   -2.1024   22.3468 H   0  0  0  0  0  0  0  0  0  0  0  0
    8.9085   -6.9415   25.0462 H   0  0  0  0  0  0  0  0  0  0  0  0
    9.4641   -6.2552   26.5555 H   0  0  0  0  0  0  0  0  0  0  0  0
    6.0768   -4.3194   24.8492 H   0  0  0  0  0  0  0  0  0  0  0  0
    6.1166   -5.9940   24.3424 H   0  0  0  0  0  0  0  0  0  0  0  0
   10.9570   -0.8449   25.6030 H   0  0  0  0  0  0  0  0  0  0  0  0
    9.3429   -0.5127   24.9644 H   0  0  0  0  0  0  0  0  0  0  0  0
   11.2846   -3.6309   23.0699 H   0  0  0  0  0  0  0  0  0  0  0  0
   12.2206   -2.9833   24.3912 H   0  0  0  0  0  0  0  0  0  0  0  0
   10.2888   -4.3415   25.5853 H   0  0  0  0  0  0  0  0  0  0  0  0
   10.5074   -5.4454   24.2081 H   0  0  0  0  0  0  0  0  0  0  0  0
    8.0169   -5.6887   22.9537 H   0  0  0  0  0  0  0  0  0  0  0  0
    7.1745   -4.1477   22.7701 H   0  0  0  0  0  0  0  0  0  0  0  0
    6.9789   -6.3082   26.4638 H   0  0  0  0  0  0  0  0  0  0  0  0
    8.7511   -1.8444   27.9896 H   0  0  0  0  0  0  0  0  0  0  0  0
    7.1690   -2.1752   27.2061 H   0  0  0  0  0  0  0  0  0  0  0  0
    7.2252   -1.3818   28.8167 H   0  0  0  0  0  0  0  0  0  0  0  0
    7.6694   -3.4575   29.8205 H   0  0  0  0  0  0  0  0  0  0  0  0
  1 14  1  0  0  0  0
  1 15  1  0  0  0  0
  1 17  2  0  0  0  0
  2 16  1  0  0  0  0
  2 18  2  0  0  0  0
  2 19  1  0  0  0  0
  3  4  1  0  0  0  0
  3  5  1  0  0  0  0
  3 20  1  0  0  0  0
  3 21  1  0  0  0  0
  4  8  1  0  0  0  0
  4 22  1  0  0  0  0
  4 23  1  0  0  0  0
  5  9  1  0  0  0  0
  5 24  1  0  0  0  0
  5 25  1  0  0  0  0
  6 10  1  0  0  0  0
  6 12  1  0  0  0  0
  6 26  1  0  0  0  0
  6 27  1  0  0  0  0
  7 11  1  0  0  0  0
  7 12  1  0  0  0  0
  7 28  1  0  0  0  0
  7 29  1  0  0  0  0
  8 14  1  0  0  0  0
  8 30  1  0  0  0  0
  8 31  1  0  0  0  0
  9 14  1  0  0  0  0
  9 32  1  0  0  0  0
  9 33  1  0  0  0  0
 10 15  1  0  0  0  0
 10 34  1  0  0  0  0
 10 35  1  0  0  0  0
 11 15  1  0  0  0  0
 11 36  1  0  0  0  0
 11 37  1  0  0  0  0
 12 19  1  0  0  0  0
 12 38  1  0  0  0  0
 13 16  1  0  0  0  0
 13 39  1  0  0  0  0
 13 40  1  0  0  0  0
 13 41  1  0  0  0  0
 16 42  1  0  0  0  0
M  END
>  <Chemgauss4 Score>
-5.86022615432739

>  <Number of Confs>
63

$$$$
