DAN-LON-a5f-6
 OpenBabel03242009303D

 44 46  0  0  1  0  0  0  0  0999 V2000
   13.8769   -1.7502   20.7352 C   0  0  0  0  0  0  0  0  0  0  0  0
   13.7738   -0.9967   21.9045 C   0  0  0  0  0  0  0  0  0  0  0  0
   12.9171   -2.7194   20.4431 C   0  0  0  0  0  0  0  0  0  0  0  0
    7.3927   -5.4114   29.0072 C   0  0  0  0  0  0  0  0  0  0  0  0
   12.7110   -1.2123   22.7817 C   0  0  0  0  0  0  0  0  0  0  0  0
   11.8543   -2.9350   21.3204 C   0  0  0  0  0  0  0  0  0  0  0  0
    8.6091   -5.0513   28.4275 C   0  0  0  0  0  0  0  0  0  0  0  0
    6.3141   -5.7709   28.1990 C   0  0  0  0  0  0  0  0  0  0  0  0
    7.6685   -5.4102   26.2312 C   0  0  0  0  0  0  0  0  0  0  0  0
   11.7512   -2.1815   22.4897 C   0  0  0  0  0  0  0  0  0  0  0  0
    8.7471   -5.0507   27.0394 C   0  0  0  0  0  0  0  0  0  0  0  0
    6.4521   -5.7703   26.8110 C   0  0  0  0  0  0  0  0  0  0  0  0
    9.3957   -0.2499   23.2769 C   0  0  0  0  0  0  0  0  0  0  0  0
   10.3464   -1.0241   25.4997 C   0  0  0  0  0  0  0  0  0  0  0  0
    9.8852   -2.2534   26.2945 C   0  0  0  0  0  0  0  0  0  0  0  0
   10.9532   -3.4885   24.4968 C   0  0  0  0  0  0  0  0  0  0  0  0
   10.5927   -2.4173   23.4455 C   0  0  1  0  0  0  0  0  0  0  0  0
   10.0564   -4.6618   26.4161 C   0  0  0  0  0  0  0  0  0  0  0  0
    9.2391   -0.5872   21.8160 C   0  0  0  0  0  0  0  0  0  0  0  0
   10.0930   -1.1709   24.0635 N   0  0  0  0  0  0  0  0  0  0  0  0
    9.9192   -3.5091   25.5319 N   0  0  0  0  0  0  0  0  0  0  0  0
    8.9118    0.7990   23.7107 O   0  0  0  0  0  0  0  0  0  0  0  0
    5.1207   -6.2128   25.8143 Cl  0  0  0  0  0  0  0  0  0  0  0  0
    7.7619   -1.5336   21.6727 Cl  0  0  0  0  0  0  0  0  0  0  0  0
   14.7038   -1.5812   20.0516 H   0  0  0  0  0  0  0  0  0  0  0  0
   14.5204   -0.2412   22.1315 H   0  0  0  0  0  0  0  0  0  0  0  0
   12.9965   -3.3054   19.5324 H   0  0  0  0  0  0  0  0  0  0  0  0
    7.2856   -5.4116   30.0881 H   0  0  0  0  0  0  0  0  0  0  0  0
   12.6388   -0.6206   23.6905 H   0  0  0  0  0  0  0  0  0  0  0  0
   11.1113   -3.6924   21.0847 H   0  0  0  0  0  0  0  0  0  0  0  0
    9.4441   -4.7725   29.0650 H   0  0  0  0  0  0  0  0  0  0  0  0
    5.3719   -6.0490   28.6647 H   0  0  0  0  0  0  0  0  0  0  0  0
    7.7813   -5.4086   25.1495 H   0  0  0  0  0  0  0  0  0  0  0  0
    9.8844   -0.1272   25.9166 H   0  0  0  0  0  0  0  0  0  0  0  0
   11.4316   -0.9002   25.6059 H   0  0  0  0  0  0  0  0  0  0  0  0
   10.5114   -2.3166   27.1942 H   0  0  0  0  0  0  0  0  0  0  0  0
    8.8540   -2.0945   26.6321 H   0  0  0  0  0  0  0  0  0  0  0  0
   11.0057   -4.4614   23.9900 H   0  0  0  0  0  0  0  0  0  0  0  0
   11.9440   -3.3088   24.9377 H   0  0  0  0  0  0  0  0  0  0  0  0
    9.7505   -2.8105   22.8191 H   0  0  0  0  0  0  0  0  0  0  0  0
   10.7916   -4.4092   27.1879 H   0  0  0  0  0  0  0  0  0  0  0  0
   10.4723   -5.4869   25.8283 H   0  0  0  0  0  0  0  0  0  0  0  0
   10.0912   -1.1772   21.4980 H   0  0  0  0  0  0  0  0  0  0  0  0
    9.1479    0.3331   21.2505 H   0  0  0  0  0  0  0  0  0  0  0  0
  1  2  1  0  0  0  0
  1  3  2  0  0  0  0
  1 25  1  0  0  0  0
  2  5  2  0  0  0  0
  2 26  1  0  0  0  0
  3  6  1  0  0  0  0
  3 27  1  0  0  0  0
  4  7  2  0  0  0  0
  4  8  1  0  0  0  0
  4 28  1  0  0  0  0
  5 10  1  0  0  0  0
  5 29  1  0  0  0  0
  6 10  2  0  0  0  0
  6 30  1  0  0  0  0
  7 11  1  0  0  0  0
  7 31  1  0  0  0  0
  8 12  2  0  0  0  0
  8 32  1  0  0  0  0
  9 11  2  0  0  0  0
  9 12  1  0  0  0  0
  9 33  1  0  0  0  0
 10 17  1  0  0  0  0
 11 18  1  0  0  0  0
 12 23  1  0  0  0  0
 13 19  1  0  0  0  0
 13 20  1  0  0  0  0
 13 22  2  0  0  0  0
 14 15  1  0  0  0  0
 14 20  1  0  0  0  0
 14 34  1  0  0  0  0
 14 35  1  0  0  0  0
 15 21  1  0  0  0  0
 15 36  1  0  0  0  0
 15 37  1  0  0  0  0
 16 17  1  0  0  0  0
 16 21  1  0  0  0  0
 16 38  1  0  0  0  0
 16 39  1  0  0  0  0
 17 20  1  0  0  0  0
 17 40  1  6  0  0  0
 18 21  1  0  0  0  0
 18 41  1  0  0  0  0
 18 42  1  0  0  0  0
 19 24  1  0  0  0  0
 19 43  1  0  0  0  0
 19 44  1  0  0  0  0
M  END
>  <Chemgauss4 Score>
-4.90404939651489

>  <Number of Confs>
75

$$$$
