DAR-DIA-842-17
 OpenBabel03242009303D

 29 31  0  0  0  0  0  0  0  0999 V2000
   11.4613    0.1277   23.0044 C   0  0  0  0  0  0  0  0  0  0  0  0
   11.0935   -0.2652   24.2900 C   0  0  0  0  0  0  0  0  0  0  0  0
    5.7498   -5.8608   25.0206 C   0  0  0  0  0  0  0  0  0  0  0  0
    4.5548   -5.8733   24.2447 C   0  0  0  0  0  0  0  0  0  0  0  0
   10.5422   -2.4348   25.6446 C   0  0  0  0  0  0  0  0  0  0  0  0
   11.6219   -0.8467   22.0286 C   0  0  0  0  0  0  0  0  0  0  0  0
   10.9044   -1.6362   24.5277 C   0  0  0  0  0  0  0  0  0  0  0  0
   10.5266   -3.7489   25.2294 C   0  0  0  0  0  0  0  0  0  0  0  0
   11.0992   -2.5046   23.4576 C   0  0  0  0  0  0  0  0  0  0  0  0
    6.7988   -5.2759   24.3459 C   0  0  0  0  0  0  0  0  0  0  0  0
    4.7360   -5.2972   23.0064 C   0  0  0  0  0  0  0  0  0  0  0  0
    8.7437   -5.3972   25.9420 C   0  0  0  0  0  0  0  0  0  0  0  0
   10.2210   -4.9876   25.9698 C   0  0  0  0  0  0  0  0  0  0  0  0
   11.4537   -2.1786   22.2002 N   0  0  0  0  0  0  0  0  0  0  0  0
   10.8662   -3.7795   23.9017 N   0  0  0  0  0  0  0  0  0  0  0  0
    8.1422   -5.0567   24.7330 N   0  0  0  0  0  0  0  0  0  0  0  0
    8.2192   -5.9519   26.9024 O   0  0  0  0  0  0  0  0  0  0  0  0
    6.3414   -4.7448   22.7835 S   0  0  0  0  0  0  0  0  0  0  0  0
    3.5761   -5.1008   21.7604 Cl  0  0  0  0  0  0  0  0  0  0  0  0
   11.6192    1.1755   22.7728 H   0  0  0  0  0  0  0  0  0  0  0  0
   10.9607    0.4702   25.0771 H   0  0  0  0  0  0  0  0  0  0  0  0
    5.8306   -6.2622   26.0231 H   0  0  0  0  0  0  0  0  0  0  0  0
    3.6128   -6.2858   24.5838 H   0  0  0  0  0  0  0  0  0  0  0  0
   10.3180   -2.0879   26.6444 H   0  0  0  0  0  0  0  0  0  0  0  0
   11.9088   -0.5581   21.0207 H   0  0  0  0  0  0  0  0  0  0  0  0
   10.8061   -5.8428   25.5765 H   0  0  0  0  0  0  0  0  0  0  0  0
   10.5186   -4.8992   27.0337 H   0  0  0  0  0  0  0  0  0  0  0  0
   10.9349   -4.6128   23.3337 H   0  0  0  0  0  0  0  0  0  0  0  0
    8.7383   -4.5966   24.0480 H   0  0  0  0  0  0  0  0  0  0  0  0
  1  2  2  0  0  0  0
  1  6  1  0  0  0  0
  1 20  1  0  0  0  0
  2  7  1  0  0  0  0
  2 21  1  0  0  0  0
  3  4  1  0  0  0  0
  3 10  2  0  0  0  0
  3 22  1  0  0  0  0
  4 11  2  0  0  0  0
  4 23  1  0  0  0  0
  5  7  1  0  0  0  0
  5  8  2  0  0  0  0
  5 24  1  0  0  0  0
  6 14  2  0  0  0  0
  6 25  1  0  0  0  0
  7  9  2  0  0  0  0
  8 13  1  0  0  0  0
  8 15  1  0  0  0  0
  9 14  1  0  0  0  0
  9 15  1  0  0  0  0
 10 16  1  0  0  0  0
 10 18  1  0  0  0  0
 11 18  1  0  0  0  0
 11 19  1  0  0  0  0
 12 13  1  0  0  0  0
 12 16  1  0  0  0  0
 12 17  2  0  0  0  0
 13 26  1  0  0  0  0
 13 27  1  0  0  0  0
 15 28  1  0  0  0  0
 16 29  1  0  0  0  0
M  END
>  <Chemgauss4 Score>
-6.73379421234131

>  <Number of Confs>
58

$$$$
