KIM-UNI-7d1-3
 OpenBabel03242009303D

 41 42  0  0  0  0  0  0  0  0999 V2000
    6.5086   -5.5531   25.8834 C   0  0  0  0  0  0  0  0  0  0  0  0
    6.6693   -5.5262   27.2686 C   0  0  0  0  0  0  0  0  0  0  0  0
    8.8783   -4.5870   26.9942 C   0  0  0  0  0  0  0  0  0  0  0  0
    8.7176   -4.6139   25.6088 C   0  0  0  0  0  0  0  0  0  0  0  0
    7.5328   -5.0970   25.0534 C   0  0  0  0  0  0  0  0  0  0  0  0
    7.8541   -5.0431   27.8241 C   0  0  0  0  0  0  0  0  0  0  0  0
   12.2431    0.1908   23.7258 C   0  0  0  0  0  0  0  0  0  0  0  0
    6.2364   -5.5826   22.9539 C   0  0  0  0  0  0  0  0  0  0  0  0
   11.6638   -2.1984   23.0905 C   0  0  0  0  0  0  0  0  0  0  0  0
   10.6160   -1.1161   25.0474 C   0  0  0  0  0  0  0  0  0  0  0  0
   10.3056   -2.8118   22.7405 C   0  0  0  0  0  0  0  0  0  0  0  0
    9.2811   -1.7491   24.6517 C   0  0  0  0  0  0  0  0  0  0  0  0
   13.2690    0.1902   22.6205 C   0  0  0  0  0  0  0  0  0  0  0  0
    6.4381   -5.4542   21.4649 C   0  0  0  0  0  0  0  0  0  0  0  0
    9.8361   -4.1169   24.7393 C   0  0  0  0  0  0  0  0  0  0  0  0
   11.5080   -0.9826   23.8959 N   0  0  0  0  0  0  0  0  0  0  0  0
    9.4175   -3.0006   23.8951 N   0  0  0  0  0  0  0  0  0  0  0  0
    7.3532   -5.1324   23.6683 N   0  0  0  0  0  0  0  0  0  0  0  0
   12.0978    1.2046   24.4137 O   0  0  0  0  0  0  0  0  0  0  0  0
    5.1904   -6.0335   23.4095 O   0  0  0  0  0  0  0  0  0  0  0  0
    8.0513   -5.0092   29.5335 Cl  0  0  0  0  0  0  0  0  0  0  0  0
    5.5806   -5.9322   25.4628 H   0  0  0  0  0  0  0  0  0  0  0  0
    5.8633   -5.8863   27.9030 H   0  0  0  0  0  0  0  0  0  0  0  0
    9.8041   -4.2094   27.4227 H   0  0  0  0  0  0  0  0  0  0  0  0
   12.2597   -2.9020   23.6862 H   0  0  0  0  0  0  0  0  0  0  0  0
   12.2188   -2.0063   22.1694 H   0  0  0  0  0  0  0  0  0  0  0  0
   10.4381   -0.1413   25.5147 H   0  0  0  0  0  0  0  0  0  0  0  0
   11.1340   -1.7407   25.7867 H   0  0  0  0  0  0  0  0  0  0  0  0
    9.8119   -2.1854   21.9655 H   0  0  0  0  0  0  0  0  0  0  0  0
   10.4905   -3.7922   22.2544 H   0  0  0  0  0  0  0  0  0  0  0  0
    8.7072   -1.9418   25.5820 H   0  0  0  0  0  0  0  0  0  0  0  0
    8.6794   -1.0085   24.0803 H   0  0  0  0  0  0  0  0  0  0  0  0
   12.8036    0.5377   21.7041 H   0  0  0  0  0  0  0  0  0  0  0  0
   13.6457   -0.8187   22.4857 H   0  0  0  0  0  0  0  0  0  0  0  0
   14.0865    0.8493   22.8945 H   0  0  0  0  0  0  0  0  0  0  0  0
    6.8873   -6.3706   21.0718 H   0  0  0  0  0  0  0  0  0  0  0  0
    7.1048   -4.6134   21.2528 H   0  0  0  0  0  0  0  0  0  0  0  0
    5.4777   -5.2764   20.9721 H   0  0  0  0  0  0  0  0  0  0  0  0
   10.6798   -3.7792   25.3510 H   0  0  0  0  0  0  0  0  0  0  0  0
   10.2072   -4.9117   24.0838 H   0  0  0  0  0  0  0  0  0  0  0  0
    8.1338   -4.7858   23.1005 H   0  0  0  0  0  0  0  0  0  0  0  0
  1  2  2  0  0  0  0
  1  5  1  0  0  0  0
  1 22  1  0  0  0  0
  2  6  1  0  0  0  0
  2 23  1  0  0  0  0
  3  4  1  0  0  0  0
  3  6  2  0  0  0  0
  3 24  1  0  0  0  0
  4  5  2  0  0  0  0
  4 15  1  0  0  0  0
  5 18  1  0  0  0  0
  6 21  1  0  0  0  0
  7 13  1  0  0  0  0
  7 16  1  0  0  0  0
  7 19  2  0  0  0  0
  8 14  1  0  0  0  0
  8 18  1  0  0  0  0
  8 20  2  0  0  0  0
  9 11  1  0  0  0  0
  9 16  1  0  0  0  0
  9 25  1  0  0  0  0
  9 26  1  0  0  0  0
 10 12  1  0  0  0  0
 10 16  1  0  0  0  0
 10 27  1  0  0  0  0
 10 28  1  0  0  0  0
 11 17  1  0  0  0  0
 11 29  1  0  0  0  0
 11 30  1  0  0  0  0
 12 17  1  0  0  0  0
 12 31  1  0  0  0  0
 12 32  1  0  0  0  0
 13 33  1  0  0  0  0
 13 34  1  0  0  0  0
 13 35  1  0  0  0  0
 14 36  1  0  0  0  0
 14 37  1  0  0  0  0
 14 38  1  0  0  0  0
 15 17  1  0  0  0  0
 15 39  1  0  0  0  0
 15 40  1  0  0  0  0
 18 41  1  0  0  0  0
M  END
>  <Chemgauss4 Score>
-4.70207834243774

>  <Number of Confs>
26

$$$$
