JOH-MSK-ec6-1
 OpenBabel03242009303D

 36 37  0  0  1  0  0  0  0  0999 V2000
    9.2677   -1.9171   24.8255 C   0  0  0  0  0  0  0  0  0  0  0  0
   11.6688   -3.1145   23.9239 C   0  0  0  0  0  0  0  0  0  0  0  0
    9.9870   -5.1251   26.4230 C   0  0  0  0  0  0  0  0  0  0  0  0
    9.6754   -3.1584   25.3530 C   0  0  0  0  0  0  0  0  0  0  0  0
    9.1331   -4.0513   26.3193 C   0  0  0  0  0  0  0  0  0  0  0  0
   10.8641   -3.7274   24.8909 C   0  0  0  0  0  0  0  0  0  0  0  0
   10.0626   -1.2924   23.8575 C   0  0  0  0  0  0  0  0  0  0  0  0
   11.2443   -1.8838   23.4151 C   0  0  0  0  0  0  0  0  0  0  0  0
    6.8274   -6.0896   25.1661 C   0  0  0  0  0  0  0  0  0  0  0  0
    6.8838   -6.8288   23.8705 C   0  0  0  0  0  0  0  0  0  0  0  0
    7.9368   -2.6260   28.0093 C   0  0  0  0  0  0  0  0  0  0  0  0
    8.4268    0.4337   23.8740 C   0  0  0  0  0  0  0  0  0  0  0  0
    6.6316   -3.8155   26.1524 C   0  0  0  0  0  0  0  0  0  0  0  0
    7.8814   -3.8671   27.0815 C   0  0  1  0  0  0  0  0  0  0  0  0
   11.0282   -4.9205   25.5578 N   0  0  0  0  0  0  0  0  0  0  0  0
    6.7064   -4.7293   25.0161 N   0  0  0  0  0  0  0  0  0  0  0  0
    6.8880   -6.7119   26.2200 O   0  0  0  0  0  0  0  0  0  0  0  0
    9.6479   -0.0907   23.3600 O   0  0  0  0  0  0  0  0  0  0  0  0
   12.2224   -1.1089   22.2194 Cl  0  0  0  0  0  0  0  0  0  0  0  0
    8.3471   -1.4498   25.1641 H   0  0  0  0  0  0  0  0  0  0  0  0
   12.5871   -3.5862   23.5876 H   0  0  0  0  0  0  0  0  0  0  0  0
    9.9500   -6.0156   27.0351 H   0  0  0  0  0  0  0  0  0  0  0  0
    7.9142   -6.9476   23.4986 H   0  0  0  0  0  0  0  0  0  0  0  0
    6.4841   -7.8524   23.9527 H   0  0  0  0  0  0  0  0  0  0  0  0
    6.3273   -6.3666   23.0395 H   0  0  0  0  0  0  0  0  0  0  0  0
    8.0957   -1.6935   27.4583 H   0  0  0  0  0  0  0  0  0  0  0  0
    8.7403   -2.7184   28.7481 H   0  0  0  0  0  0  0  0  0  0  0  0
    6.9919   -2.5249   28.5555 H   0  0  0  0  0  0  0  0  0  0  0  0
    8.2113    1.3924   23.3960 H   0  0  0  0  0  0  0  0  0  0  0  0
    8.5123    0.5648   24.9557 H   0  0  0  0  0  0  0  0  0  0  0  0
    7.6188   -0.2689   23.6569 H   0  0  0  0  0  0  0  0  0  0  0  0
    5.7225   -4.0347   26.7245 H   0  0  0  0  0  0  0  0  0  0  0  0
    6.5255   -2.7959   25.7627 H   0  0  0  0  0  0  0  0  0  0  0  0
    7.7178   -4.7309   27.7652 H   0  0  0  0  0  0  0  0  0  0  0  0
   11.8064   -5.5521   25.4280 H   0  0  0  0  0  0  0  0  0  0  0  0
    6.6676   -4.3465   24.0835 H   0  0  0  0  0  0  0  0  0  0  0  0
  1  4  2  0  0  0  0
  1  7  1  0  0  0  0
  1 20  1  0  0  0  0
  2  6  2  0  0  0  0
  2  8  1  0  0  0  0
  2 21  1  0  0  0  0
  3  5  2  0  0  0  0
  3 15  1  0  0  0  0
  3 22  1  0  0  0  0
  4  5  1  0  0  0  0
  4  6  1  0  0  0  0
  5 14  1  0  0  0  0
  6 15  1  0  0  0  0
  7  8  2  0  0  0  0
  7 18  1  0  0  0  0
  8 19  1  0  0  0  0
  9 10  1  0  0  0  0
  9 16  1  0  0  0  0
  9 17  2  0  0  0  0
 10 23  1  0  0  0  0
 10 24  1  0  0  0  0
 10 25  1  0  0  0  0
 11 14  1  0  0  0  0
 11 26  1  0  0  0  0
 11 27  1  0  0  0  0
 11 28  1  0  0  0  0
 12 18  1  0  0  0  0
 12 29  1  0  0  0  0
 12 30  1  0  0  0  0
 12 31  1  0  0  0  0
 13 14  1  0  0  0  0
 13 16  1  0  0  0  0
 13 32  1  0  0  0  0
 13 33  1  0  0  0  0
 14 34  1  1  0  0  0
 15 35  1  0  0  0  0
 16 36  1  0  0  0  0
M  END
>  <Chemgauss4 Score>
-4.73276281356812

>  <Number of Confs>
111

$$$$
