DAR-DIA-23a-19
 OpenBabel03242009303D

 35 37  0  0  0  0  0  0  0  0999 V2000
    8.5001    0.1267   20.6773 C   0  0  0  0  0  0  0  0  0  0  0  0
    5.6732   -5.8557   25.5682 C   0  0  0  0  0  0  0  0  0  0  0  0
    6.5234   -5.4888   24.5276 C   0  0  0  0  0  0  0  0  0  0  0  0
   12.1777   -0.2139   21.1413 C   0  0  0  0  0  0  0  0  0  0  0  0
   10.9429    0.2338   20.6720 C   0  0  0  0  0  0  0  0  0  0  0  0
    6.1351   -5.8453   26.8841 C   0  0  0  0  0  0  0  0  0  0  0  0
    7.8394   -5.1098   24.7983 C   0  0  0  0  0  0  0  0  0  0  0  0
   12.2345   -1.2286   22.0968 C   0  0  0  0  0  0  0  0  0  0  0  0
    9.8215   -1.3476   22.1137 C   0  0  0  0  0  0  0  0  0  0  0  0
    7.9717   -5.4372   28.4659 C   0  0  0  0  0  0  0  0  0  0  0  0
   10.0352   -4.7282   27.7488 C   0  0  0  0  0  0  0  0  0  0  0  0
    9.7648   -0.3330   21.1582 C   0  0  0  0  0  0  0  0  0  0  0  0
    7.4574   -5.4656   27.1681 C   0  0  0  0  0  0  0  0  0  0  0  0
    8.3213   -5.0935   26.1174 C   0  0  0  0  0  0  0  0  0  0  0  0
    9.6351   -4.7184   26.4213 C   0  0  0  0  0  0  0  0  0  0  0  0
   11.0563   -1.7954   22.5830 C   0  0  0  0  0  0  0  0  0  0  0  0
   10.1788   -3.1133   24.5421 C   0  0  0  0  0  0  0  0  0  0  0  0
   10.6233   -4.3087   25.3801 C   0  0  0  0  0  0  0  0  0  0  0  0
    7.4730    0.5000   20.2868 N   0  0  0  0  0  0  0  0  0  0  0  0
    9.2370   -5.0782   28.7798 N   0  0  0  0  0  0  0  0  0  0  0  0
   11.1144   -2.8258   23.5514 N   0  0  0  0  0  0  0  0  0  0  0  0
    9.1256   -2.5241   24.7628 O   0  0  0  0  0  0  0  0  0  0  0  0
    4.6498   -6.1500   25.3547 H   0  0  0  0  0  0  0  0  0  0  0  0
    6.1619   -5.4973   23.5033 H   0  0  0  0  0  0  0  0  0  0  0  0
   13.0952    0.2268   20.7621 H   0  0  0  0  0  0  0  0  0  0  0  0
   10.9153    1.0260   19.9277 H   0  0  0  0  0  0  0  0  0  0  0  0
    5.4574   -6.1345   27.6840 H   0  0  0  0  0  0  0  0  0  0  0  0
    8.4736   -4.8303   23.9603 H   0  0  0  0  0  0  0  0  0  0  0  0
   13.2025   -1.5697   22.4553 H   0  0  0  0  0  0  0  0  0  0  0  0
    8.9043   -1.7918   22.4956 H   0  0  0  0  0  0  0  0  0  0  0  0
    7.3596   -5.7121   29.3207 H   0  0  0  0  0  0  0  0  0  0  0  0
   11.0440   -4.4450   28.0343 H   0  0  0  0  0  0  0  0  0  0  0  0
   11.5889   -4.0576   25.8481 H   0  0  0  0  0  0  0  0  0  0  0  0
   10.8273   -5.1494   24.6974 H   0  0  0  0  0  0  0  0  0  0  0  0
   11.9354   -3.4266   23.5203 H   0  0  0  0  0  0  0  0  0  0  0  0
  1 12  1  0  0  0  0
  1 19  3  0  0  0  0
  2  3  1  0  0  0  0
  2  6  2  0  0  0  0
  2 23  1  0  0  0  0
  3  7  2  0  0  0  0
  3 24  1  0  0  0  0
  4  5  2  0  0  0  0
  4  8  1  0  0  0  0
  4 25  1  0  0  0  0
  5 12  1  0  0  0  0
  5 26  1  0  0  0  0
  6 13  1  0  0  0  0
  6 27  1  0  0  0  0
  7 14  1  0  0  0  0
  7 28  1  0  0  0  0
  8 16  2  0  0  0  0
  8 29  1  0  0  0  0
  9 12  2  0  0  0  0
  9 16  1  0  0  0  0
  9 30  1  0  0  0  0
 10 13  2  0  0  0  0
 10 20  1  0  0  0  0
 10 31  1  0  0  0  0
 11 15  1  0  0  0  0
 11 20  2  0  0  0  0
 11 32  1  0  0  0  0
 13 14  1  0  0  0  0
 14 15  2  0  0  0  0
 15 18  1  0  0  0  0
 16 21  1  0  0  0  0
 17 18  1  0  0  0  0
 17 21  1  0  0  0  0
 17 22  2  0  0  0  0
 18 33  1  0  0  0  0
 18 34  1  0  0  0  0
 21 35  1  0  0  0  0
M  END
>  <Chemgauss4 Score>
-5.25336980819702

>  <Number of Confs>
71

$$$$
