DAR-DIA-43a-8
 OpenBabel03242009303D

 36 38  0  0  1  0  0  0  0  0999 V2000
    5.9182   -5.0450   23.5597 C   0  0  0  0  0  0  0  0  0  0  0  0
    6.8930   -4.0752   23.7938 C   0  0  0  0  0  0  0  0  0  0  0  0
    5.4769   -5.8568   24.6047 C   0  0  0  0  0  0  0  0  0  0  0  0
    6.9853   -4.7290   26.1179 C   0  0  0  0  0  0  0  0  0  0  0  0
   12.3146   -0.2408   23.9115 C   0  0  0  0  0  0  0  0  0  0  0  0
   14.1619    0.0535   22.7667 C   0  0  0  0  0  0  0  0  0  0  0  0
    7.4266   -3.9172   25.0728 C   0  0  0  0  0  0  0  0  0  0  0  0
    6.0105   -5.6988   25.8838 C   0  0  0  0  0  0  0  0  0  0  0  0
   11.9731   -0.9521   22.7803 C   0  0  0  0  0  0  0  0  0  0  0  0
    8.8157   -2.0586   24.0981 C   0  0  0  0  0  0  0  0  0  0  0  0
   10.0578   -2.2911   23.6552 C   0  0  0  0  0  0  0  0  0  0  0  0
    9.9071   -4.7193   26.3960 C   0  0  0  0  0  0  0  0  0  0  0  0
   10.7762   -3.2874   24.5108 C   0  0  0  0  0  0  0  0  0  0  0  0
    8.4869   -2.8639   25.3262 C   0  0  2  0  0  0  0  0  0  0  0  0
    9.8863   -3.3643   25.7572 C   0  0  1  0  0  0  0  0  0  0  0  0
   10.7031   -1.6985   22.4558 C   0  0  0  0  0  0  0  0  0  0  0  0
   13.5695    0.3362   23.9057 N   0  0  0  0  0  0  0  0  0  0  0  0
    9.7194   -4.6934   27.7577 N   0  0  0  0  0  0  0  0  0  0  0  0
   10.0621   -5.7473   25.7413 O   0  0  0  0  0  0  0  0  0  0  0  0
   13.2675   -0.9016   21.6564 S   0  0  0  0  0  0  0  0  0  0  0  0
    5.4664   -6.7013   27.1724 Cl  0  0  0  0  0  0  0  0  0  0  0  0
    5.5030   -5.1679   22.5636 H   0  0  0  0  0  0  0  0  0  0  0  0
    7.2310   -3.4472   22.9736 H   0  0  0  0  0  0  0  0  0  0  0  0
    4.7167   -6.6087   24.4076 H   0  0  0  0  0  0  0  0  0  0  0  0
    7.4041   -4.6015   27.1134 H   0  0  0  0  0  0  0  0  0  0  0  0
   11.6810   -0.1099   24.7788 H   0  0  0  0  0  0  0  0  0  0  0  0
   15.1593    0.4013   22.5354 H   0  0  0  0  0  0  0  0  0  0  0  0
    8.1373   -1.3386   23.6529 H   0  0  0  0  0  0  0  0  0  0  0  0
   10.8774   -4.2537   24.0070 H   0  0  0  0  0  0  0  0  0  0  0  0
   11.7737   -2.9108   24.7609 H   0  0  0  0  0  0  0  0  0  0  0  0
    8.0845   -2.1725   26.0828 H   0  0  0  0  0  0  0  0  0  0  0  0
   10.2920   -2.6599   26.5502 H   0  0  0  0  0  0  0  0  0  0  0  0
   10.0012   -1.0159   21.9571 H   0  0  0  0  0  0  0  0  0  0  0  0
   10.9144   -2.4900   21.7241 H   0  0  0  0  0  0  0  0  0  0  0  0
    9.5857   -3.7969   28.2139 H   0  0  0  0  0  0  0  0  0  0  0  0
    9.7090   -5.5349   28.3249 H   0  0  0  0  0  0  0  0  0  0  0  0
  1  2  2  0  0  0  0
  1  3  1  0  0  0  0
  1 22  1  0  0  0  0
  2  7  1  0  0  0  0
  2 23  1  0  0  0  0
  3  8  2  0  0  0  0
  3 24  1  0  0  0  0
  4  7  2  0  0  0  0
  4  8  1  0  0  0  0
  4 25  1  0  0  0  0
  5  9  2  0  0  0  0
  5 17  1  0  0  0  0
  5 26  1  0  0  0  0
  6 17  2  0  0  0  0
  6 20  1  0  0  0  0
  6 27  1  0  0  0  0
  7 14  1  0  0  0  0
  8 21  1  0  0  0  0
  9 16  1  0  0  0  0
  9 20  1  0  0  0  0
 10 11  2  0  0  0  0
 10 14  1  0  0  0  0
 10 28  1  0  0  0  0
 11 13  1  0  0  0  0
 11 16  1  0  0  0  0
 12 15  1  0  0  0  0
 12 18  1  0  0  0  0
 12 19  2  0  0  0  0
 13 15  1  0  0  0  0
 13 29  1  0  0  0  0
 13 30  1  0  0  0  0
 14 15  1  0  0  0  0
 14 31  1  1  0  0  0
 15 32  1  1  0  0  0
 16 33  1  0  0  0  0
 16 34  1  0  0  0  0
 18 35  1  0  0  0  0
 18 36  1  0  0  0  0
M  END
>  <Chemgauss4 Score>
-5.89524698257446

>  <Number of Confs>
200

$$$$
