JOH-MEM-5e3-5
 OpenBabel03242009303D

 48 51  0  0  1  0  0  0  0  0999 V2000
   10.8730   -1.9708   22.0392 C   0  0  0  0  0  0  0  0  0  0  0  0
   11.0924   -2.3405   23.3695 C   0  0  0  0  0  0  0  0  0  0  0  0
    8.8951   -1.5355   24.0250 C   0  0  0  0  0  0  0  0  0  0  0  0
    8.6477   -1.1532   22.6936 C   0  0  0  0  0  0  0  0  0  0  0  0
    7.5746   -0.5520   22.0142 C   0  0  0  0  0  0  0  0  0  0  0  0
    9.6448   -1.3789   21.7219 C   0  0  0  0  0  0  0  0  0  0  0  0
   10.1217   -2.1275   24.3470 C   0  0  0  0  0  0  0  0  0  0  0  0
    7.9277   -0.4315   20.7040 C   0  0  0  0  0  0  0  0  0  0  0  0
    6.3303   -3.7614   26.2625 C   0  0  0  0  0  0  0  0  0  0  0  0
    7.1045    0.3638   18.5766 C   0  0  0  0  0  0  0  0  0  0  0  0
    6.2121   -0.0171   22.2559 C   0  0  0  0  0  0  0  0  0  0  0  0
    5.7887    0.4618   20.8171 C   0  0  0  0  0  0  0  0  0  0  0  0
    7.7358   -3.3001   26.5940 C   0  0  1  0  0  0  0  0  0  0  0  0
    7.9687   -3.5901   28.0733 C   0  0  1  0  0  0  0  0  0  0  0  0
    9.4369   -3.3546   28.4483 C   0  0  1  0  0  0  0  0  0  0  0  0
   10.3696   -4.0804   27.4744 C   0  0  2  0  0  0  0  0  0  0  0  0
    9.9953   -3.8227   26.0077 C   0  0  1  0  0  0  0  0  0  0  0  0
    5.9131    1.0117   17.9167 C   0  0  0  0  0  0  0  0  0  0  0  0
    9.1685   -0.9206   20.4993 N   0  0  0  0  0  0  0  0  0  0  0  0
    6.9551    0.1463   19.9298 N   0  0  0  0  0  0  0  0  0  0  0  0
    5.5463   -4.2528   27.0607 O   0  0  0  0  0  0  0  0  0  0  0  0
    8.0999    0.0754   17.9115 O   0  0  0  0  0  0  0  0  0  0  0  0
    8.6066   -4.0744   25.7762 O   0  0  0  0  0  0  0  0  0  0  0  0
    6.0564   -3.5573   24.9508 O   0  0  0  0  0  0  0  0  0  0  0  0
    7.1285   -2.7787   28.8885 O   0  0  0  0  0  0  0  0  0  0  0  0
    9.7382   -1.9601   28.3982 O   0  0  0  0  0  0  0  0  0  0  0  0
   10.3213   -5.4826   27.7302 O   0  0  0  0  0  0  0  0  0  0  0  0
   10.3687   -2.5003   25.6348 O   0  0  0  0  0  0  0  0  0  0  0  0
   11.6316   -2.1386   21.2819 H   0  0  0  0  0  0  0  0  0  0  0  0
   12.0398   -2.8020   23.6388 H   0  0  0  0  0  0  0  0  0  0  0  0
    8.1445   -1.3733   24.7938 H   0  0  0  0  0  0  0  0  0  0  0  0
    5.5345   -0.7940   22.6217 H   0  0  0  0  0  0  0  0  0  0  0  0
    6.2289    0.8236   22.9556 H   0  0  0  0  0  0  0  0  0  0  0  0
    4.9063   -0.0743   20.4528 H   0  0  0  0  0  0  0  0  0  0  0  0
    5.5963    1.5391   20.7867 H   0  0  0  0  0  0  0  0  0  0  0  0
    7.7926   -2.2358   26.3662 H   0  0  0  0  0  0  0  0  0  0  0  0
    7.7210   -4.6432   28.2874 H   0  0  0  0  0  0  0  0  0  0  0  0
    9.6093   -3.6889   29.4787 H   0  0  0  0  0  0  0  0  0  0  0  0
   11.4076   -3.7415   27.6446 H   0  0  0  0  0  0  0  0  0  0  0  0
   10.5496   -4.5193   25.3675 H   0  0  0  0  0  0  0  0  0  0  0  0
    6.0297    2.0897   17.9541 H   0  0  0  0  0  0  0  0  0  0  0  0
    5.0113    0.7175   18.4440 H   0  0  0  0  0  0  0  0  0  0  0  0
    5.8551    0.6802   16.8850 H   0  0  0  0  0  0  0  0  0  0  0  0
    9.6719   -0.9543   19.6227 H   0  0  0  0  0  0  0  0  0  0  0  0
    5.1506   -3.8516   24.7155 H   0  0  0  0  0  0  0  0  0  0  0  0
    7.3258   -3.0116   29.8095 H   0  0  0  0  0  0  0  0  0  0  0  0
   10.6718   -1.8733   28.6426 H   0  0  0  0  0  0  0  0  0  0  0  0
   10.6124   -5.6049   28.6467 H   0  0  0  0  0  0  0  0  0  0  0  0
  1  2  2  0  0  0  0
  1  6  1  0  0  0  0
  1 29  1  0  0  0  0
  2  7  1  0  0  0  0
  2 30  1  0  0  0  0
  3  4  1  0  0  0  0
  3  7  2  0  0  0  0
  3 31  1  0  0  0  0
  4  5  1  0  0  0  0
  4  6  2  0  0  0  0
  5  8  2  0  0  0  0
  5 11  1  0  0  0  0
  6 19  1  0  0  0  0
  7 28  1  0  0  0  0
  8 19  1  0  0  0  0
  8 20  1  0  0  0  0
  9 13  1  0  0  0  0
  9 21  2  0  0  0  0
  9 24  1  0  0  0  0
 10 18  1  0  0  0  0
 10 20  1  0  0  0  0
 10 22  2  0  0  0  0
 11 12  1  0  0  0  0
 11 32  1  0  0  0  0
 11 33  1  0  0  0  0
 12 20  1  0  0  0  0
 12 34  1  0  0  0  0
 12 35  1  0  0  0  0
 13 14  1  0  0  0  0
 13 23  1  0  0  0  0
 13 36  1  6  0  0  0
 14 15  1  0  0  0  0
 14 25  1  0  0  0  0
 14 37  1  1  0  0  0
 15 16  1  0  0  0  0
 15 26  1  0  0  0  0
 15 38  1  1  0  0  0
 16 17  1  0  0  0  0
 16 27  1  0  0  0  0
 16 39  1  1  0  0  0
 17 23  1  0  0  0  0
 17 28  1  0  0  0  0
 17 40  1  6  0  0  0
 18 41  1  0  0  0  0
 18 42  1  0  0  0  0
 18 43  1  0  0  0  0
 19 44  1  0  0  0  0
 24 45  1  0  0  0  0
 25 46  1  0  0  0  0
 26 47  1  0  0  0  0
 27 48  1  0  0  0  0
M  END
>  <Chemgauss4 Score>
-5.14145088195801

>  <Number of Confs>
109

$$$$
