NIM-UNI-36e-1
 OpenBabel03242009303D

 34 36  0  0  1  0  0  0  0  0999 V2000
   12.4073   -0.3945   23.4599 C   0  0  0  0  0  0  0  0  0  0  0  0
   11.4402   -0.4393   24.4579 C   0  0  0  0  0  0  0  0  0  0  0  0
   12.2695   -1.2567   22.3840 C   0  0  0  0  0  0  0  0  0  0  0  0
   10.3326   -2.1524   23.2352 C   0  0  0  0  0  0  0  0  0  0  0  0
   10.3798   -1.3323   24.3510 C   0  0  0  0  0  0  0  0  0  0  0  0
    8.9656   -0.2973   26.1651 C   0  0  0  0  0  0  0  0  0  0  0  0
    8.5135   -4.8238   24.6310 C   0  0  0  0  0  0  0  0  0  0  0  0
    9.0079   -4.0965   27.9599 C   0  0  0  0  0  0  0  0  0  0  0  0
    9.8463   -4.2317   26.6956 C   0  0  0  0  0  0  0  0  0  0  0  0
    7.8232   -2.2085   26.9401 C   0  0  2  0  0  0  0  0  0  0  0  0
    8.4607   -2.5273   25.5677 C   0  0  1  0  0  0  0  0  0  0  0  0
    9.3610   -6.0477   24.3892 C   0  0  0  0  0  0  0  0  0  0  0  0
   11.2534   -2.1376   22.2455 N   0  0  0  0  0  0  0  0  0  0  0  0
    7.9437   -0.7740   27.0116 N   0  0  0  0  0  0  0  0  0  0  0  0
    8.5369   -2.7274   28.1069 N   0  0  0  0  0  0  0  0  0  0  0  0
    9.3754   -1.4016   25.3557 N   0  0  0  0  0  0  0  0  0  0  0  0
    9.0078   -3.8889   25.5477 N   0  0  0  0  0  0  0  0  0  0  0  0
    9.3606    0.8613   26.1464 O   0  0  0  0  0  0  0  0  0  0  0  0
    7.4504   -4.6993   24.0172 O   0  0  0  0  0  0  0  0  0  0  0  0
   13.2426    0.2937   23.5223 H   0  0  0  0  0  0  0  0  0  0  0  0
   11.5225    0.2254   25.3137 H   0  0  0  0  0  0  0  0  0  0  0  0
   12.9977   -1.2612   21.5798 H   0  0  0  0  0  0  0  0  0  0  0  0
    9.5294   -2.8698   23.0954 H   0  0  0  0  0  0  0  0  0  0  0  0
    8.1495   -4.7690   27.9042 H   0  0  0  0  0  0  0  0  0  0  0  0
    9.5829   -4.4014   28.8367 H   0  0  0  0  0  0  0  0  0  0  0  0
   10.6922   -3.5629   26.7158 H   0  0  0  0  0  0  0  0  0  0  0  0
   10.1825   -5.2511   26.5999 H   0  0  0  0  0  0  0  0  0  0  0  0
    6.7829   -2.4565   26.9860 H   0  0  0  0  0  0  0  0  0  0  0  0
    7.6715   -2.4259   24.7929 H   0  0  0  0  0  0  0  0  0  0  0  0
    9.0729   -6.8220   25.0919 H   0  0  0  0  0  0  0  0  0  0  0  0
   10.4053   -5.7888   24.5289 H   0  0  0  0  0  0  0  0  0  0  0  0
    9.2043   -6.3914   23.3722 H   0  0  0  0  0  0  0  0  0  0  0  0
    7.4149   -0.1878   27.6360 H   0  0  0  0  0  0  0  0  0  0  0  0
    7.8956   -2.6967   28.9115 H   0  0  0  0  0  0  0  0  0  0  0  0
  1  2  2  0  0  0  0
  1  3  1  0  0  0  0
  1 20  1  0  0  0  0
  2  5  1  0  0  0  0
  2 21  1  0  0  0  0
  3 13  2  0  0  0  0
  3 22  1  0  0  0  0
  4  5  2  0  0  0  0
  4 13  1  0  0  0  0
  4 23  1  0  0  0  0
  5 16  1  0  0  0  0
  6 14  1  0  0  0  0
  6 16  1  0  0  0  0
  6 18  2  0  0  0  0
  7 12  1  0  0  0  0
  7 17  1  0  0  0  0
  7 19  2  0  0  0  0
  8  9  1  0  0  0  0
  8 15  1  0  0  0  0
  8 24  1  0  0  0  0
  8 25  1  0  0  0  0
  9 17  1  0  0  0  0
  9 26  1  0  0  0  0
  9 27  1  0  0  0  0
 10 11  1  0  0  0  0
 10 14  1  0  0  0  0
 10 15  1  0  0  0  0
 10 28  1  1  0  0  0
 11 16  1  0  0  0  0
 11 17  1  0  0  0  0
 11 29  1  6  0  0  0
 12 30  1  0  0  0  0
 12 31  1  0  0  0  0
 12 32  1  0  0  0  0
 14 33  1  0  0  0  0
 15 34  1  0  0  0  0
M  END
>  <Chemgauss4 Score>
-4.56792545318604

>  <Number of Confs>
8

$$$$
