NIM-UNI-36e-1
 OpenBabel03242009303D

 34 36  0  0  1  0  0  0  0  0999 V2000
   12.1138    0.1093   23.0302 C   0  0  0  0  0  0  0  0  0  0  0  0
   11.4416   -0.2359   24.1974 C   0  0  0  0  0  0  0  0  0  0  0  0
   12.3418   -0.8867   22.0943 C   0  0  0  0  0  0  0  0  0  0  0  0
   11.3004   -2.4697   23.3934 C   0  0  0  0  0  0  0  0  0  0  0  0
   11.0238   -1.5480   24.3903 C   0  0  0  0  0  0  0  0  0  0  0  0
    9.9849   -1.0900   26.6766 C   0  0  0  0  0  0  0  0  0  0  0  0
    7.8879   -3.0395   24.3168 C   0  0  0  0  0  0  0  0  0  0  0  0
    8.6241   -5.3949   27.1502 C   0  0  0  0  0  0  0  0  0  0  0  0
    8.2071   -5.1134   25.7034 C   0  0  0  0  0  0  0  0  0  0  0  0
    9.7624   -3.3187   27.3850 C   0  0  1  0  0  0  0  0  0  0  0  0
    9.8998   -3.3041   25.8507 C   0  0  2  0  0  0  0  0  0  0  0  0
    7.0691   -3.8331   23.3250 C   0  0  0  0  0  0  0  0  0  0  0  0
   11.9510   -2.1719   22.2464 N   0  0  0  0  0  0  0  0  0  0  0  0
    9.5426   -1.9380   27.7135 N   0  0  0  0  0  0  0  0  0  0  0  0
    8.6945   -4.1523   27.9233 N   0  0  0  0  0  0  0  0  0  0  0  0
   10.3313   -1.9332   25.5790 N   0  0  0  0  0  0  0  0  0  0  0  0
    8.6348   -3.7832   25.2389 N   0  0  0  0  0  0  0  0  0  0  0  0
   10.0450    0.1285   26.7711 O   0  0  0  0  0  0  0  0  0  0  0  0
    7.8436   -1.8092   24.2598 O   0  0  0  0  0  0  0  0  0  0  0  0
   12.4486    1.1259   22.8586 H   0  0  0  0  0  0  0  0  0  0  0  0
   11.2487    0.5247   24.9494 H   0  0  0  0  0  0  0  0  0  0  0  0
   12.8626   -0.6688   21.1678 H   0  0  0  0  0  0  0  0  0  0  0  0
   10.9994   -3.5090   23.4863 H   0  0  0  0  0  0  0  0  0  0  0  0
    7.9316   -6.1003   27.6161 H   0  0  0  0  0  0  0  0  0  0  0  0
    9.6068   -5.8723   27.1527 H   0  0  0  0  0  0  0  0  0  0  0  0
    8.6513   -5.8719   25.0537 H   0  0  0  0  0  0  0  0  0  0  0  0
    7.1200   -5.1756   25.5951 H   0  0  0  0  0  0  0  0  0  0  0  0
   10.7214   -3.6150   27.8523 H   0  0  0  0  0  0  0  0  0  0  0  0
   10.7298   -3.9623   25.5668 H   0  0  0  0  0  0  0  0  0  0  0  0
    6.0838   -4.0113   23.7419 H   0  0  0  0  0  0  0  0  0  0  0  0
    7.5666   -4.7774   23.1301 H   0  0  0  0  0  0  0  0  0  0  0  0
    6.9860   -3.2684   22.4024 H   0  0  0  0  0  0  0  0  0  0  0  0
    9.1280   -1.6128   28.5694 H   0  0  0  0  0  0  0  0  0  0  0  0
    7.8189   -3.6608   27.8719 H   0  0  0  0  0  0  0  0  0  0  0  0
  1  2  2  0  0  0  0
  1  3  1  0  0  0  0
  1 20  1  0  0  0  0
  2  5  1  0  0  0  0
  2 21  1  0  0  0  0
  3 13  2  0  0  0  0
  3 22  1  0  0  0  0
  4  5  2  0  0  0  0
  4 13  1  0  0  0  0
  4 23  1  0  0  0  0
  5 16  1  0  0  0  0
  6 14  1  0  0  0  0
  6 16  1  0  0  0  0
  6 18  2  0  0  0  0
  7 12  1  0  0  0  0
  7 17  1  0  0  0  0
  7 19  2  0  0  0  0
  8  9  1  0  0  0  0
  8 15  1  0  0  0  0
  8 24  1  0  0  0  0
  8 25  1  0  0  0  0
  9 17  1  0  0  0  0
  9 26  1  0  0  0  0
  9 27  1  0  0  0  0
 10 11  1  0  0  0  0
 10 14  1  0  0  0  0
 10 15  1  0  0  0  0
 10 28  1  1  0  0  0
 11 16  1  0  0  0  0
 11 17  1  0  0  0  0
 11 29  1  6  0  0  0
 12 30  1  0  0  0  0
 12 31  1  0  0  0  0
 12 32  1  0  0  0  0
 14 33  1  0  0  0  0
 15 34  1  0  0  0  0
M  END
>  <Chemgauss4 Score>
-6.10377883911133

>  <Number of Confs>
8

$$$$
