@<TRIPOS>MOLECULE
LIG(A-501)
   55    59     0     0     0
SMALL
USER_CHARGES

@<TRIPOS>ATOM
      1 O1          9.5300    1.4180   21.3870 O.2       1 LIG501     -0.6148
      2 C1          9.0860    0.3830   21.8480 C.2       1 LIG501      0.6817
      3 N1          8.0130   -0.3040   21.3670 N.am      1 LIG501     -0.3706
      4 C2          7.1690    0.1240   20.2890 C.ar      1 LIG501     -0.0925
      5 C3          5.9920    0.9040   20.4860 C.ar      1 LIG501      0.0041
      6 C4          5.4800    1.2630   21.7610 C.ar      1 LIG501     -0.1439
      7 C5          4.3420    2.0110   21.8760 C.ar      1 LIG501     -0.0972
      8 C6          3.6700    2.4590   20.7430 C.ar      1 LIG501     -0.1302
      9 C7          4.1180    2.1380   19.4950 C.ar      1 LIG501     -0.0861
     10 C8          5.2820    1.3450   19.3300 C.ar      1 LIG501     -0.1650
     11 C9          5.7820    0.9620   18.0590 C.ar      1 LIG501      0.4529
     12 N2          6.8720    0.2270   17.8810 N.ar      1 LIG501     -0.6521
     13 C10         7.5330   -0.1700   18.9770 C.ar      1 LIG501      0.4208
     14 C11         7.8230   -1.6000   22.0390 C.3       1 LIG501      0.0855
     15 C12         9.1520   -1.8240   22.7590 C.3       1 LIG501     -0.0877
     16 C13         9.6470   -0.3870   23.0500 C.3       1 LIG501     -0.1024
     17 C14        11.1810   -0.2490   23.0990 C.ar      1 LIG501     -0.0592
     18 C15        11.9950   -1.0230   22.2690 C.ar      1 LIG501     -0.0996
     19 C16        13.3430   -0.7270   22.1780 C.ar      1 LIG501      0.0455
     20 Cl1        14.3160   -1.5690   21.0030 Cl        1 LIG501     -0.0292
     21 C17        13.9180    0.2700   22.9330 C.ar      1 LIG501     -0.0992
     22 C18        13.1250    0.9940   23.8030 C.ar      1 LIG501     -0.0849
     23 C19        11.7570    0.7510   23.8990 C.ar      1 LIG501     -0.1447
     24 C20        10.9320    1.5660   24.8690 C.3       1 LIG501      0.1747
     25 C21         9.0010    0.2430   24.3130 C.3       1 LIG501      0.1233
     26 N3          9.5080    1.6020   24.5010 N.4       1 LIG501     -0.6901
     27 C22         8.7430    2.4720   25.3890 C.3       1 LIG501      0.0112
     28 C23         7.7960    3.4280   24.6840 C.2       1 LIG501      0.6307
     29 O2          6.7990    3.8540   25.2640 O.2       1 LIG501     -0.5329
     30 N4          8.0850    3.7580   23.4290 N.am      1 LIG501     -0.5488
     31 C24         7.1800    4.5360   22.6030 C.3       1 LIG501      0.0652
     32 H1          5.9973    0.9403   22.6525 H         1 LIG501      0.1178
     33 H2          3.9605    2.2568   22.8560 H         1 LIG501      0.1469
     34 H3          2.7844    3.0673   20.8527 H         1 LIG501      0.1518
     35 H4          3.5821    2.4905   18.6261 H         1 LIG501      0.1512
     36 H5          5.2423    1.2888   17.1825 H         1 LIG501      0.0409
     37 H6          8.4210   -0.7671   18.8310 H         1 LIG501      0.0327
     38 H7          6.9900   -1.5532   22.7559 H         1 LIG501      0.0749
     39 H8          7.6324   -2.3987   21.3070 H         1 LIG501      0.0749
     40 H9          9.0042   -2.3863   23.6928 H         1 LIG501      0.0837
     41 H10         9.8629   -2.3627   22.1152 H         1 LIG501      0.0837
     42 H11        11.5766   -1.8433   21.7047 H         1 LIG501      0.1642
     43 H12        14.9732    0.4833   22.8468 H         1 LIG501      0.1759
     44 H13        13.5732    1.7603   24.4181 H         1 LIG501      0.1534
     45 H14        11.0267    1.1239   25.8718 H         1 LIG501      0.1050
     46 H15        11.3192    2.5955   24.8841 H         1 LIG501      0.1050
     47 H16         7.9086    0.2744   24.1878 H         1 LIG501      0.1141
     48 H17         9.2517   -0.3658   25.1942 H         1 LIG501      0.1141
     49 H18         9.4722    2.0331   23.5994 H         1 LIG501      0.4805
     50 H19         8.1491    1.8365   26.0624 H         1 LIG501      0.1257
     51 H20         9.4540    3.0682   25.9798 H         1 LIG501      0.1257
     52 H21         8.9567    3.4596   23.0404 H         1 LIG501      0.3146
     53 H22         7.6269    4.6857   21.6091 H         1 LIG501      0.0663
     54 H23         6.2257    3.9989   22.4987 H         1 LIG501      0.0663
     55 H24         7.0011    5.5132   23.0754 H         1 LIG501      0.0663
@<TRIPOS>BOND
     1    1    2 2
     2    2    3 am
     3    2   16 1
     4    3    4 1
     5    3   14 1
     6    4    5 ar
     7    4   13 ar
     8    5    6 ar
     9    5   10 ar
    10    6    7 ar
    11    7    8 ar
    12    8    9 ar
    13    9   10 ar
    14   10   11 ar
    15   11   12 ar
    16   12   13 ar
    17   14   15 1
    18   15   16 1
    19   16   17 1
    20   16   25 1
    21   17   18 ar
    22   17   23 ar
    23   18   19 ar
    24   19   20 1
    25   19   21 ar
    26   21   22 ar
    27   22   23 ar
    28   23   24 1
    29   24   26 1
    30   25   26 1
    31   26   27 1
    32   27   28 1
    33   28   29 2
    34   28   30 am
    35   30   31 1
    36    6   32 1
    37    7   33 1
    38    8   34 1
    39    9   35 1
    40   11   36 1
    41   13   37 1
    42   14   38 1
    43   14   39 1
    44   15   40 1
    45   15   41 1
    46   18   42 1
    47   21   43 1
    48   22   44 1
    49   24   45 1
    50   24   46 1
    51   25   47 1
    52   25   48 1
    53   26   49 1
    54   27   50 1
    55   27   51 1
    56   30   52 1
    57   31   53 1
    58   31   54 1
    59   31   55 1
