HEI-REL-0c9-6
 OpenBabel03242009303D

 53 56  0  0  1  0  0  0  0  0999 V2000
   12.5520   -1.0303   22.1050 C   0  0  0  0  0  0  0  0  0  0  0  0
   11.6738    0.0235   22.3409 C   0  0  0  0  0  0  0  0  0  0  0  0
   12.4237   -2.2184   22.8236 C   0  0  0  0  0  0  0  0  0  0  0  0
   10.6679   -0.1091   23.2973 C   0  0  0  0  0  0  0  0  0  0  0  0
    6.0638   -1.8842   20.5954 C   0  0  0  0  0  0  0  0  0  0  0  0
    5.6414   -0.7149   19.9735 C   0  0  0  0  0  0  0  0  0  0  0  0
    6.4543    0.5551   21.8595 C   0  0  0  0  0  0  0  0  0  0  0  0
   11.4139   -2.3662   23.7866 C   0  0  0  0  0  0  0  0  0  0  0  0
   10.5315   -1.2986   24.0294 C   0  0  0  0  0  0  0  0  0  0  0  0
    6.6955   -1.8368   21.8497 C   0  0  0  0  0  0  0  0  0  0  0  0
    6.8884   -0.6103   22.5230 C   0  0  0  0  0  0  0  0  0  0  0  0
    5.8412    0.5057   20.6036 C   0  0  0  0  0  0  0  0  0  0  0  0
    9.6320   -4.9320   25.9485 C   0  0  0  0  0  0  0  0  0  0  0  0
    7.1200   -3.1239   22.5015 C   0  0  0  0  0  0  0  0  0  0  0  0
   11.3121   -3.6694   24.5404 C   0  0  0  0  0  0  0  0  0  0  0  0
    8.3542   -2.8707   23.3479 C   0  0  0  0  0  0  0  0  0  0  0  0
    9.8050   -2.4731   26.1171 C   0  0  0  0  0  0  0  0  0  0  0  0
    9.4303   -1.4293   25.0590 C   0  0  2  0  0  0  0  0  0  0  0  0
    8.0978   -1.7695   24.3856 C   0  0  1  0  0  0  0  0  0  0  0  0
    9.0657   -4.9193   27.3473 C   0  0  0  0  0  0  0  0  0  0  0  0
    7.2404    0.5931   24.6379 C   0  0  0  0  0  0  0  0  0  0  0  0
    7.4846   -0.5686   23.7863 N   0  0  0  0  0  0  0  0  0  0  0  0
   10.2030   -3.7381   25.5005 N   0  0  0  0  0  0  0  0  0  0  0  0
    3.7332    2.1255   20.4096 N   0  0  0  0  0  0  0  0  0  0  0  0
    9.5749   -5.9679   25.2817 O   0  0  0  0  0  0  0  0  0  0  0  0
    6.1272    3.0801   20.3538 O   0  0  0  0  0  0  0  0  0  0  0  0
    5.2832    1.7523   18.3860 O   0  0  0  0  0  0  0  0  0  0  0  0
    5.3315    1.9824   19.8230 S   0  0  0  0  0  0  0  0  0  0  0  0
   13.3367   -0.9278   21.3611 H   0  0  0  0  0  0  0  0  0  0  0  0
   11.7718    0.9487   21.7808 H   0  0  0  0  0  0  0  0  0  0  0  0
   13.1162   -3.0337   22.6282 H   0  0  0  0  0  0  0  0  0  0  0  0
    9.9889    0.7221   23.4707 H   0  0  0  0  0  0  0  0  0  0  0  0
    5.8967   -2.8372   20.1011 H   0  0  0  0  0  0  0  0  0  0  0  0
    5.1597   -0.7680   19.0012 H   0  0  0  0  0  0  0  0  0  0  0  0
    6.5950    1.5332   22.3136 H   0  0  0  0  0  0  0  0  0  0  0  0
    6.3255   -3.5048   23.1407 H   0  0  0  0  0  0  0  0  0  0  0  0
    7.3288   -3.8612   21.7289 H   0  0  0  0  0  0  0  0  0  0  0  0
   11.2178   -4.4844   23.8166 H   0  0  0  0  0  0  0  0  0  0  0  0
   12.2320   -3.8240   25.1171 H   0  0  0  0  0  0  0  0  0  0  0  0
    8.6347   -3.7899   23.8741 H   0  0  0  0  0  0  0  0  0  0  0  0
    9.1983   -2.6028   22.7066 H   0  0  0  0  0  0  0  0  0  0  0  0
   10.6635   -2.1277   26.7079 H   0  0  0  0  0  0  0  0  0  0  0  0
    8.9763   -2.6209   26.8179 H   0  0  0  0  0  0  0  0  0  0  0  0
    9.3211   -0.4672   25.5772 H   0  0  0  0  0  0  0  0  0  0  0  0
    7.4493   -2.1951   25.1439 H   0  0  0  0  0  0  0  0  0  0  0  0
    8.0239   -4.6206   27.3044 H   0  0  0  0  0  0  0  0  0  0  0  0
    9.6294   -4.2161   27.9513 H   0  0  0  0  0  0  0  0  0  0  0  0
    9.1503   -5.9138   27.7724 H   0  0  0  0  0  0  0  0  0  0  0  0
    7.7777    0.4700   25.5898 H   0  0  0  0  0  0  0  0  0  0  0  0
    7.5975    1.5013   24.1302 H   0  0  0  0  0  0  0  0  0  0  0  0
    6.1619    0.6831   24.8347 H   0  0  0  0  0  0  0  0  0  0  0  0
    3.5367    2.8627   21.0976 H   0  0  0  0  0  0  0  0  0  0  0  0
    2.9618    1.9537   19.7533 H   0  0  0  0  0  0  0  0  0  0  0  0
  1  2  1  0  0  0  0
  1  3  2  0  0  0  0
  1 29  1  0  0  0  0
  2  4  2  0  0  0  0
  2 30  1  0  0  0  0
  3  8  1  0  0  0  0
  3 31  1  0  0  0  0
  4  9  1  0  0  0  0
  4 32  1  0  0  0  0
  5  6  2  0  0  0  0
  5 10  1  0  0  0  0
  5 33  1  0  0  0  0
  6 12  1  0  0  0  0
  6 34  1  0  0  0  0
  7 11  1  0  0  0  0
  7 12  2  0  0  0  0
  7 35  1  0  0  0  0
  8  9  2  0  0  0  0
  8 15  1  0  0  0  0
  9 18  1  0  0  0  0
 10 11  2  0  0  0  0
 10 14  1  0  0  0  0
 11 22  1  0  0  0  0
 12 28  1  0  0  0  0
 13 20  1  0  0  0  0
 13 23  1  0  0  0  0
 13 25  2  0  0  0  0
 14 16  1  0  0  0  0
 14 36  1  0  0  0  0
 14 37  1  0  0  0  0
 15 23  1  0  0  0  0
 15 38  1  0  0  0  0
 15 39  1  0  0  0  0
 16 19  1  0  0  0  0
 16 40  1  0  0  0  0
 16 41  1  0  0  0  0
 17 18  1  0  0  0  0
 17 23  1  0  0  0  0
 17 42  1  0  0  0  0
 17 43  1  0  0  0  0
 18 19  1  0  0  0  0
 18 44  1  1  0  0  0
 19 22  1  0  0  0  0
 19 45  1  1  0  0  0
 20 46  1  0  0  0  0
 20 47  1  0  0  0  0
 20 48  1  0  0  0  0
 21 22  1  0  0  0  0
 21 49  1  0  0  0  0
 21 50  1  0  0  0  0
 21 51  1  0  0  0  0
 24 28  1  0  0  0  0
 24 52  1  0  0  0  0
 24 53  1  0  0  0  0
 26 28  2  0  0  0  0
 27 28  2  0  0  0  0
M  END
>  <Chemgauss4 Score>
-5.19905757904053

>  <Number of Confs>
17

$$$$
