JOH-MEM-5e3-3
 OpenBabel03242009303D

 53 55  0  0  1  0  0  0  0  0999 V2000
    7.3377   -1.9440   23.2141 C   0  0  0  0  0  0  0  0  0  0  0  0
    6.9020   -1.2440   22.0854 C   0  0  0  0  0  0  0  0  0  0  0  0
    9.1788   -1.0281   21.2690 C   0  0  0  0  0  0  0  0  0  0  0  0
   10.7553   -2.8064   24.0462 C   0  0  0  0  0  0  0  0  0  0  0  0
    9.6416   -1.7316   22.3987 C   0  0  0  0  0  0  0  0  0  0  0  0
   10.9264   -2.1389   22.8553 C   0  0  0  0  0  0  0  0  0  0  0  0
    8.7123   -2.1725   23.3433 C   0  0  0  0  0  0  0  0  0  0  0  0
    7.8066   -0.7922   21.1266 C   0  0  0  0  0  0  0  0  0  0  0  0
    9.0684   -3.4150   28.5945 C   0  0  0  0  0  0  0  0  0  0  0  0
   11.9861    0.4828   24.5078 C   0  0  0  0  0  0  0  0  0  0  0  0
    9.4151   -4.5230   27.6431 C   0  0  1  0  0  0  0  0  0  0  0  0
    8.2982   -5.5639   27.4987 C   0  0  1  0  0  0  0  0  0  0  0  0
    7.2122   -5.1743   26.4877 C   0  0  2  0  0  0  0  0  0  0  0  0
    7.8054   -4.5672   25.2132 C   0  0  1  0  0  0  0  0  0  0  0  0
    8.8137   -3.4632   25.5680 C   0  0  2  0  0  0  0  0  0  0  0  0
   12.4337    0.7699   25.9026 C   0  0  0  0  0  0  0  0  0  0  0  0
    8.3257    0.3228   19.0912 C   0  0  0  0  0  0  0  0  0  0  0  0
   12.2176   -1.8928   22.1819 C   0  0  0  0  0  0  0  0  0  0  0  0
   12.7376   -0.4513   22.3295 C   0  0  0  0  0  0  0  0  0  0  0  0
    9.4165   -2.8217   24.3321 N   0  0  0  0  0  0  0  0  0  0  0  0
   12.9578   -0.0925   23.7049 N   0  0  0  0  0  0  0  0  0  0  0  0
    9.0705   -2.2250   28.3167 O   0  0  0  0  0  0  0  0  0  0  0  0
   10.8402    0.7585   24.1722 O   0  0  0  0  0  0  0  0  0  0  0  0
    9.8523   -3.9811   26.4043 O   0  0  0  0  0  0  0  0  0  0  0  0
    8.7522   -3.9133   29.8148 O   0  0  0  0  0  0  0  0  0  0  0  0
    8.8830   -6.7944   27.0631 O   0  0  0  0  0  0  0  0  0  0  0  0
    6.3278   -4.2194   27.0682 O   0  0  0  0  0  0  0  0  0  0  0  0
    8.4587   -5.5919   24.4655 O   0  0  0  0  0  0  0  0  0  0  0  0
    7.3510   -0.1132   20.0362 O   0  0  0  0  0  0  0  0  0  0  0  0
    6.6289   -2.2933   23.9576 H   0  0  0  0  0  0  0  0  0  0  0  0
    5.8384   -1.0545   21.9598 H   0  0  0  0  0  0  0  0  0  0  0  0
    9.8761   -0.6714   20.5157 H   0  0  0  0  0  0  0  0  0  0  0  0
   11.4724   -3.2670   24.7130 H   0  0  0  0  0  0  0  0  0  0  0  0
   10.3288   -5.0536   28.1410 H   0  0  0  0  0  0  0  0  0  0  0  0
    7.8302   -5.7723   28.4765 H   0  0  0  0  0  0  0  0  0  0  0  0
    6.5841   -6.0512   26.2361 H   0  0  0  0  0  0  0  0  0  0  0  0
    7.0121   -4.1602   24.6154 H   0  0  0  0  0  0  0  0  0  0  0  0
    8.3183   -2.6268   26.0647 H   0  0  0  0  0  0  0  0  0  0  0  0
   12.8687    1.7769   26.0058 H   0  0  0  0  0  0  0  0  0  0  0  0
   11.6033    0.7360   26.6261 H   0  0  0  0  0  0  0  0  0  0  0  0
   13.1955    0.0826   26.3039 H   0  0  0  0  0  0  0  0  0  0  0  0
    7.8301    0.8499   18.2722 H   0  0  0  0  0  0  0  0  0  0  0  0
    8.8720   -0.5413   18.7048 H   0  0  0  0  0  0  0  0  0  0  0  0
    9.0241    1.0006   19.5878 H   0  0  0  0  0  0  0  0  0  0  0  0
   12.1297   -2.1126   21.0996 H   0  0  0  0  0  0  0  0  0  0  0  0
   13.0002   -2.5899   22.5437 H   0  0  0  0  0  0  0  0  0  0  0  0
   13.6944   -0.3245   21.8132 H   0  0  0  0  0  0  0  0  0  0  0  0
   12.0257    0.2674   21.9105 H   0  0  0  0  0  0  0  0  0  0  0  0
   13.8756   -0.2706   24.1096 H   0  0  0  0  0  0  0  0  0  0  0  0
    8.5241   -3.2036   30.4524 H   0  0  0  0  0  0  0  0  0  0  0  0
    9.5215   -7.0517   27.7455 H   0  0  0  0  0  0  0  0  0  0  0  0
    5.9368   -4.6460   27.8453 H   0  0  0  0  0  0  0  0  0  0  0  0
    7.7822   -6.2539   24.2533 H   0  0  0  0  0  0  0  0  0  0  0  0
  1  2  2  0  0  0  0
  1  7  1  0  0  0  0
  1 30  1  0  0  0  0
  2  8  1  0  0  0  0
  2 31  1  0  0  0  0
  3  5  1  0  0  0  0
  3  8  2  0  0  0  0
  3 32  1  0  0  0  0
  4  6  2  0  0  0  0
  4 20  1  0  0  0  0
  4 33  1  0  0  0  0
  5  6  1  0  0  0  0
  5  7  2  0  0  0  0
  6 18  1  0  0  0  0
  7 20  1  0  0  0  0
  8 29  1  0  0  0  0
  9 11  1  0  0  0  0
  9 22  2  0  0  0  0
  9 25  1  0  0  0  0
 10 16  1  0  0  0  0
 10 21  1  0  0  0  0
 10 23  2  0  0  0  0
 11 12  1  0  0  0  0
 11 24  1  0  0  0  0
 11 34  1  1  0  0  0
 12 13  1  0  0  0  0
 12 26  1  0  0  0  0
 12 35  1  1  0  0  0
 13 14  1  0  0  0  0
 13 27  1  0  0  0  0
 13 36  1  6  0  0  0
 14 15  1  0  0  0  0
 14 28  1  0  0  0  0
 14 37  1  6  0  0  0
 15 20  1  0  0  0  0
 15 24  1  0  0  0  0
 15 38  1  1  0  0  0
 16 39  1  0  0  0  0
 16 40  1  0  0  0  0
 16 41  1  0  0  0  0
 17 29  1  0  0  0  0
 17 42  1  0  0  0  0
 17 43  1  0  0  0  0
 17 44  1  0  0  0  0
 18 19  1  0  0  0  0
 18 45  1  0  0  0  0
 18 46  1  0  0  0  0
 19 21  1  0  0  0  0
 19 47  1  0  0  0  0
 19 48  1  0  0  0  0
 21 49  1  0  0  0  0
 25 50  1  0  0  0  0
 26 51  1  0  0  0  0
 27 52  1  0  0  0  0
 28 53  1  0  0  0  0
M  END
>  <Chemgauss4 Score>
-5.03456687927246

>  <Number of Confs>
200

$$$$
