AGN-NEW-891-7
 OpenBabel03242009303D

 38 40  0  0  0  0  0  0  0  0999 V2000
   12.0484   -2.3165   23.2030 C   0  0  0  0  0  0  0  0  0  0  0  0
    5.0859   -0.2600   19.4528 C   0  0  0  0  0  0  0  0  0  0  0  0
   11.1686   -3.0068   24.0366 C   0  0  0  0  0  0  0  0  0  0  0  0
    9.5878   -4.0818   26.2234 C   0  0  0  0  0  0  0  0  0  0  0  0
    5.9217   -0.0101   20.5355 C   0  0  0  0  0  0  0  0  0  0  0  0
    8.7129   -4.7747   27.0601 C   0  0  0  0  0  0  0  0  0  0  0  0
   11.7698   -1.0014   22.8309 C   0  0  0  0  0  0  0  0  0  0  0  0
    9.7312   -1.0669   24.1259 C   0  0  0  0  0  0  0  0  0  0  0  0
    6.8594   -3.5016   26.1763 C   0  0  0  0  0  0  0  0  0  0  0  0
    5.6654   -0.3781   18.1998 C   0  0  0  0  0  0  0  0  0  0  0  0
    7.7730   -0.0228   19.0426 C   0  0  0  0  0  0  0  0  0  0  0  0
   10.0100   -2.3820   24.4980 C   0  0  0  0  0  0  0  0  0  0  0  0
    9.0985   -3.0987   25.3633 C   0  0  0  0  0  0  0  0  0  0  0  0
    7.2922    0.1122   20.3350 C   0  0  0  0  0  0  0  0  0  0  0  0
    7.3488   -4.4847   27.0365 C   0  0  0  0  0  0  0  0  0  0  0  0
    7.7344   -2.8086   25.3397 C   0  0  0  0  0  0  0  0  0  0  0  0
   10.6112   -0.3766   23.2923 C   0  0  0  0  0  0  0  0  0  0  0  0
    8.2041    0.3773   21.4613 C   0  0  0  0  0  0  0  0  0  0  0  0
    9.3474    1.0679   21.3714 C   0  0  0  0  0  0  0  0  0  0  0  0
    6.9922   -0.2655   17.9660 N   0  0  0  0  0  0  0  0  0  0  0  0
    9.3987    1.8643   23.8397 O   0  0  0  0  0  0  0  0  0  0  0  0
   11.5304    1.9185   22.5084 O   0  0  0  0  0  0  0  0  0  0  0  0
    6.5089   -5.1513   27.8391 F   0  0  0  0  0  0  0  0  0  0  0  0
    7.2485   -1.8657   24.5189 F   0  0  0  0  0  0  0  0  0  0  0  0
   10.2643    1.2705   22.8279 S   0  0  0  0  0  0  0  0  0  0  0  0
   12.9508   -2.8028   22.8439 H   0  0  0  0  0  0  0  0  0  0  0  0
    4.0147   -0.3593   19.5855 H   0  0  0  0  0  0  0  0  0  0  0  0
   11.3997   -4.0316   24.3174 H   0  0  0  0  0  0  0  0  0  0  0  0
   10.6487   -4.3189   26.2542 H   0  0  0  0  0  0  0  0  0  0  0  0
    5.4911    0.0869   21.5290 H   0  0  0  0  0  0  0  0  0  0  0  0
    9.0935   -5.5392   27.7310 H   0  0  0  0  0  0  0  0  0  0  0  0
   12.4617   -0.4727   22.1811 H   0  0  0  0  0  0  0  0  0  0  0  0
    8.8287   -0.5749   24.4825 H   0  0  0  0  0  0  0  0  0  0  0  0
    5.7975   -3.2761   26.1579 H   0  0  0  0  0  0  0  0  0  0  0  0
    5.0563   -0.5720   17.3232 H   0  0  0  0  0  0  0  0  0  0  0  0
    8.8327    0.0617   18.8191 H   0  0  0  0  0  0  0  0  0  0  0  0
    7.8845   -0.0173   22.4238 H   0  0  0  0  0  0  0  0  0  0  0  0
    9.7191    1.5074   20.4548 H   0  0  0  0  0  0  0  0  0  0  0  0
  1  3  1  0  0  0  0
  1  7  2  0  0  0  0
  1 26  1  0  0  0  0
  2  5  2  0  0  0  0
  2 10  1  0  0  0  0
  2 27  1  0  0  0  0
  3 12  2  0  0  0  0
  3 28  1  0  0  0  0
  4  6  2  0  0  0  0
  4 13  1  0  0  0  0
  4 29  1  0  0  0  0
  5 14  1  0  0  0  0
  5 30  1  0  0  0  0
  6 15  1  0  0  0  0
  6 31  1  0  0  0  0
  7 17  1  0  0  0  0
  7 32  1  0  0  0  0
  8 12  1  0  0  0  0
  8 17  2  0  0  0  0
  8 33  1  0  0  0  0
  9 15  2  0  0  0  0
  9 16  1  0  0  0  0
  9 34  1  0  0  0  0
 10 20  2  0  0  0  0
 10 35  1  0  0  0  0
 11 14  2  0  0  0  0
 11 20  1  0  0  0  0
 11 36  1  0  0  0  0
 12 13  1  0  0  0  0
 13 16  2  0  0  0  0
 14 18  1  0  0  0  0
 15 23  1  0  0  0  0
 16 24  1  0  0  0  0
 17 25  1  0  0  0  0
 18 19  2  0  0  0  0
 18 37  1  0  0  0  0
 19 25  1  0  0  0  0
 19 38  1  0  0  0  0
 21 25  2  0  0  0  0
 22 25  2  0  0  0  0
M  END
>  <Chemgauss4 Score>
-7.39884519577026

>  <Number of Confs>
200

$$$$
