DAR-DIA-fc9-8
 OpenBabel03242009303D

 33 35  0  0  1  0  0  0  0  0999 V2000
   13.1003   -0.1816   22.5782 C   0  0  0  0  0  0  0  0  0  0  0  0
   12.1603    0.5398   23.3142 C   0  0  0  0  0  0  0  0  0  0  0  0
   12.8050   -1.4749   22.1469 C   0  0  0  0  0  0  0  0  0  0  0  0
    8.2271   -4.6422   28.5712 C   0  0  0  0  0  0  0  0  0  0  0  0
   10.9251   -0.0321   23.6190 C   0  0  0  0  0  0  0  0  0  0  0  0
   11.5698   -2.0468   22.4517 C   0  0  0  0  0  0  0  0  0  0  0  0
    8.4063   -3.9205   27.3963 C   0  0  0  0  0  0  0  0  0  0  0  0
    7.9880   -6.0030   28.4664 C   0  0  0  0  0  0  0  0  0  0  0  0
    8.0977   -5.9363   26.1725 C   0  0  0  0  0  0  0  0  0  0  0  0
   10.6298   -1.3254   23.1878 C   0  0  0  0  0  0  0  0  0  0  0  0
    8.3418   -4.5724   26.1699 C   0  0  0  0  0  0  0  0  0  0  0  0
    9.3400   -2.7069   24.8579 C   0  0  0  0  0  0  0  0  0  0  0  0
    7.9771   -4.4430   23.7059 C   0  0  0  0  0  0  0  0  0  0  0  0
    7.6918   -3.4049   22.6427 C   0  0  0  0  0  0  0  0  0  0  0  0
    9.2880   -1.9475   23.5188 C   0  0  2  0  0  0  0  0  0  0  0  0
    7.9184   -6.6710   27.2931 N   0  0  0  0  0  0  0  0  0  0  0  0
    8.5234   -3.8503   24.9325 N   0  0  0  0  0  0  0  0  0  0  0  0
   10.0463   -2.2736   25.7714 O   0  0  0  0  0  0  0  0  0  0  0  0
    8.8908   -2.6952   22.3866 O   0  0  0  0  0  0  0  0  0  0  0  0
   14.0615    0.2643   22.3398 H   0  0  0  0  0  0  0  0  0  0  0  0
   12.3896    1.5472   23.6492 H   0  0  0  0  0  0  0  0  0  0  0  0
   13.5361   -2.0364   21.5730 H   0  0  0  0  0  0  0  0  0  0  0  0
    8.2732   -4.1548   29.5384 H   0  0  0  0  0  0  0  0  0  0  0  0
   10.1989    0.5374   24.1931 H   0  0  0  0  0  0  0  0  0  0  0  0
   11.3486   -3.0550   22.1117 H   0  0  0  0  0  0  0  0  0  0  0  0
    8.5954   -2.8515   27.4479 H   0  0  0  0  0  0  0  0  0  0  0  0
    7.8406   -6.6104   29.3533 H   0  0  0  0  0  0  0  0  0  0  0  0
    8.0363   -6.5006   25.2467 H   0  0  0  0  0  0  0  0  0  0  0  0
    7.0633   -4.9960   23.9502 H   0  0  0  0  0  0  0  0  0  0  0  0
    8.7327   -5.1496   23.3411 H   0  0  0  0  0  0  0  0  0  0  0  0
    7.3817   -3.8944   21.7142 H   0  0  0  0  0  0  0  0  0  0  0  0
    6.8924   -2.7162   22.9411 H   0  0  0  0  0  0  0  0  0  0  0  0
    8.5719   -1.1158   23.6520 H   0  0  0  0  0  0  0  0  0  0  0  0
  1  2  1  0  0  0  0
  1  3  2  0  0  0  0
  1 20  1  0  0  0  0
  2  5  2  0  0  0  0
  2 21  1  0  0  0  0
  3  6  1  0  0  0  0
  3 22  1  0  0  0  0
  4  7  2  0  0  0  0
  4  8  1  0  0  0  0
  4 23  1  0  0  0  0
  5 10  1  0  0  0  0
  5 24  1  0  0  0  0
  6 10  2  0  0  0  0
  6 25  1  0  0  0  0
  7 11  1  0  0  0  0
  7 26  1  0  0  0  0
  8 16  2  0  0  0  0
  8 27  1  0  0  0  0
  9 11  2  0  0  0  0
  9 16  1  0  0  0  0
  9 28  1  0  0  0  0
 10 15  1  0  0  0  0
 11 17  1  0  0  0  0
 12 15  1  0  0  0  0
 12 17  1  0  0  0  0
 12 18  2  0  0  0  0
 13 14  1  0  0  0  0
 13 17  1  0  0  0  0
 13 29  1  0  0  0  0
 13 30  1  0  0  0  0
 14 19  1  0  0  0  0
 14 31  1  0  0  0  0
 14 32  1  0  0  0  0
 15 19  1  0  0  0  0
 15 33  1  1  0  0  0
M  END
>  <Chemgauss4 Score>
-5.58173084259033

>  <Number of Confs>
14

$$$$
