SAL-INS-1c7-11
 OpenBabel03242009303D

 41 43  0  0  1  0  0  0  0  0999 V2000
    5.7751   -2.6072   24.4117 C   0  0  0  0  0  0  0  0  0  0  0  0
    6.7098   -1.8348   25.1011 C   0  0  0  0  0  0  0  0  0  0  0  0
    6.1728   -3.3643   23.3097 C   0  0  0  0  0  0  0  0  0  0  0  0
    8.0422   -1.8195   24.6886 C   0  0  0  0  0  0  0  0  0  0  0  0
    7.5051   -3.3489   22.8971 C   0  0  0  0  0  0  0  0  0  0  0  0
    9.1087   -5.4205   25.1455 C   0  0  0  0  0  0  0  0  0  0  0  0
    8.1261   -5.7253   26.1312 C   0  0  0  0  0  0  0  0  0  0  0  0
    8.4399   -2.5765   23.5865 C   0  0  0  0  0  0  0  0  0  0  0  0
    9.9657   -4.4247   25.5597 C   0  0  0  0  0  0  0  0  0  0  0  0
    8.2696   -4.9509   27.2616 C   0  0  0  0  0  0  0  0  0  0  0  0
    9.9725    1.0293   22.3482 C   0  0  0  0  0  0  0  0  0  0  0  0
   11.6704   -0.2887   23.6668 C   0  0  0  0  0  0  0  0  0  0  0  0
   12.0279   -1.7353   24.0094 C   0  0  0  0  0  0  0  0  0  0  0  0
   10.1198   -1.4294   22.1024 C   0  0  0  0  0  0  0  0  0  0  0  0
    9.8952   -2.5600   23.1351 C   0  0  1  0  0  0  0  0  0  0  0  0
   11.1252   -3.8221   24.8204 C   0  0  0  0  0  0  0  0  0  0  0  0
    8.8388    0.9381   21.3560 C   0  0  0  0  0  0  0  0  0  0  0  0
   10.5549   -0.1818   22.7244 N   0  0  0  0  0  0  0  0  0  0  0  0
   10.8099   -2.4934   24.2978 N   0  0  0  0  0  0  0  0  0  0  0  0
   10.3310    2.1328   22.7652 O   0  0  0  0  0  0  0  0  0  0  0  0
    9.5845   -3.8617   27.1314 S   0  0  0  0  0  0  0  0  0  0  0  0
    8.2713    2.5822   21.0871 Cl  0  0  0  0  0  0  0  0  0  0  0  0
    7.1504   -5.0650   28.7919 Br  0  0  0  0  0  0  0  0  0  0  0  0
    4.7380   -2.6201   24.7339 H   0  0  0  0  0  0  0  0  0  0  0  0
    6.4006   -1.2461   25.9599 H   0  0  0  0  0  0  0  0  0  0  0  0
    5.4455   -3.9666   22.7733 H   0  0  0  0  0  0  0  0  0  0  0  0
    8.7635   -1.2145   25.2317 H   0  0  0  0  0  0  0  0  0  0  0  0
    7.8058   -3.9418   22.0373 H   0  0  0  0  0  0  0  0  0  0  0  0
    9.1798   -5.9094   24.1822 H   0  0  0  0  0  0  0  0  0  0  0  0
    7.3565   -6.4771   26.0075 H   0  0  0  0  0  0  0  0  0  0  0  0
   11.3777    0.2634   24.5785 H   0  0  0  0  0  0  0  0  0  0  0  0
   12.5621    0.2266   23.2698 H   0  0  0  0  0  0  0  0  0  0  0  0
   12.5802   -2.1750   23.1790 H   0  0  0  0  0  0  0  0  0  0  0  0
   12.6757   -1.7221   24.8845 H   0  0  0  0  0  0  0  0  0  0  0  0
   10.8324   -1.7688   21.3396 H   0  0  0  0  0  0  0  0  0  0  0  0
    9.1848   -1.2011   21.5644 H   0  0  0  0  0  0  0  0  0  0  0  0
   10.0605   -3.5434   22.6144 H   0  0  0  0  0  0  0  0  0  0  0  0
   11.9958   -3.7279   25.4785 H   0  0  0  0  0  0  0  0  0  0  0  0
   11.4227   -4.4521   23.9756 H   0  0  0  0  0  0  0  0  0  0  0  0
    8.0454    0.3356   21.7834 H   0  0  0  0  0  0  0  0  0  0  0  0
    9.2151    0.5179   20.4304 H   0  0  0  0  0  0  0  0  0  0  0  0
  1  2  1  0  0  0  0
  1  3  2  0  0  0  0
  1 24  1  0  0  0  0
  2  4  2  0  0  0  0
  2 25  1  0  0  0  0
  3  5  1  0  0  0  0
  3 26  1  0  0  0  0
  4  8  1  0  0  0  0
  4 27  1  0  0  0  0
  5  8  2  0  0  0  0
  5 28  1  0  0  0  0
  6  7  1  0  0  0  0
  6  9  2  0  0  0  0
  6 29  1  0  0  0  0
  7 10  2  0  0  0  0
  7 30  1  0  0  0  0
  8 15  1  0  0  0  0
  9 16  1  0  0  0  0
  9 21  1  0  0  0  0
 10 21  1  0  0  0  0
 10 23  1  0  0  0  0
 11 17  1  0  0  0  0
 11 18  1  0  0  0  0
 11 20  2  0  0  0  0
 12 13  1  0  0  0  0
 12 18  1  0  0  0  0
 12 31  1  0  0  0  0
 12 32  1  0  0  0  0
 13 19  1  0  0  0  0
 13 33  1  0  0  0  0
 13 34  1  0  0  0  0
 14 15  1  0  0  0  0
 14 18  1  0  0  0  0
 14 35  1  0  0  0  0
 14 36  1  0  0  0  0
 15 19  1  0  0  0  0
 15 37  1  6  0  0  0
 16 19  1  0  0  0  0
 16 38  1  0  0  0  0
 16 39  1  0  0  0  0
 17 22  1  0  0  0  0
 17 40  1  0  0  0  0
 17 41  1  0  0  0  0
M  END
>  <Chemgauss4 Score>
-5.11409854888916

>  <Number of Confs>
90

$$$$
