SAL-INS-316-2
 OpenBabel03242009303D

 40 43  0  0  0  0  0  0  0  0999 V2000
    7.0915    0.5109   18.9967 C   0  0  0  0  0  0  0  0  0  0  0  0
    9.1157   -2.8696   23.2570 C   0  0  0  0  0  0  0  0  0  0  0  0
    6.8163    1.1329   17.7959 C   0  0  0  0  0  0  0  0  0  0  0  0
    4.9696   -4.9446   26.8997 C   0  0  0  0  0  0  0  0  0  0  0  0
    5.4408   -5.9999   26.1547 C   0  0  0  0  0  0  0  0  0  0  0  0
   10.4385   -5.0341   25.8579 C   0  0  0  0  0  0  0  0  0  0  0  0
    5.3264    2.5248   18.8008 C   0  0  0  0  0  0  0  0  0  0  0  0
    9.5504   -4.2215   26.5283 C   0  0  0  0  0  0  0  0  0  0  0  0
    9.5752   -3.6682   24.3366 C   0  0  0  0  0  0  0  0  0  0  0  0
    9.0075   -3.3540   25.5373 C   0  0  0  0  0  0  0  0  0  0  0  0
    6.4005    0.9915   20.0901 C   0  0  0  0  0  0  0  0  0  0  0  0
    8.1878   -1.9577   23.7130 C   0  0  0  0  0  0  0  0  0  0  0  0
    6.9254   -5.3369   27.6423 C   0  0  0  0  0  0  0  0  0  0  0  0
    7.5291   -0.6733   21.6308 C   0  0  0  0  0  0  0  0  0  0  0  0
    9.1813   -4.1860   27.9465 C   0  0  0  0  0  0  0  0  0  0  0  0
    8.2289   -5.3235   28.4029 C   0  0  0  0  0  0  0  0  0  0  0  0
    5.9363    2.1467   17.6613 N   0  0  0  0  0  0  0  0  0  0  0  0
    5.8987   -4.5364   27.8237 N   0  0  0  0  0  0  0  0  0  0  0  0
    5.5074    2.0010   20.0282 N   0  0  0  0  0  0  0  0  0  0  0  0
   10.4572   -4.7027   24.5296 N   0  0  0  0  0  0  0  0  0  0  0  0
    6.6948   -6.2396   26.6416 N   0  0  0  0  0  0  0  0  0  0  0  0
    6.6496    0.3826   21.3428 N   0  0  0  0  0  0  0  0  0  0  0  0
    7.4914   -1.0000   23.0251 N   0  0  0  0  0  0  0  0  0  0  0  0
    8.2395   -1.2482   20.8123 O   0  0  0  0  0  0  0  0  0  0  0  0
    7.8714   -2.0529   25.4027 S   0  0  0  0  0  0  0  0  0  0  0  0
    7.8062   -0.3001   19.0614 H   0  0  0  0  0  0  0  0  0  0  0  0
    9.4386   -2.9564   22.2274 H   0  0  0  0  0  0  0  0  0  0  0  0
    7.3102    0.8235   16.8810 H   0  0  0  0  0  0  0  0  0  0  0  0
    4.0094   -4.4572   26.8166 H   0  0  0  0  0  0  0  0  0  0  0  0
    5.0144   -6.5827   25.3513 H   0  0  0  0  0  0  0  0  0  0  0  0
   11.0700   -5.8339   26.2189 H   0  0  0  0  0  0  0  0  0  0  0  0
    4.6147    3.3374   18.7218 H   0  0  0  0  0  0  0  0  0  0  0  0
   10.0904   -4.2472   28.5843 H   0  0  0  0  0  0  0  0  0  0  0  0
    8.7252   -3.2120   28.2334 H   0  0  0  0  0  0  0  0  0  0  0  0
    8.0012   -5.2270   29.4726 H   0  0  0  0  0  0  0  0  0  0  0  0
    8.7333   -6.2922   28.2946 H   0  0  0  0  0  0  0  0  0  0  0  0
   11.0096   -5.1236   23.7930 H   0  0  0  0  0  0  0  0  0  0  0  0
    7.3332   -6.9559   26.3214 H   0  0  0  0  0  0  0  0  0  0  0  0
    6.1275    0.7557   22.1316 H   0  0  0  0  0  0  0  0  0  0  0  0
    6.8300   -0.4053   23.5589 H   0  0  0  0  0  0  0  0  0  0  0  0
  1  3  2  0  0  0  0
  1 11  1  0  0  0  0
  1 26  1  0  0  0  0
  2  9  1  0  0  0  0
  2 12  2  0  0  0  0
  2 27  1  0  0  0  0
  3 17  1  0  0  0  0
  3 28  1  0  0  0  0
  4  5  2  0  0  0  0
  4 18  1  0  0  0  0
  4 29  1  0  0  0  0
  5 21  1  0  0  0  0
  5 30  1  0  0  0  0
  6  8  2  0  0  0  0
  6 20  1  0  0  0  0
  6 31  1  0  0  0  0
  7 17  2  0  0  0  0
  7 19  1  0  0  0  0
  7 32  1  0  0  0  0
  8 10  1  0  0  0  0
  8 15  1  0  0  0  0
  9 10  2  0  0  0  0
  9 20  1  0  0  0  0
 10 25  1  0  0  0  0
 11 19  2  0  0  0  0
 11 22  1  0  0  0  0
 12 23  1  0  0  0  0
 12 25  1  0  0  0  0
 13 16  1  0  0  0  0
 13 18  2  0  0  0  0
 13 21  1  0  0  0  0
 14 22  1  0  0  0  0
 14 23  1  0  0  0  0
 14 24  2  0  0  0  0
 15 16  1  0  0  0  0
 15 33  1  0  0  0  0
 15 34  1  0  0  0  0
 16 35  1  0  0  0  0
 16 36  1  0  0  0  0
 20 37  1  0  0  0  0
 21 38  1  0  0  0  0
 22 39  1  0  0  0  0
 23 40  1  0  0  0  0
M  END
>  <Chemgauss4 Score>
-5.40658473968506

>  <Number of Confs>
64

$$$$
