DAR-DIA-43a-11
 OpenBabel03242009303D

 40 42  0  0  1  0  0  0  0  0999 V2000
    6.4743   -5.4174   27.9429 C   0  0  0  0  0  0  0  0  0  0  0  0
    7.7971   -5.0464   27.7019 C   0  0  0  0  0  0  0  0  0  0  0  0
    5.4400   -4.8195   27.2228 C   0  0  0  0  0  0  0  0  0  0  0  0
    7.0515   -3.4795   26.0209 C   0  0  0  0  0  0  0  0  0  0  0  0
   12.7837   -0.1141   24.1455 C   0  0  0  0  0  0  0  0  0  0  0  0
   12.1563   -1.1181   22.2925 C   0  0  0  0  0  0  0  0  0  0  0  0
    8.0857   -4.0775   26.7410 C   0  0  0  0  0  0  0  0  0  0  0  0
   11.6737   -0.7013   23.5090 C   0  0  0  0  0  0  0  0  0  0  0  0
    5.7286   -3.8506   26.2619 C   0  0  0  0  0  0  0  0  0  0  0  0
    9.6599   -2.2345   26.0632 C   0  0  0  0  0  0  0  0  0  0  0  0
   10.0622   -2.1095   24.7922 C   0  0  0  0  0  0  0  0  0  0  0  0
    9.7120   -5.7527   24.9814 C   0  0  0  0  0  0  0  0  0  0  0  0
   10.2687   -3.4412   24.1405 C   0  0  0  0  0  0  0  0  0  0  0  0
    9.5235   -3.6739   26.4806 C   0  0  2  0  0  0  0  0  0  0  0  0
   10.2622   -4.4044   25.3337 C   0  0  1  0  0  0  0  0  0  0  0  0
   14.4076   -1.0011   21.1985 C   0  0  0  0  0  0  0  0  0  0  0  0
   10.2700   -0.8445   24.0420 C   0  0  0  0  0  0  0  0  0  0  0  0
   13.8882   -0.1527   23.3954 N   0  0  0  0  0  0  0  0  0  0  0  0
   13.4747   -0.7691   22.2751 N   0  0  0  0  0  0  0  0  0  0  0  0
   10.2541   -6.7816   25.7146 N   0  0  0  0  0  0  0  0  0  0  0  0
    8.8440   -5.8999   24.1246 O   0  0  0  0  0  0  0  0  0  0  0  0
    4.4521   -3.1124   25.3746 Cl  0  0  0  0  0  0  0  0  0  0  0  0
    6.2500   -6.1719   28.6914 H   0  0  0  0  0  0  0  0  0  0  0  0
    8.5967   -5.5175   28.2678 H   0  0  0  0  0  0  0  0  0  0  0  0
    4.4137   -5.1183   27.4214 H   0  0  0  0  0  0  0  0  0  0  0  0
    7.2817   -2.7249   25.2723 H   0  0  0  0  0  0  0  0  0  0  0  0
   12.8364    0.3400   25.1248 H   0  0  0  0  0  0  0  0  0  0  0  0
   11.6858   -1.6219   21.4590 H   0  0  0  0  0  0  0  0  0  0  0  0
    9.4949   -1.3971   26.7328 H   0  0  0  0  0  0  0  0  0  0  0  0
    9.4780   -3.6637   23.4171 H   0  0  0  0  0  0  0  0  0  0  0  0
   11.2355   -3.4568   23.6263 H   0  0  0  0  0  0  0  0  0  0  0  0
   10.0739   -3.8028   27.4254 H   0  0  0  0  0  0  0  0  0  0  0  0
   11.3316   -4.6006   25.6616 H   0  0  0  0  0  0  0  0  0  0  0  0
   14.3764   -0.1346   20.5327 H   0  0  0  0  0  0  0  0  0  0  0  0
   15.4126   -1.1315   21.6094 H   0  0  0  0  0  0  0  0  0  0  0  0
   14.1201   -1.9087   20.6605 H   0  0  0  0  0  0  0  0  0  0  0  0
   10.0416    0.0123   24.6909 H   0  0  0  0  0  0  0  0  0  0  0  0
    9.5508   -0.7867   23.2139 H   0  0  0  0  0  0  0  0  0  0  0  0
   10.9581   -6.5643   26.4123 H   0  0  0  0  0  0  0  0  0  0  0  0
    9.9784   -7.7498   25.5860 H   0  0  0  0  0  0  0  0  0  0  0  0
  1  2  2  0  0  0  0
  1  3  1  0  0  0  0
  1 23  1  0  0  0  0
  2  7  1  0  0  0  0
  2 24  1  0  0  0  0
  3  9  2  0  0  0  0
  3 25  1  0  0  0  0
  4  7  2  0  0  0  0
  4  9  1  0  0  0  0
  4 26  1  0  0  0  0
  5  8  1  0  0  0  0
  5 18  2  0  0  0  0
  5 27  1  0  0  0  0
  6  8  2  0  0  0  0
  6 19  1  0  0  0  0
  6 28  1  0  0  0  0
  7 14  1  0  0  0  0
  8 17  1  0  0  0  0
  9 22  1  0  0  0  0
 10 11  2  0  0  0  0
 10 14  1  0  0  0  0
 10 29  1  0  0  0  0
 11 13  1  0  0  0  0
 11 17  1  0  0  0  0
 12 15  1  0  0  0  0
 12 20  1  0  0  0  0
 12 21  2  0  0  0  0
 13 15  1  0  0  0  0
 13 30  1  0  0  0  0
 13 31  1  0  0  0  0
 14 15  1  0  0  0  0
 14 32  1  1  0  0  0
 15 33  1  1  0  0  0
 16 19  1  0  0  0  0
 16 34  1  0  0  0  0
 16 35  1  0  0  0  0
 16 36  1  0  0  0  0
 17 37  1  0  0  0  0
 17 38  1  0  0  0  0
 18 19  1  0  0  0  0
 20 39  1  0  0  0  0
 20 40  1  0  0  0  0
M  END
>  <Chemgauss4 Score>
-5.58957767486572

>  <Number of Confs>
200

$$$$
