DAV-AUT-7eb-4
 OpenBabel03242009303D

 37 39  0  0  1  0  0  0  0  0999 V2000
    9.7813   -4.9995   25.2804 C   0  0  0  0  0  0  0  0  0  0  0  0
    8.6269   -5.5817   25.8084 C   0  0  0  0  0  0  0  0  0  0  0  0
    8.5473   -3.0007   24.5981 C   0  0  0  0  0  0  0  0  0  0  0  0
    7.4150   -3.5881   25.1241 C   0  0  0  0  0  0  0  0  0  0  0  0
    9.7426   -3.7227   24.6824 C   0  0  0  0  0  0  0  0  0  0  0  0
    7.4666   -4.8468   25.7178 C   0  0  0  0  0  0  0  0  0  0  0  0
    6.0315   -3.0688   25.1728 C   0  0  0  0  0  0  0  0  0  0  0  0
   11.9267   -0.0950   24.0513 C   0  0  0  0  0  0  0  0  0  0  0  0
   12.6526   -0.8482   22.9504 C   0  0  0  0  0  0  0  0  0  0  0  0
   11.7723   -2.3208   25.1924 C   0  0  0  0  0  0  0  0  0  0  0  0
   11.7725   -1.8518   22.2133 C   0  0  0  0  0  0  0  0  0  0  0  0
   11.0184   -3.1256   24.1194 C   0  0  2  0  0  0  0  0  0  0  0  0
   10.8108   -0.2803   26.2561 C   0  0  0  0  0  0  0  0  0  0  0  0
    5.9882   -5.2932   28.0327 C   0  0  0  0  0  0  0  0  0  0  0  0
    5.1522   -4.0032   25.8021 N   0  0  0  0  0  0  0  0  0  0  0  0
   11.5067   -0.8813   25.1285 N   0  0  0  0  0  0  0  0  0  0  0  0
    5.7383   -1.9742   24.7160 O   0  0  0  0  0  0  0  0  0  0  0  0
   11.7513    1.1206   23.9583 O   0  0  0  0  0  0  0  0  0  0  0  0
    5.6275   -6.6644   25.8129 O   0  0  0  0  0  0  0  0  0  0  0  0
   10.6762   -2.3459   22.9717 O   0  0  0  0  0  0  0  0  0  0  0  0
    5.8698   -5.3106   26.2659 S   0  0  1  0  0  0  0  0  0  0  0  0
   10.7208   -5.5451   25.3329 H   0  0  0  0  0  0  0  0  0  0  0  0
    8.6535   -6.5635   26.2652 H   0  0  0  0  0  0  0  0  0  0  0  0
    8.5138   -2.0201   24.1364 H   0  0  0  0  0  0  0  0  0  0  0  0
   13.1195   -0.1247   22.2594 H   0  0  0  0  0  0  0  0  0  0  0  0
   13.4827   -1.3939   23.4342 H   0  0  0  0  0  0  0  0  0  0  0  0
   11.4969   -2.6694   26.2008 H   0  0  0  0  0  0  0  0  0  0  0  0
   12.8605   -2.4692   25.0941 H   0  0  0  0  0  0  0  0  0  0  0  0
   11.3297   -1.3466   21.3341 H   0  0  0  0  0  0  0  0  0  0  0  0
   12.3600   -2.7009   21.8058 H   0  0  0  0  0  0  0  0  0  0  0  0
   11.6429   -4.0071   23.7867 H   0  0  0  0  0  0  0  0  0  0  0  0
    9.7271   -0.2920   26.0673 H   0  0  0  0  0  0  0  0  0  0  0  0
   11.0299   -0.8527   27.1694 H   0  0  0  0  0  0  0  0  0  0  0  0
   11.1492    0.7585   26.3842 H   0  0  0  0  0  0  0  0  0  0  0  0
    5.0185   -5.5756   28.4456 H   0  0  0  0  0  0  0  0  0  0  0  0
    6.7550   -6.0087   28.3335 H   0  0  0  0  0  0  0  0  0  0  0  0
    6.2600   -4.2852   28.3496 H   0  0  0  0  0  0  0  0  0  0  0  0
  1  2  2  0  0  0  0
  1  5  1  0  0  0  0
  1 22  1  0  0  0  0
  2  6  1  0  0  0  0
  2 23  1  0  0  0  0
  3  4  1  0  0  0  0
  3  5  2  0  0  0  0
  3 24  1  0  0  0  0
  4  6  2  0  0  0  0
  4  7  1  0  0  0  0
  5 12  1  0  0  0  0
  6 21  1  0  0  0  0
  7 15  1  0  0  0  0
  7 17  2  0  0  0  0
  8  9  1  0  0  0  0
  8 16  1  0  0  0  0
  8 18  2  0  0  0  0
  9 11  1  0  0  0  0
  9 25  1  0  0  0  0
  9 26  1  0  0  0  0
 10 12  1  0  0  0  0
 10 16  1  0  0  0  0
 10 27  1  0  0  0  0
 10 28  1  0  0  0  0
 11 20  1  0  0  0  0
 11 29  1  0  0  0  0
 11 30  1  0  0  0  0
 12 20  1  0  0  0  0
 12 31  1  6  0  0  0
 13 16  1  0  0  0  0
 13 32  1  0  0  0  0
 13 33  1  0  0  0  0
 13 34  1  0  0  0  0
 14 21  1  0  0  0  0
 14 35  1  0  0  0  0
 14 36  1  0  0  0  0
 14 37  1  0  0  0  0
 15 21  2  0  0  0  0
 21 19  2  6  0  0  0
M  END
>  <Chemgauss4 Score>
-4.9032621383667

>  <Number of Confs>
8

$$$$
