JOH-MEM-5e3-5
 OpenBabel03242009303D

 48 51  0  0  1  0  0  0  0  0999 V2000
   10.9756   -1.8297   22.7047 C   0  0  0  0  0  0  0  0  0  0  0  0
   11.3181   -1.9288   24.0566 C   0  0  0  0  0  0  0  0  0  0  0  0
    9.3331   -0.6928   24.7183 C   0  0  0  0  0  0  0  0  0  0  0  0
    8.9645   -0.5777   23.3652 C   0  0  0  0  0  0  0  0  0  0  0  0
    7.8919    0.0094   22.6728 C   0  0  0  0  0  0  0  0  0  0  0  0
    9.7955   -1.1505   22.3800 C   0  0  0  0  0  0  0  0  0  0  0  0
   10.5122   -1.3708   25.0477 C   0  0  0  0  0  0  0  0  0  0  0  0
    8.0863   -0.2101   21.3425 C   0  0  0  0  0  0  0  0  0  0  0  0
    9.7143   -6.0006   25.7706 C   0  0  0  0  0  0  0  0  0  0  0  0
    7.0977    0.2134   19.1793 C   0  0  0  0  0  0  0  0  0  0  0  0
    6.6441    0.7745   22.9153 C   0  0  0  0  0  0  0  0  0  0  0  0
    6.0998    0.9848   21.4531 C   0  0  0  0  0  0  0  0  0  0  0  0
    9.7556   -4.8983   26.8069 C   0  0  2  0  0  0  0  0  0  0  0  0
    8.3509   -4.6528   27.3436 C   0  0  1  0  0  0  0  0  0  0  0  0
    8.3927   -3.4886   28.3352 C   0  0  1  0  0  0  0  0  0  0  0  0
    9.0572   -2.2601   27.7062 C   0  0  2  0  0  0  0  0  0  0  0  0
   10.3987   -2.6307   27.0631 C   0  0  1  0  0  0  0  0  0  0  0  0
    5.9166    0.8669   18.5064 C   0  0  0  0  0  0  0  0  0  0  0  0
    9.2243   -0.9055   21.1369 N   0  0  0  0  0  0  0  0  0  0  0  0
    7.0979    0.3193   20.5539 N   0  0  0  0  0  0  0  0  0  0  0  0
   10.0366   -5.8745   24.5986 O   0  0  0  0  0  0  0  0  0  0  0  0
    7.9589   -0.3529   18.5056 O   0  0  0  0  0  0  0  0  0  0  0  0
   10.2535   -3.7288   26.1618 O   0  0  0  0  0  0  0  0  0  0  0  0
    9.2659   -7.1564   26.3187 O   0  0  0  0  0  0  0  0  0  0  0  0
    7.4893   -4.3107   26.2535 O   0  0  0  0  0  0  0  0  0  0  0  0
    7.0625   -3.1801   28.7418 O   0  0  0  0  0  0  0  0  0  0  0  0
    9.3031   -1.2831   28.7174 O   0  0  0  0  0  0  0  0  0  0  0  0
   10.8761   -1.4862   26.3564 O   0  0  0  0  0  0  0  0  0  0  0  0
   11.6061   -2.2656   21.9368 H   0  0  0  0  0  0  0  0  0  0  0  0
   12.2310   -2.4521   24.3319 H   0  0  0  0  0  0  0  0  0  0  0  0
    8.7113   -0.2610   25.4978 H   0  0  0  0  0  0  0  0  0  0  0  0
    5.9319    0.2016   23.5163 H   0  0  0  0  0  0  0  0  0  0  0  0
    6.8494    1.7358   23.3953 H   0  0  0  0  0  0  0  0  0  0  0  0
    5.1211    0.5150   21.3115 H   0  0  0  0  0  0  0  0  0  0  0  0
    6.0337    2.0459   21.1919 H   0  0  0  0  0  0  0  0  0  0  0  0
   10.4338   -5.2185   27.5997 H   0  0  0  0  0  0  0  0  0  0  0  0
    7.9360   -5.5521   27.8107 H   0  0  0  0  0  0  0  0  0  0  0  0
    8.9404   -3.7913   29.2358 H   0  0  0  0  0  0  0  0  0  0  0  0
    8.3897   -1.7966   26.9704 H   0  0  0  0  0  0  0  0  0  0  0  0
   11.1433   -2.8752   27.8313 H   0  0  0  0  0  0  0  0  0  0  0  0
    6.1634    1.8989   18.2805 H   0  0  0  0  0  0  0  0  0  0  0  0
    5.0613    0.8274   19.1732 H   0  0  0  0  0  0  0  0  0  0  0  0
    5.6885    0.3308   17.5909 H   0  0  0  0  0  0  0  0  0  0  0  0
    9.6040   -1.2010   20.2473 H   0  0  0  0  0  0  0  0  0  0  0  0
    9.2300   -7.8838   25.6615 H   0  0  0  0  0  0  0  0  0  0  0  0
    7.8593   -3.5085   25.8572 H   0  0  0  0  0  0  0  0  0  0  0  0
    6.7073   -3.9812   29.1575 H   0  0  0  0  0  0  0  0  0  0  0  0
    9.8898   -1.7011   29.3658 H   0  0  0  0  0  0  0  0  0  0  0  0
  1  2  2  0  0  0  0
  1  6  1  0  0  0  0
  1 29  1  0  0  0  0
  2  7  1  0  0  0  0
  2 30  1  0  0  0  0
  3  4  1  0  0  0  0
  3  7  2  0  0  0  0
  3 31  1  0  0  0  0
  4  5  1  0  0  0  0
  4  6  2  0  0  0  0
  5  8  2  0  0  0  0
  5 11  1  0  0  0  0
  6 19  1  0  0  0  0
  7 28  1  0  0  0  0
  8 19  1  0  0  0  0
  8 20  1  0  0  0  0
  9 13  1  0  0  0  0
  9 21  2  0  0  0  0
  9 24  1  0  0  0  0
 10 18  1  0  0  0  0
 10 20  1  0  0  0  0
 10 22  2  0  0  0  0
 11 12  1  0  0  0  0
 11 32  1  0  0  0  0
 11 33  1  0  0  0  0
 12 20  1  0  0  0  0
 12 34  1  0  0  0  0
 12 35  1  0  0  0  0
 13 14  1  0  0  0  0
 13 23  1  0  0  0  0
 13 36  1  1  0  0  0
 14 15  1  0  0  0  0
 14 25  1  0  0  0  0
 14 37  1  1  0  0  0
 15 16  1  0  0  0  0
 15 26  1  0  0  0  0
 15 38  1  1  0  0  0
 16 17  1  0  0  0  0
 16 27  1  0  0  0  0
 16 39  1  6  0  0  0
 17 23  1  0  0  0  0
 17 28  1  0  0  0  0
 17 40  1  1  0  0  0
 18 41  1  0  0  0  0
 18 42  1  0  0  0  0
 18 43  1  0  0  0  0
 19 44  1  0  0  0  0
 24 45  1  0  0  0  0
 25 46  1  0  0  0  0
 26 47  1  0  0  0  0
 27 48  1  0  0  0  0
M  END
>  <Chemgauss4 Score>
-5.02173471450806

>  <Number of Confs>
71

$$$$
