CHR-SOS-70e-4
 OpenBabel03242009303D

 47 49  0  0  0  0  0  0  0  0999 V2000
    7.1640   -3.6916   24.5205 C   0  0  0  0  0  0  0  0  0  0  0  0
    5.6904    1.3349   19.4458 C   0  0  0  0  0  0  0  0  0  0  0  0
    6.7099    0.7274   20.1702 C   0  0  0  0  0  0  0  0  0  0  0  0
    7.8543   -2.5479   24.1192 C   0  0  0  0  0  0  0  0  0  0  0  0
    7.6673   -4.4841   25.5522 C   0  0  0  0  0  0  0  0  0  0  0  0
    9.5516   -2.9894   25.7810 C   0  0  0  0  0  0  0  0  0  0  0  0
    5.2604    0.7131   18.2846 C   0  0  0  0  0  0  0  0  0  0  0  0
    6.7603   -1.0077   18.5444 C   0  0  0  0  0  0  0  0  0  0  0  0
    7.2606   -0.4665   19.7176 C   0  0  0  0  0  0  0  0  0  0  0  0
    9.0481   -2.1968   24.7495 C   0  0  0  0  0  0  0  0  0  0  0  0
    8.8612   -4.1330   26.1824 C   0  0  0  0  0  0  0  0  0  0  0  0
    8.8994   -0.6885   21.6169 C   0  0  0  0  0  0  0  0  0  0  0  0
   12.9935   -1.8639   22.9238 C   0  0  0  0  0  0  0  0  0  0  0  0
   12.8141   -0.3949   22.5355 C   0  0  0  0  0  0  0  0  0  0  0  0
   11.7722   -2.2321   23.7598 C   0  0  0  0  0  0  0  0  0  0  0  0
   11.4874    0.0460   23.1462 C   0  0  0  0  0  0  0  0  0  0  0  0
   10.6902   -1.2443   23.3263 C   0  0  0  0  0  0  0  0  0  0  0  0
    9.9755   -1.6735   22.0456 C   0  0  0  0  0  0  0  0  0  0  0  0
    5.7709   -0.4467   17.8136 N   0  0  0  0  0  0  0  0  0  0  0  0
   10.4643   -6.2211   26.6003 N   0  0  0  0  0  0  0  0  0  0  0  0
    8.2995   -1.1082   20.4330 N   0  0  0  0  0  0  0  0  0  0  0  0
    8.6414    0.3191   22.2671 O   0  0  0  0  0  0  0  0  0  0  0  0
   10.3479   -4.2971   28.3121 O   0  0  0  0  0  0  0  0  0  0  0  0
    8.3838   -5.8572   28.0754 O   0  0  0  0  0  0  0  0  0  0  0  0
    9.7259   -1.0757   24.3552 O   0  0  0  0  0  0  0  0  0  0  0  0
    9.4898   -5.1241   27.4756 S   0  0  0  0  0  0  0  0  0  0  0  0
    6.2347   -3.9650   24.0296 H   0  0  0  0  0  0  0  0  0  0  0  0
    5.2463    2.2657   19.7798 H   0  0  0  0  0  0  0  0  0  0  0  0
    7.0675    1.1924   21.0851 H   0  0  0  0  0  0  0  0  0  0  0  0
    7.4572   -1.9348   23.3150 H   0  0  0  0  0  0  0  0  0  0  0  0
    7.1210   -5.3723   25.8578 H   0  0  0  0  0  0  0  0  0  0  0  0
   10.4828   -2.7116   26.2689 H   0  0  0  0  0  0  0  0  0  0  0  0
    4.4684    1.1472   17.6834 H   0  0  0  0  0  0  0  0  0  0  0  0
    7.1494   -1.9377   18.1408 H   0  0  0  0  0  0  0  0  0  0  0  0
   13.0844   -2.5088   22.0440 H   0  0  0  0  0  0  0  0  0  0  0  0
   13.9109   -1.9818   23.5121 H   0  0  0  0  0  0  0  0  0  0  0  0
   13.6409    0.1995   22.9408 H   0  0  0  0  0  0  0  0  0  0  0  0
   12.8157   -0.2597   21.4493 H   0  0  0  0  0  0  0  0  0  0  0  0
   11.4726   -3.2656   23.5336 H   0  0  0  0  0  0  0  0  0  0  0  0
   11.9996   -2.1696   24.8321 H   0  0  0  0  0  0  0  0  0  0  0  0
   11.6509    0.5814   24.0903 H   0  0  0  0  0  0  0  0  0  0  0  0
   10.9753    0.7276   22.4523 H   0  0  0  0  0  0  0  0  0  0  0  0
    9.5105   -2.6531   22.2001 H   0  0  0  0  0  0  0  0  0  0  0  0
   10.7066   -1.7666   21.2353 H   0  0  0  0  0  0  0  0  0  0  0  0
   11.4844   -6.1284   26.6794 H   0  0  0  0  0  0  0  0  0  0  0  0
   10.1409   -7.1925   26.5170 H   0  0  0  0  0  0  0  0  0  0  0  0
    8.6376   -1.9765   20.0234 H   0  0  0  0  0  0  0  0  0  0  0  0
  1  4  1  0  0  0  0
  1  5  2  0  0  0  0
  1 27  1  0  0  0  0
  2  3  2  0  0  0  0
  2  7  1  0  0  0  0
  2 28  1  0  0  0  0
  3  9  1  0  0  0  0
  3 29  1  0  0  0  0
  4 10  2  0  0  0  0
  4 30  1  0  0  0  0
  5 11  1  0  0  0  0
  5 31  1  0  0  0  0
  6 10  1  0  0  0  0
  6 11  2  0  0  0  0
  6 32  1  0  0  0  0
  7 19  2  0  0  0  0
  7 33  1  0  0  0  0
  8  9  2  0  0  0  0
  8 19  1  0  0  0  0
  8 34  1  0  0  0  0
  9 21  1  0  0  0  0
 10 25  1  0  0  0  0
 11 26  1  0  0  0  0
 12 18  1  0  0  0  0
 12 21  1  0  0  0  0
 12 22  2  0  0  0  0
 13 14  1  0  0  0  0
 13 15  1  0  0  0  0
 13 35  1  0  0  0  0
 13 36  1  0  0  0  0
 14 16  1  0  0  0  0
 14 37  1  0  0  0  0
 14 38  1  0  0  0  0
 15 17  1  0  0  0  0
 15 39  1  0  0  0  0
 15 40  1  0  0  0  0
 16 17  1  0  0  0  0
 16 41  1  0  0  0  0
 16 42  1  0  0  0  0
 17 18  1  0  0  0  0
 17 25  1  0  0  0  0
 18 43  1  0  0  0  0
 18 44  1  0  0  0  0
 20 26  1  0  0  0  0
 20 45  1  0  0  0  0
 20 46  1  0  0  0  0
 21 47  1  0  0  0  0
 23 26  2  0  0  0  0
 24 26  2  0  0  0  0
M  END
>  <Chemgauss4 Score>
-4.814781665802

>  <Number of Confs>
200

$$$$
