TIK-301
  -OEChem-03222023333D

 36 37  0     1  0  0  0  0  0999 V2000
   10.6945    2.2775   24.1702 C   0  0  0  0  0  0  0  0  0  0  0  0
   12.7809    0.8126   22.9401 C   0  0  0  0  0  0  0  0  0  0  0  0
   13.5321    4.3486   23.1607 C   0  0  0  0  0  0  0  0  0  0  0  0
   11.8548    2.9433   23.7277 C   0  0  0  0  0  0  0  0  0  0  0  0
   12.2869    4.2990   23.7438 C   0  0  0  0  0  0  0  0  0  0  0  0
   12.8692    2.1970   23.1241 C   0  0  0  0  0  0  0  0  0  0  0  0
   10.5924    0.8929   23.9928 C   0  0  0  0  0  0  0  0  0  0  0  0
   11.6207    0.1737   23.3870 C   0  0  0  0  0  0  0  0  0  0  0  0
    8.3777    4.9421   23.2316 C   0  0  0  0  0  0  0  0  0  0  0  0
    7.5506    3.9353   22.5032 C   0  0  0  0  0  0  0  0  0  0  0  0
   12.4789    6.5256   24.8945 C   0  0  0  0  0  0  0  0  0  0  0  0
    9.4640   -0.2111   25.7716 C   0  0  0  0  0  0  0  0  0  0  0  0
   10.5871    6.0826   23.2239 C   0  0  0  0  0  0  0  0  0  0  0  0
   11.5401    5.4534   24.2839 C   0  0  1  0  0  0  0  0  0  0  0  0
   13.8747    3.0759   22.7900 N   0  0  0  0  0  0  0  0  0  0  0  0
    9.6171    5.1405   22.6732 N   0  0  0  0  0  0  0  0  0  0  0  0
    7.9199    5.4955   24.2245 O   0  0  0  0  0  0  0  0  0  0  0  0
    9.4597    0.2686   24.4298 O   0  0  0  0  0  0  0  0  0  0  0  0
   11.4903   -1.5359   23.1705 Cl  0  0  0  0  0  0  0  0  0  0  0  0
    9.8885    2.8306   24.6447 H   0  0  0  0  0  0  0  0  0  0  0  0
   13.5895    0.2641   22.4668 H   0  0  0  0  0  0  0  0  0  0  0  0
   14.2053    5.1738   22.9738 H   0  0  0  0  0  0  0  0  0  0  0  0
    7.7003    2.9125   22.8849 H   0  0  0  0  0  0  0  0  0  0  0  0
    6.4702    4.1277   22.6023 H   0  0  0  0  0  0  0  0  0  0  0  0
    7.7347    3.8697   21.4189 H   0  0  0  0  0  0  0  0  0  0  0  0
   13.1833    6.9358   24.1637 H   0  0  0  0  0  0  0  0  0  0  0  0
   13.0619    6.1153   25.7263 H   0  0  0  0  0  0  0  0  0  0  0  0
   11.8878    7.3628   25.2829 H   0  0  0  0  0  0  0  0  0  0  0  0
    8.5051   -0.6862   25.9926 H   0  0  0  0  0  0  0  0  0  0  0  0
    9.6362    0.6226   26.4569 H   0  0  0  0  0  0  0  0  0  0  0  0
   10.2660   -0.9445   25.8843 H   0  0  0  0  0  0  0  0  0  0  0  0
   10.0485    6.9350   23.6544 H   0  0  0  0  0  0  0  0  0  0  0  0
   11.1912    6.4722   22.3956 H   0  0  0  0  0  0  0  0  0  0  0  0
   10.8878    5.1283   25.1259 H   0  0  0  0  0  0  0  0  0  0  0  0
   14.7394    2.8179   22.3349 H   0  0  0  0  0  0  0  0  0  0  0  0
    9.8671    4.6141   21.8496 H   0  0  0  0  0  0  0  0  0  0  0  0
  1  4  2  0  0  0  0
  1  7  1  0  0  0  0
  2  6  2  0  0  0  0
  2  8  1  0  0  0  0
  3  5  2  0  0  0  0
  3 15  1  0  0  0  0
  4  5  1  0  0  0  0
  4  6  1  0  0  0  0
  5 14  1  0  0  0  0
  6 15  1  0  0  0  0
  7  8  2  0  0  0  0
  7 18  1  0  0  0  0
  8 19  1  0  0  0  0
  9 10  1  0  0  0  0
  9 16  1  0  0  0  0
  9 17  2  0  0  0  0
 11 14  1  0  0  0  0
 12 18  1  0  0  0  0
 13 14  1  0  0  0  0
 13 16  1  0  0  0  0
  1 20  1  0  0  0  0
  2 21  1  0  0  0  0
  3 22  1  0  0  0  0
 10 23  1  0  0  0  0
 10 24  1  0  0  0  0
 10 25  1  0  0  0  0
 11 26  1  0  0  0  0
 11 27  1  0  0  0  0
 11 28  1  0  0  0  0
 12 29  1  0  0  0  0
 12 30  1  0  0  0  0
 12 31  1  0  0  0  0
 13 32  1  0  0  0  0
 13 33  1  0  0  0  0
 14 34  1  0  0  0  0
 15 35  1  0  0  0  0
 16 36  1  0  0  0  0
M  END
> <Hybrid2>
-7.672483

$$$$
Ramelteon
  -OEChem-03222023333D

 40 42  0     1  0  0  0  0  0999 V2000
   12.8507    4.3559   22.5729 C   0  0  0  0  0  0  0  0  0  0  0  0
   12.1782    5.4715   23.0742 C   0  0  0  0  0  0  0  0  0  0  0  0
   12.3064    3.0894   22.7844 C   0  0  0  0  0  0  0  0  0  0  0  0
   11.0993    2.9025   23.4807 C   0  0  0  0  0  0  0  0  0  0  0  0
   10.4289    4.0095   23.9461 C   0  0  0  0  0  0  0  0  0  0  0  0
   10.9770    5.2713   23.7422 C   0  0  0  0  0  0  0  0  0  0  0  0
   10.2750   -2.1616   23.0954 C   0  0  0  0  0  0  0  0  0  0  0  0
   12.8536    1.7820   22.3010 C   0  0  0  0  0  0  0  0  0  0  0  0
    9.1777    4.1432   24.7203 C   0  0  0  0  0  0  0  0  0  0  0  0
   12.1070    0.7985   23.2106 C   0  0  0  0  0  0  0  0  0  0  0  0
    8.9554    5.6486   24.5734 C   0  0  0  0  0  0  0  0  0  0  0  0
   10.7409    1.4448   23.5307 C   0  0  1  0  0  0  0  0  0  0  0  0
    7.9147   -2.9583   22.6805 C   0  0  0  0  0  0  0  0  0  0  0  0
    9.3073   -2.7801   22.1035 C   0  0  0  0  0  0  0  0  0  0  0  0
   10.1826    0.9407   24.8530 C   0  0  0  0  0  0  0  0  0  0  0  0
   10.3128   -0.5698   25.0107 C   0  0  0  0  0  0  0  0  0  0  0  0
    9.6329   -1.2891   23.9694 N   0  0  0  0  0  0  0  0  0  0  0  0
   11.4763   -2.4158   23.1098 O   0  0  0  0  0  0  0  0  0  0  0  0
   10.2171    6.2866   24.2706 O   0  0  0  0  0  0  0  0  0  0  0  0
   13.7821    4.4761   22.0290 H   0  0  0  0  0  0  0  0  0  0  0  0
   12.5802    6.4686   22.9303 H   0  0  0  0  0  0  0  0  0  0  0  0
   12.5911    1.6292   21.2492 H   0  0  0  0  0  0  0  0  0  0  0  0
   13.9363    1.7052   22.4337 H   0  0  0  0  0  0  0  0  0  0  0  0
    8.3393    3.5724   24.3135 H   0  0  0  0  0  0  0  0  0  0  0  0
    9.3469    3.8726   25.7674 H   0  0  0  0  0  0  0  0  0  0  0  0
   11.9995   -0.1880   22.7474 H   0  0  0  0  0  0  0  0  0  0  0  0
   12.6862    0.6588   24.1346 H   0  0  0  0  0  0  0  0  0  0  0  0
    8.2645    5.8672   23.7490 H   0  0  0  0  0  0  0  0  0  0  0  0
    8.5385    6.0851   25.4869 H   0  0  0  0  0  0  0  0  0  0  0  0
   10.0339    1.2299   22.7196 H   0  0  0  0  0  0  0  0  0  0  0  0
    7.9356   -3.5999   23.5677 H   0  0  0  0  0  0  0  0  0  0  0  0
    7.4947   -1.9899   22.9686 H   0  0  0  0  0  0  0  0  0  0  0  0
    7.2419   -3.4184   21.9492 H   0  0  0  0  0  0  0  0  0  0  0  0
    9.2583   -2.1354   21.2185 H   0  0  0  0  0  0  0  0  0  0  0  0
    9.7031   -3.7535   21.7925 H   0  0  0  0  0  0  0  0  0  0  0  0
    9.1219    1.2121   24.9125 H   0  0  0  0  0  0  0  0  0  0  0  0
   10.6941    1.4503   25.6786 H   0  0  0  0  0  0  0  0  0  0  0  0
   11.3667   -0.8620   24.9658 H   0  0  0  0  0  0  0  0  0  0  0  0
    9.9068   -0.9053   25.9702 H   0  0  0  0  0  0  0  0  0  0  0  0
    8.6276   -1.1535   23.8652 H   0  0  0  0  0  0  0  0  0  0  0  0
  1  2  1  0  0  0  0
  1  3  2  0  0  0  0
  2  6  2  0  0  0  0
  3  4  1  0  0  0  0
  3  8  1  0  0  0  0
  4  5  2  0  0  0  0
  4 12  1  0  0  0  0
  5  6  1  0  0  0  0
  5  9  1  0  0  0  0
  6 19  1  0  0  0  0
  7 14  1  0  0  0  0
  7 17  1  0  0  0  0
  7 18  2  0  0  0  0
  8 10  1  0  0  0  0
  9 11  1  0  0  0  0
 10 12  1  0  0  0  0
 11 19  1  0  0  0  0
 12 15  1  0  0  0  0
 13 14  1  0  0  0  0
 15 16  1  0  0  0  0
 16 17  1  0  0  0  0
  1 20  1  0  0  0  0
  2 21  1  0  0  0  0
  8 22  1  0  0  0  0
  8 23  1  0  0  0  0
  9 24  1  0  0  0  0
  9 25  1  0  0  0  0
 10 26  1  0  0  0  0
 10 27  1  0  0  0  0
 11 28  1  0  0  0  0
 11 29  1  0  0  0  0
 12 30  1  0  0  0  0
 13 31  1  0  0  0  0
 13 32  1  0  0  0  0
 13 33  1  0  0  0  0
 14 34  1  0  0  0  0
 14 35  1  0  0  0  0
 15 36  1  0  0  0  0
 15 37  1  0  0  0  0
 16 38  1  0  0  0  0
 16 39  1  0  0  0  0
 17 40  1  0  0  0  0
M  END
> <Hybrid2>
-7.392034

$$$$
Agomelatine
  -OEChem-03222023333D

 35 36  0     0  0  0  0  0  0999 V2000
   13.1985    3.7786   22.5570 C   0  0  0  0  0  0  0  0  0  0  0  0
   13.4469    2.4217   22.3481 C   0  0  0  0  0  0  0  0  0  0  0  0
   12.7862    0.0782   22.6199 C   0  0  0  0  0  0  0  0  0  0  0  0
   12.0546    4.1804   23.2405 C   0  0  0  0  0  0  0  0  0  0  0  0
   11.8865   -0.8754   23.0970 C   0  0  0  0  0  0  0  0  0  0  0  0
   10.4942    0.8832   23.9895 C   0  0  0  0  0  0  0  0  0  0  0  0
   12.5521    1.4482   22.8213 C   0  0  0  0  0  0  0  0  0  0  0  0
   11.3889    1.8568   23.5163 C   0  0  0  0  0  0  0  0  0  0  0  0
   11.1548    3.2268   23.7175 C   0  0  0  0  0  0  0  0  0  0  0  0
   10.7427   -0.4736   23.7805 C   0  0  0  0  0  0  0  0  0  0  0  0
    9.2954    6.7199   23.1311 C   0  0  0  0  0  0  0  0  0  0  0  0
    9.8638    7.6932   22.1523 C   0  0  0  0  0  0  0  0  0  0  0  0
    8.7142   -0.9256   24.9367 C   0  0  0  0  0  0  0  0  0  0  0  0
    9.9449    3.7278   24.4437 C   0  0  0  0  0  0  0  0  0  0  0  0
    8.8718    4.2997   23.5130 C   0  0  0  0  0  0  0  0  0  0  0  0
    9.3601    5.3976   22.7222 N   0  0  0  0  0  0  0  0  0  0  0  0
    8.8290    7.1285   24.1881 O   0  0  0  0  0  0  0  0  0  0  0  0
    9.8659   -1.4056   24.2450 O   0  0  0  0  0  0  0  0  0  0  0  0
   13.8981    4.5211   22.1846 H   0  0  0  0  0  0  0  0  0  0  0  0
   14.3474    2.1308   21.8112 H   0  0  0  0  0  0  0  0  0  0  0  0
   13.6738   -0.2579   22.0880 H   0  0  0  0  0  0  0  0  0  0  0  0
   11.8721    5.2403   23.3974 H   0  0  0  0  0  0  0  0  0  0  0  0
   12.0850   -1.9309   22.9308 H   0  0  0  0  0  0  0  0  0  0  0  0
    9.5912    1.1639   24.5276 H   0  0  0  0  0  0  0  0  0  0  0  0
    9.1099    8.0587   21.4366 H   0  0  0  0  0  0  0  0  0  0  0  0
   10.2631    8.5964   22.6411 H   0  0  0  0  0  0  0  0  0  0  0  0
   10.6901    7.3101   21.5324 H   0  0  0  0  0  0  0  0  0  0  0  0
    8.0994   -1.7717   25.2532 H   0  0  0  0  0  0  0  0  0  0  0  0
    8.1393   -0.2699   24.2779 H   0  0  0  0  0  0  0  0  0  0  0  0
    9.0366   -0.3632   25.8162 H   0  0  0  0  0  0  0  0  0  0  0  0
   10.2509    4.5108   25.1548 H   0  0  0  0  0  0  0  0  0  0  0  0
    9.5093    2.9258   25.0603 H   0  0  0  0  0  0  0  0  0  0  0  0
    8.5296    3.5328   22.8110 H   0  0  0  0  0  0  0  0  0  0  0  0
    8.0041    4.6586   24.0761 H   0  0  0  0  0  0  0  0  0  0  0  0
    9.7750    5.1922   21.8147 H   0  0  0  0  0  0  0  0  0  0  0  0
  1  2  2  0  0  0  0
  1  4  1  0  0  0  0
  2  7  1  0  0  0  0
  3  5  1  0  0  0  0
  3  7  2  0  0  0  0
  4  9  2  0  0  0  0
  5 10  2  0  0  0  0
  6  8  2  0  0  0  0
  6 10  1  0  0  0  0
  7  8  1  0  0  0  0
  8  9  1  0  0  0  0
  9 14  1  0  0  0  0
 10 18  1  0  0  0  0
 11 12  1  0  0  0  0
 11 16  1  0  0  0  0
 11 17  2  0  0  0  0
 13 18  1  0  0  0  0
 14 15  1  0  0  0  0
 15 16  1  0  0  0  0
  1 19  1  0  0  0  0
  2 20  1  0  0  0  0
  3 21  1  0  0  0  0
  4 22  1  0  0  0  0
  5 23  1  0  0  0  0
  6 24  1  0  0  0  0
 12 25  1  0  0  0  0
 12 26  1  0  0  0  0
 12 27  1  0  0  0  0
 13 28  1  0  0  0  0
 13 29  1  0  0  0  0
 13 30  1  0  0  0  0
 14 31  1  0  0  0  0
 14 32  1  0  0  0  0
 15 33  1  0  0  0  0
 15 34  1  0  0  0  0
 16 35  1  0  0  0  0
M  END
> <Hybrid2>
-6.903672

$$$$
Tasimelteon
  -OEChem-03222023333D

 37 39  0     1  0  0  0  0  0999 V2000
   13.0477    0.0608   22.7476 C   0  0  0  0  0  0  0  0  0  0  0  0
   12.9766    1.4483   22.5375 C   0  0  0  0  0  0  0  0  0  0  0  0
   12.1787   -0.5680   23.6411 C   0  0  0  0  0  0  0  0  0  0  0  0
   12.0370    2.2251   23.2206 C   0  0  0  0  0  0  0  0  0  0  0  0
   11.1756    1.5882   24.0946 C   0  0  0  0  0  0  0  0  0  0  0  0
   11.2501    0.2179   24.2953 C   0  0  0  0  0  0  0  0  0  0  0  0
    9.0275    6.5107   23.3468 C   0  0  0  0  0  0  0  0  0  0  0  0
   10.1404    2.1585   24.9836 C   0  0  0  0  0  0  0  0  0  0  0  0
   13.2227    4.5640   23.2009 C   0  0  0  0  0  0  0  0  0  0  0  0
    9.4319    0.8649   25.3881 C   0  0  0  0  0  0  0  0  0  0  0  0
   11.9815    3.7199   23.0076 C   0  0  2  0  0  0  0  0  0  0  0  0
   12.1003    4.6574   24.1913 C   0  0  2  0  0  0  0  0  0  0  0  0
    7.3533    5.0943   22.0943 C   0  0  0  0  0  0  0  0  0  0  0  0
    8.1900    6.3607   22.0902 C   0  0  0  0  0  0  0  0  0  0  0  0
   11.2594    5.8852   24.2585 C   0  0  0  0  0  0  0  0  0  0  0  0
   10.2680    5.8932   23.2181 N   0  0  0  0  0  0  0  0  0  0  0  0
    8.6393    7.1109   24.3453 O   0  0  0  0  0  0  0  0  0  0  0  0
   10.3374   -0.2497   25.2065 O   0  0  0  0  0  0  0  0  0  0  0  0
   13.7875   -0.5261   22.2100 H   0  0  0  0  0  0  0  0  0  0  0  0
   13.6690    1.9125   21.8392 H   0  0  0  0  0  0  0  0  0  0  0  0
   12.2339   -1.6377   23.8094 H   0  0  0  0  0  0  0  0  0  0  0  0
   10.6054    2.6395   25.8502 H   0  0  0  0  0  0  0  0  0  0  0  0
    9.4588    2.8548   24.4886 H   0  0  0  0  0  0  0  0  0  0  0  0
   14.1383    4.0827   23.5236 H   0  0  0  0  0  0  0  0  0  0  0  0
   13.3763    5.3870   22.5131 H   0  0  0  0  0  0  0  0  0  0  0  0
    9.1020    0.8965   26.4317 H   0  0  0  0  0  0  0  0  0  0  0  0
    8.5504    0.6841   24.7592 H   0  0  0  0  0  0  0  0  0  0  0  0
   11.3170    4.0313   22.2013 H   0  0  0  0  0  0  0  0  0  0  0  0
   12.2682    4.2337   25.1755 H   0  0  0  0  0  0  0  0  0  0  0  0
    7.9863    4.2048   22.1791 H   0  0  0  0  0  0  0  0  0  0  0  0
    6.6570    5.1003   22.9384 H   0  0  0  0  0  0  0  0  0  0  0  0
    6.7705    5.0050   21.1715 H   0  0  0  0  0  0  0  0  0  0  0  0
    7.5336    7.2342   22.0046 H   0  0  0  0  0  0  0  0  0  0  0  0
    8.8610    6.3546   21.2238 H   0  0  0  0  0  0  0  0  0  0  0  0
   10.7543    5.9225   25.2352 H   0  0  0  0  0  0  0  0  0  0  0  0
   11.9042    6.7697   24.1459 H   0  0  0  0  0  0  0  0  0  0  0  0
   10.4846    5.4220   22.3403 H   0  0  0  0  0  0  0  0  0  0  0  0
  1  2  2  0  0  0  0
  1  3  1  0  0  0  0
  2  4  1  0  0  0  0
  3  6  2  0  0  0  0
  4  5  2  0  0  0  0
  4 11  1  0  0  0  0
  5  6  1  0  0  0  0
  5  8  1  0  0  0  0
  6 18  1  0  0  0  0
  7 14  1  0  0  0  0
  7 16  1  0  0  0  0
  7 17  2  0  0  0  0
  8 10  1  0  0  0  0
  9 11  1  0  0  0  0
  9 12  1  0  0  0  0
 10 18  1  0  0  0  0
 11 12  1  0  0  0  0
 12 15  1  0  0  0  0
 13 14  1  0  0  0  0
 15 16  1  0  0  0  0
  1 19  1  0  0  0  0
  2 20  1  0  0  0  0
  3 21  1  0  0  0  0
  8 22  1  0  0  0  0
  8 23  1  0  0  0  0
  9 24  1  0  0  0  0
  9 25  1  0  0  0  0
 10 26  1  0  0  0  0
 10 27  1  0  0  0  0
 11 28  1  0  0  0  0
 12 29  1  0  0  0  0
 13 30  1  0  0  0  0
 13 31  1  0  0  0  0
 13 32  1  0  0  0  0
 14 33  1  0  0  0  0
 14 34  1  0  0  0  0
 15 35  1  0  0  0  0
 15 36  1  0  0  0  0
 16 37  1  0  0  0  0
M  END
> <Hybrid2>
-8.706787

$$$$
N-[2-(2-iodo-5-methoxy-1H-indol-3-yl)ethyl]acetamide
  -OEChem-03222023333D

 33 34  0     0  0  0  0  0  0999 V2000
   12.6764    0.3778   22.1812 C   0  0  0  0  0  0  0  0  0  0  0  0
   12.1219   -0.8906   22.3750 C   0  0  0  0  0  0  0  0  0  0  0  0
   10.5595   -0.0201   24.0177 C   0  0  0  0  0  0  0  0  0  0  0  0
   11.1026    1.2678   23.8393 C   0  0  0  0  0  0  0  0  0  0  0  0
   10.8304    2.5455   24.4035 C   0  0  0  0  0  0  0  0  0  0  0  0
   12.1464    1.4367   22.9270 C   0  0  0  0  0  0  0  0  0  0  0  0
   11.0797   -1.0887   23.2786 C   0  0  0  0  0  0  0  0  0  0  0  0
   11.6982    3.4484   23.8337 C   0  0  0  0  0  0  0  0  0  0  0  0
    8.1087    5.2949   23.1756 C   0  0  0  0  0  0  0  0  0  0  0  0
    8.5997    6.6155   22.6823 C   0  0  0  0  0  0  0  0  0  0  0  0
    9.4949   -2.4745   24.3849 C   0  0  0  0  0  0  0  0  0  0  0  0
    9.7942    2.8297   25.4210 C   0  0  0  0  0  0  0  0  0  0  0  0
    8.5372    3.5150   24.8581 C   0  0  0  0  0  0  0  0  0  0  0  0
   12.4878    2.7702   22.9443 N   0  0  0  0  0  0  0  0  0  0  0  0
    8.8397    4.7737   24.2311 N   0  0  0  0  0  0  0  0  0  0  0  0
    7.1341    4.7758   22.6442 O   0  0  0  0  0  0  0  0  0  0  0  0
   10.5593   -2.3372   23.4460 O   0  0  0  0  0  0  0  0  0  0  0  0
   11.8416    5.4733   24.2036 I   0  0  0  0  0  0  0  0  0  0  0  0
   13.4872    0.5313   21.4769 H   0  0  0  0  0  0  0  0  0  0  0  0
   12.5149   -1.7310   21.8074 H   0  0  0  0  0  0  0  0  0  0  0  0
    9.7466   -0.1845   24.7197 H   0  0  0  0  0  0  0  0  0  0  0  0
    9.3520    6.5128   21.8837 H   0  0  0  0  0  0  0  0  0  0  0  0
    7.7939    7.2275   22.2462 H   0  0  0  0  0  0  0  0  0  0  0  0
    9.0711    7.2574   23.4436 H   0  0  0  0  0  0  0  0  0  0  0  0
    9.1728   -3.5180   24.4217 H   0  0  0  0  0  0  0  0  0  0  0  0
    8.6604   -1.8347   24.0870 H   0  0  0  0  0  0  0  0  0  0  0  0
    9.8503   -2.1702   25.3722 H   0  0  0  0  0  0  0  0  0  0  0  0
   10.2119    3.4804   26.2132 H   0  0  0  0  0  0  0  0  0  0  0  0
    9.4890    1.9058   25.9504 H   0  0  0  0  0  0  0  0  0  0  0  0
    8.0592    2.8901   24.0971 H   0  0  0  0  0  0  0  0  0  0  0  0
    7.8062    3.7078   25.6502 H   0  0  0  0  0  0  0  0  0  0  0  0
   13.2153    3.1887   22.3814 H   0  0  0  0  0  0  0  0  0  0  0  0
    9.6323    5.3096   24.5811 H   0  0  0  0  0  0  0  0  0  0  0  0
  1  2  1  0  0  0  0
  1  6  2  0  0  0  0
  2  7  2  0  0  0  0
  3  4  2  0  0  0  0
  3  7  1  0  0  0  0
  4  5  1  0  0  0  0
  4  6  1  0  0  0  0
  5  8  2  0  0  0  0
  5 12  1  0  0  0  0
  6 14  1  0  0  0  0
  7 17  1  0  0  0  0
  8 14  1  0  0  0  0
  8 18  1  0  0  0  0
  9 10  1  0  0  0  0
  9 15  1  0  0  0  0
  9 16  2  0  0  0  0
 11 17  1  0  0  0  0
 12 13  1  0  0  0  0
 13 15  1  0  0  0  0
  1 19  1  0  0  0  0
  2 20  1  0  0  0  0
  3 21  1  0  0  0  0
 10 22  1  0  0  0  0
 10 23  1  0  0  0  0
 10 24  1  0  0  0  0
 11 25  1  0  0  0  0
 11 26  1  0  0  0  0
 11 27  1  0  0  0  0
 12 28  1  0  0  0  0
 12 29  1  0  0  0  0
 13 30  1  0  0  0  0
 13 31  1  0  0  0  0
 14 32  1  0  0  0  0
 15 33  1  0  0  0  0
M  END
> <Hybrid2>
-6.279491

$$$$
Piromelatine
  -OEChem-03222023333D

 39 41  0     0  0  0  0  0  0999 V2000
    9.4879   -1.6858   23.0515 C   0  0  0  0  0  0  0  0  0  0  0  0
    9.0652   -1.2997   24.3267 C   0  0  0  0  0  0  0  0  0  0  0  0
   11.0382    0.0842   24.6251 C   0  0  0  0  0  0  0  0  0  0  0  0
   12.5222   -0.6510   21.3666 C   0  0  0  0  0  0  0  0  0  0  0  0
   11.4849   -0.2909   23.3424 C   0  0  0  0  0  0  0  0  0  0  0  0
   12.6305    0.0253   22.5598 C   0  0  0  0  0  0  0  0  0  0  0  0
   10.7010   -1.1654   22.5867 C   0  0  0  0  0  0  0  0  0  0  0  0
    9.8267   -0.4285   25.1030 C   0  0  0  0  0  0  0  0  0  0  0  0
    8.4288    5.4002   24.1000 C   0  0  0  0  0  0  0  0  0  0  0  0
   10.9125    5.3337   24.5255 C   0  0  0  0  0  0  0  0  0  0  0  0
    8.5667    4.1698   23.5987 C   0  0  0  0  0  0  0  0  0  0  0  0
   10.8865    4.1064   23.9957 C   0  0  0  0  0  0  0  0  0  0  0  0
    9.6373    6.0826   24.6126 C   0  0  0  0  0  0  0  0  0  0  0  0
   12.1569    3.3630   23.9108 C   0  0  0  0  0  0  0  0  0  0  0  0
   10.2121    0.8246   27.0872 C   0  0  0  0  0  0  0  0  0  0  0  0
   13.7411    0.9180   22.9475 C   0  0  0  0  0  0  0  0  0  0  0  0
   13.6958    2.3037   22.2781 C   0  0  0  0  0  0  0  0  0  0  0  0
   11.3550   -1.3662   21.3921 N   0  0  0  0  0  0  0  0  0  0  0  0
   12.4987    3.0280   22.6118 N   0  0  0  0  0  0  0  0  0  0  0  0
    9.5858    7.2119   25.0848 O   0  0  0  0  0  0  0  0  0  0  0  0
   12.7972    3.1025   24.9235 O   0  0  0  0  0  0  0  0  0  0  0  0
    9.7531    3.4800   23.5205 O   0  0  0  0  0  0  0  0  0  0  0  0
    9.3880   -0.0695   26.3425 O   0  0  0  0  0  0  0  0  0  0  0  0
    8.8944   -2.3645   22.4481 H   0  0  0  0  0  0  0  0  0  0  0  0
    8.1264   -1.6905   24.7127 H   0  0  0  0  0  0  0  0  0  0  0  0
   11.6249    0.7635   25.2376 H   0  0  0  0  0  0  0  0  0  0  0  0
   13.1698   -0.6883   20.5016 H   0  0  0  0  0  0  0  0  0  0  0  0
    7.4736    5.9070   24.1429 H   0  0  0  0  0  0  0  0  0  0  0  0
   11.8124    5.8112   24.8941 H   0  0  0  0  0  0  0  0  0  0  0  0
    7.7495    3.5859   23.2005 H   0  0  0  0  0  0  0  0  0  0  0  0
    9.7477    1.0289   28.0550 H   0  0  0  0  0  0  0  0  0  0  0  0
   10.3394    1.7552   26.5285 H   0  0  0  0  0  0  0  0  0  0  0  0
   11.1884    0.3602   27.2450 H   0  0  0  0  0  0  0  0  0  0  0  0
   14.7123    0.4497   22.6921 H   0  0  0  0  0  0  0  0  0  0  0  0
   13.7815    1.0576   24.0468 H   0  0  0  0  0  0  0  0  0  0  0  0
   14.5392    2.9229   22.5996 H   0  0  0  0  0  0  0  0  0  0  0  0
   13.7343    2.2140   21.1875 H   0  0  0  0  0  0  0  0  0  0  0  0
   11.0213   -1.9571   20.6431 H   0  0  0  0  0  0  0  0  0  0  0  0
   11.8733    3.3074   21.8571 H   0  0  0  0  0  0  0  0  0  0  0  0
  1  2  1  0  0  0  0
  1  7  2  0  0  0  0
  2  8  2  0  0  0  0
  3  5  2  0  0  0  0
  3  8  1  0  0  0  0
  4  6  2  0  0  0  0
  4 18  1  0  0  0  0
  5  6  1  0  0  0  0
  5  7  1  0  0  0  0
  6 16  1  0  0  0  0
  7 18  1  0  0  0  0
  8 23  1  0  0  0  0
  9 11  2  0  0  0  0
  9 13  1  0  0  0  0
 10 12  2  0  0  0  0
 10 13  1  0  0  0  0
 11 22  1  0  0  0  0
 12 14  1  0  0  0  0
 12 22  1  0  0  0  0
 13 20  2  0  0  0  0
 14 19  1  0  0  0  0
 14 21  2  0  0  0  0
 15 23  1  0  0  0  0
 16 17  1  0  0  0  0
 17 19  1  0  0  0  0
  1 24  1  0  0  0  0
  2 25  1  0  0  0  0
  3 26  1  0  0  0  0
  4 27  1  0  0  0  0
  9 28  1  0  0  0  0
 10 29  1  0  0  0  0
 11 30  1  0  0  0  0
 15 31  1  0  0  0  0
 15 32  1  0  0  0  0
 15 33  1  0  0  0  0
 16 34  1  0  0  0  0
 16 35  1  0  0  0  0
 17 36  1  0  0  0  0
 17 37  1  0  0  0  0
 18 38  1  0  0  0  0
 19 39  1  0  0  0  0
M  END
> <Hybrid2>
-5.817197

$$$$
