@<TRIPOS>MOLECULE
LIG(A-1101)
   29    30     0     0     0
SMALL
USER_CHARGES

@<TRIPOS>ATOM
      1 C1          9.6050    5.8020   22.8360 C.3       1 LIG1101    -0.1626
      2 C2         10.6890    5.9100   23.9030 C.2       1 LIG1101     0.6420
      3 C3         12.5870    4.8490   22.5630 C.3       1 LIG1101     0.0966
      4 C4         13.1730    3.4900   22.9310 C.3       1 LIG1101    -0.0335
      5 C5         12.1510    2.4400   23.3960 C.2       1 LIG1101    -0.1466
      6 C6         11.0220    2.6350   24.1770 C.2       1 LIG1101     0.0154
      7 C7         11.1050    0.4790   23.6980 C.ar      1 LIG1101     0.0646
      8 C8         10.8640   -0.9140   23.5750 C.ar      1 LIG1101    -0.1186
      9 C9         11.7470   -1.7030   22.8410 C.ar      1 LIG1101    -0.1451
     10 C10        12.8630   -1.1210   22.2290 C.ar      1 LIG1101     0.0963
     11 C11        13.0960    0.2460   22.3560 C.ar      1 LIG1101    -0.1234
     12 C12        12.1990    1.0560   23.1010 C.ar      1 LIG1101    -0.0688
     13 F1         13.7350   -1.8820   21.5090 F         1 LIG1101    -0.1467
     14 N1         12.0670    5.4680   23.7610 N.am      1 LIG1101    -0.5683
     15 N2         10.4160    1.4650   24.3400 N.pl3     1 LIG1101    -0.5793
     16 O1         10.3910    6.3690   24.9350 O.2       1 LIG1101    -0.6260
     17 H1          8.6584    6.1976   23.2329 H         1 LIG1101     0.0674
     18 H2          9.9027    6.3833   21.9509 H         1 LIG1101     0.0674
     19 H3          9.4719    4.7471   22.5542 H         1 LIG1101     0.0674
     20 H4         13.3719    5.4853   22.1281 H         1 LIG1101     0.0519
     21 H5         11.7755    4.7168   21.8323 H         1 LIG1101     0.0519
     22 H6         13.6909    3.0920   22.0460 H         1 LIG1101     0.0563
     23 H7         13.8989    3.6413   23.7435 H         1 LIG1101     0.0563
     24 H8         10.6914    3.5792   24.5840 H         1 LIG1101     0.1762
     25 H9         10.0013   -1.3599   24.0475 H         1 LIG1101     0.1384
     26 H10        11.5703   -2.7640   22.7442 H         1 LIG1101     0.1480
     27 H11        13.9610    0.6910   21.8868 H         1 LIG1101     0.1487
     28 H12        12.6881    5.5994   24.5336 H         1 LIG1101     0.3154
     29 H13         9.5733    1.3265   24.8602 H         1 LIG1101     0.4590
@<TRIPOS>BOND
     1    1    2 1
     2    2   14 am
     3    2   16 2
     4    3    4 1
     5    3   14 1
     6    4    5 1
     7    5    6 2
     8    5   12 1
     9    6   15 1
    10    7    8 ar
    11    7   12 ar
    12    7   15 1
    13    8    9 ar
    14    9   10 ar
    15   10   11 ar
    16   10   13 1
    17   11   12 ar
    18    1   17 1
    19    1   18 1
    20    1   19 1
    21    3   20 1
    22    3   21 1
    23    4   22 1
    24    4   23 1
    25    6   24 1
    26    8   25 1
    27    9   26 1
    28   11   27 1
    29   14   28 1
    30   15   29 1
