Melatonin
  -OEChem-03222023203D

 33 34  0     0  0  0  0  0  0999 V2000
    9.8413   -0.3279   24.3245 C   0  0  0  0  0  0  0  0  0  0  0  0
   10.6241   -1.2447   23.6169 C   0  0  0  0  0  0  0  0  0  0  0  0
   12.1693    0.5044   22.9462 C   0  0  0  0  0  0  0  0  0  0  0  0
   10.4337    3.2296   24.6555 C   0  0  0  0  0  0  0  0  0  0  0  0
   11.3959    1.4469   23.6527 C   0  0  0  0  0  0  0  0  0  0  0  0
   11.4979    2.8493   23.8708 C   0  0  0  0  0  0  0  0  0  0  0  0
   10.2520    1.0098   24.3241 C   0  0  0  0  0  0  0  0  0  0  0  0
   11.7706   -0.8372   22.9378 C   0  0  0  0  0  0  0  0  0  0  0  0
    9.9014    6.1389   23.3835 C   0  0  0  0  0  0  0  0  0  0  0  0
    8.7675    6.4232   22.4552 C   0  0  0  0  0  0  0  0  0  0  0  0
   13.6754   -1.2749   21.5829 C   0  0  0  0  0  0  0  0  0  0  0  0
   12.5521    3.7452   23.3541 C   0  0  0  0  0  0  0  0  0  0  0  0
   12.2190    5.2432   23.4777 C   0  0  0  0  0  0  0  0  0  0  0  0
    9.6881    2.1131   24.9240 N   0  0  0  0  0  0  0  0  0  0  0  0
   11.0164    5.5914   22.7696 N   0  0  0  0  0  0  0  0  0  0  0  0
    9.7848    6.3956   24.5761 O   0  0  0  0  0  0  0  0  0  0  0  0
   12.5142   -1.7546   22.2572 O   0  0  0  0  0  0  0  0  0  0  0  0
    8.9486   -0.6463   24.8525 H   0  0  0  0  0  0  0  0  0  0  0  0
   10.3267   -2.2907   23.5999 H   0  0  0  0  0  0  0  0  0  0  0  0
   13.0652    0.8126   22.4141 H   0  0  0  0  0  0  0  0  0  0  0  0
   10.1392    4.1933   25.0472 H   0  0  0  0  0  0  0  0  0  0  0  0
    8.0793    5.5683   22.3577 H   0  0  0  0  0  0  0  0  0  0  0  0
    8.1422    7.2625   22.8000 H   0  0  0  0  0  0  0  0  0  0  0  0
    9.0562    6.6818   21.4239 H   0  0  0  0  0  0  0  0  0  0  0  0
   14.1760   -2.1067   21.0812 H   0  0  0  0  0  0  0  0  0  0  0  0
   14.3517   -0.8108   22.3052 H   0  0  0  0  0  0  0  0  0  0  0  0
   13.3739   -0.5326   20.8400 H   0  0  0  0  0  0  0  0  0  0  0  0
   12.7454    3.5279   22.2850 H   0  0  0  0  0  0  0  0  0  0  0  0
   13.5231    3.5564   23.8552 H   0  0  0  0  0  0  0  0  0  0  0  0
   12.0624    5.5256   24.5236 H   0  0  0  0  0  0  0  0  0  0  0  0
   13.0295    5.8598   23.0753 H   0  0  0  0  0  0  0  0  0  0  0  0
    8.8450    2.0999   25.4813 H   0  0  0  0  0  0  0  0  0  0  0  0
   10.9827    5.4269   21.7647 H   0  0  0  0  0  0  0  0  0  0  0  0
  1  2  2  0  0  0  0
  1  7  1  0  0  0  0
  2  8  1  0  0  0  0
  3  5  1  0  0  0  0
  3  8  2  0  0  0  0
  4  6  2  0  0  0  0
  4 14  1  0  0  0  0
  5  6  1  0  0  0  0
  5  7  2  0  0  0  0
  6 12  1  0  0  0  0
  7 14  1  0  0  0  0
  8 17  1  0  0  0  0
  9 10  1  0  0  0  0
  9 15  1  0  0  0  0
  9 16  2  0  0  0  0
 11 17  1  0  0  0  0
 12 13  1  0  0  0  0
 13 15  1  0  0  0  0
  1 18  1  0  0  0  0
  2 19  1  0  0  0  0
  3 20  1  0  0  0  0
  4 21  1  0  0  0  0
 10 22  1  0  0  0  0
 10 23  1  0  0  0  0
 10 24  1  0  0  0  0
 11 25  1  0  0  0  0
 11 26  1  0  0  0  0
 11 27  1  0  0  0  0
 12 28  1  0  0  0  0
 12 29  1  0  0  0  0
 13 30  1  0  0  0  0
 13 31  1  0  0  0  0
 14 32  1  0  0  0  0
 15 33  1  0  0  0  0
M  END
> <Hybrid2>
-8.899343

$$$$
6-Hydroxymelatonin
  -OEChem-03222023203D

 34 35  0     0  0  0  0  0  0999 V2000
   12.1905    0.6826   23.0285 C   0  0  0  0  0  0  0  0  0  0  0  0
    9.9202   -0.3926   24.3332 C   0  0  0  0  0  0  0  0  0  0  0  0
   10.1842    3.1929   24.7703 C   0  0  0  0  0  0  0  0  0  0  0  0
   11.3219    1.5320   23.7423 C   0  0  0  0  0  0  0  0  0  0  0  0
   11.2933    2.9314   23.9993 C   0  0  0  0  0  0  0  0  0  0  0  0
   10.2091    0.9760   24.3769 C   0  0  0  0  0  0  0  0  0  0  0  0
   11.9140   -0.6885   22.9762 C   0  0  0  0  0  0  0  0  0  0  0  0
   10.7958   -1.2156   23.6192 C   0  0  0  0  0  0  0  0  0  0  0  0
    9.4158    6.0760   23.5606 C   0  0  0  0  0  0  0  0  0  0  0  0
    8.2788    6.2823   22.6157 C   0  0  0  0  0  0  0  0  0  0  0  0
   13.8797   -0.8920   21.6531 C   0  0  0  0  0  0  0  0  0  0  0  0
   12.2721    3.9319   23.5280 C   0  0  0  0  0  0  0  0  0  0  0  0
   11.8027    5.3900   23.6819 C   0  0  0  0  0  0  0  0  0  0  0  0
    9.5368    2.0073   24.9930 N   0  0  0  0  0  0  0  0  0  0  0  0
   10.5873    5.6477   22.9571 N   0  0  0  0  0  0  0  0  0  0  0  0
    9.2538    6.2890   24.7565 O   0  0  0  0  0  0  0  0  0  0  0  0
   10.5390   -2.5548   23.5598 O   0  0  0  0  0  0  0  0  0  0  0  0
   12.7584   -1.5061   22.2833 O   0  0  0  0  0  0  0  0  0  0  0  0
   13.0648    1.0851   22.5243 H   0  0  0  0  0  0  0  0  0  0  0  0
    9.0479   -0.7985   24.8352 H   0  0  0  0  0  0  0  0  0  0  0  0
    9.7959    4.1143   25.1813 H   0  0  0  0  0  0  0  0  0  0  0  0
    7.6726    5.3719   22.4820 H   0  0  0  0  0  0  0  0  0  0  0  0
    7.5738    7.0523   22.9679 H   0  0  0  0  0  0  0  0  0  0  0  0
    8.5626    6.5935   21.5976 H   0  0  0  0  0  0  0  0  0  0  0  0
   14.4700   -1.6528   21.1365 H   0  0  0  0  0  0  0  0  0  0  0  0
   14.4921   -0.3896   22.4061 H   0  0  0  0  0  0  0  0  0  0  0  0
   13.5217   -0.1573   20.9280 H   0  0  0  0  0  0  0  0  0  0  0  0
   12.5046    3.7615   22.4582 H   0  0  0  0  0  0  0  0  0  0  0  0
   13.2463    3.8175   24.0449 H   0  0  0  0  0  0  0  0  0  0  0  0
   11.6013    5.6288   24.7310 H   0  0  0  0  0  0  0  0  0  0  0  0
   12.5617    6.0876   23.3127 H   0  0  0  0  0  0  0  0  0  0  0  0
    8.6881    1.9024   25.5317 H   0  0  0  0  0  0  0  0  0  0  0  0
   10.5878    5.5080   21.9480 H   0  0  0  0  0  0  0  0  0  0  0  0
    9.7313   -2.7608   24.0544 H   0  0  0  0  0  0  0  0  0  0  0  0
  1  4  2  0  0  0  0
  1  7  1  0  0  0  0
  2  6  2  0  0  0  0
  2  8  1  0  0  0  0
  3  5  2  0  0  0  0
  3 14  1  0  0  0  0
  4  5  1  0  0  0  0
  4  6  1  0  0  0  0
  5 12  1  0  0  0  0
  6 14  1  0  0  0  0
  7  8  2  0  0  0  0
  7 18  1  0  0  0  0
  8 17  1  0  0  0  0
  9 10  1  0  0  0  0
  9 15  1  0  0  0  0
  9 16  2  0  0  0  0
 11 18  1  0  0  0  0
 12 13  1  0  0  0  0
 13 15  1  0  0  0  0
  1 19  1  0  0  0  0
  2 20  1  0  0  0  0
  3 21  1  0  0  0  0
 10 22  1  0  0  0  0
 10 23  1  0  0  0  0
 10 24  1  0  0  0  0
 11 25  1  0  0  0  0
 11 26  1  0  0  0  0
 11 27  1  0  0  0  0
 12 28  1  0  0  0  0
 12 29  1  0  0  0  0
 13 30  1  0  0  0  0
 13 31  1  0  0  0  0
 14 32  1  0  0  0  0
 15 33  1  0  0  0  0
 17 34  1  0  0  0  0
M  END
> <Hybrid2>
-8.656936

$$$$
6-Hydroxymelatonin sulfate
  -OEChem-03222023233D

 38 39  0     0  0  0  0  0  0999 V2000
   10.2177    2.8403   24.5796 C   0  0  0  0  0  0  0  0  0  0  0  0
   11.8288    0.8908   23.3084 C   0  0  0  0  0  0  0  0  0  0  0  0
   13.1764    4.2328   22.9463 C   0  0  0  0  0  0  0  0  0  0  0  0
   11.3933    3.2295   23.9073 C   0  0  0  0  0  0  0  0  0  0  0  0
   12.0403    4.4769   23.6829 C   0  0  0  0  0  0  0  0  0  0  0  0
   12.1702    2.2478   23.2885 C   0  0  0  0  0  0  0  0  0  0  0  0
    9.8638    1.4865   24.6078 C   0  0  0  0  0  0  0  0  0  0  0  0
   10.6585    0.5284   23.9813 C   0  0  0  0  0  0  0  0  0  0  0  0
    8.4931    6.2368   22.9840 C   0  0  0  0  0  0  0  0  0  0  0  0
    7.4315    5.4972   22.2396 C   0  0  0  0  0  0  0  0  0  0  0  0
    7.9657    2.1531   25.8760 C   0  0  0  0  0  0  0  0  0  0  0  0
   11.5838    5.8009   24.1521 C   0  0  0  0  0  0  0  0  0  0  0  0
   10.9409    6.6682   23.0545 C   0  0  0  0  0  0  0  0  0  0  0  0
   13.2460    2.8855   22.7131 N   0  0  0  0  0  0  0  0  0  0  0  0
    9.7731    6.0481   22.4881 N   0  0  0  0  0  0  0  0  0  0  0  0
    8.1841    6.9349   23.9427 O   0  0  0  0  0  0  0  0  0  0  0  0
   12.5835   -1.8490   23.8617 O   0  0  0  0  0  0  0  0  0  0  0  0
   10.5289   -3.1438   23.2158 O   0  0  0  0  0  0  0  0  0  0  0  0
   11.3787   -1.3327   21.7382 O   0  0  0  0  0  0  0  0  0  0  0  0
    8.7246    1.1155   25.2604 O   0  0  0  0  0  0  0  0  0  0  0  0
   10.3007   -0.7883   24.0168 O   0  0  0  0  0  0  0  0  0  0  0  0
   11.2601   -1.8910   23.2675 S   0  0  0  0  0  0  0  0  0  0  0  0
    9.5921    3.5808   25.0706 H   0  0  0  0  0  0  0  0  0  0  0  0
   12.4511    0.1482   22.8195 H   0  0  0  0  0  0  0  0  0  0  0  0
   13.9422    4.8945   22.5661 H   0  0  0  0  0  0  0  0  0  0  0  0
    7.2546    4.4898   22.6495 H   0  0  0  0  0  0  0  0  0  0  0  0
    6.4548    6.0053   22.2844 H   0  0  0  0  0  0  0  0  0  0  0  0
    7.6287    5.3429   21.1667 H   0  0  0  0  0  0  0  0  0  0  0  0
    7.0853    1.7234   26.3602 H   0  0  0  0  0  0  0  0  0  0  0  0
    7.6601    2.8802   25.1194 H   0  0  0  0  0  0  0  0  0  0  0  0
    8.5855    2.6496   26.6263 H   0  0  0  0  0  0  0  0  0  0  0  0
   12.4355    6.3679   24.5770 H   0  0  0  0  0  0  0  0  0  0  0  0
   10.8672    5.7056   24.9927 H   0  0  0  0  0  0  0  0  0  0  0  0
   10.6216    7.6354   23.4553 H   0  0  0  0  0  0  0  0  0  0  0  0
   11.6458    6.8532   22.2374 H   0  0  0  0  0  0  0  0  0  0  0  0
   13.9800    2.4242   22.1937 H   0  0  0  0  0  0  0  0  0  0  0  0
    9.8934    5.4386   21.6807 H   0  0  0  0  0  0  0  0  0  0  0  0
   10.5206   -1.1600   21.2843 H   0  0  0  0  0  0  0  0  0  0  0  0
  1  4  2  0  0  0  0
  1  7  1  0  0  0  0
  2  6  2  0  0  0  0
  2  8  1  0  0  0  0
  3  5  2  0  0  0  0
  3 14  1  0  0  0  0
  4  5  1  0  0  0  0
  4  6  1  0  0  0  0
  5 12  1  0  0  0  0
  6 14  1  0  0  0  0
  7  8  2  0  0  0  0
  7 20  1  0  0  0  0
  8 21  1  0  0  0  0
  9 10  1  0  0  0  0
  9 15  1  0  0  0  0
  9 16  2  0  0  0  0
 11 20  1  0  0  0  0
 12 13  1  0  0  0  0
 13 15  1  0  0  0  0
 17 22  2  0  0  0  0
 18 22  2  0  0  0  0
 19 22  1  0  0  0  0
 21 22  1  0  0  0  0
  1 23  1  0  0  0  0
  2 24  1  0  0  0  0
  3 25  1  0  0  0  0
 10 26  1  0  0  0  0
 10 27  1  0  0  0  0
 10 28  1  0  0  0  0
 11 29  1  0  0  0  0
 11 30  1  0  0  0  0
 11 31  1  0  0  0  0
 12 32  1  0  0  0  0
 12 33  1  0  0  0  0
 13 34  1  0  0  0  0
 13 35  1  0  0  0  0
 14 36  1  0  0  0  0
 15 37  1  0  0  0  0
 19 38  1  0  0  0  0
M  END
> <Hybrid2>
-6.434402

$$$$
6-Hydroxymelatonin glucuronide
  -OEChem-03222023243D

 54 56  0     1  0  0  0  0  0999 V2000
   12.4718   -1.9680   22.4891 C   0  0  0  0  0  0  0  0  0  0  0  0
   12.9612   -0.6678   22.3190 C   0  0  0  0  0  0  0  0  0  0  0  0
   10.3984   -3.2941   23.3533 C   0  0  0  0  0  0  0  0  0  0  0  0
   10.9235    0.2777   23.2453 C   0  0  0  0  0  0  0  0  0  0  0  0
    9.2122   -2.8485   23.8893 C   0  0  0  0  0  0  0  0  0  0  0  0
   11.1902   -2.1527   23.0450 C   0  0  0  0  0  0  0  0  0  0  0  0
   10.4472   -1.0279   23.4095 C   0  0  0  0  0  0  0  0  0  0  0  0
   12.1973    0.4363   22.6920 C   0  0  0  0  0  0  0  0  0  0  0  0
    9.3593    3.6883   24.3820 C   0  0  0  0  0  0  0  0  0  0  0  0
    7.5322    6.7922   22.2576 C   0  0  0  0  0  0  0  0  0  0  0  0
   12.6317    4.0837   22.6405 C   0  0  2  0  0  0  0  0  0  0  0  0
   11.4657    5.0716   24.6418 C   0  0  0  0  0  0  0  0  0  0  0  0
   11.8663    2.7851   22.9177 C   0  0  2  0  0  0  0  0  0  0  0  0
   10.7869    3.7092   24.8530 C   0  0  2  0  0  0  0  0  0  0  0  0
   11.8754    5.3175   23.1736 C   0  0  2  0  0  0  0  0  0  0  0  0
    6.4990    7.2932   21.3037 C   0  0  0  0  0  0  0  0  0  0  0  0
   10.4250    2.1457   26.5864 C   0  0  0  0  0  0  0  0  0  0  0  0
   10.6739    5.7042   22.3001 C   0  0  0  0  0  0  0  0  0  0  0  0
    9.9486    6.9311   22.8268 C   0  0  0  0  0  0  0  0  0  0  0  0
    9.2509   -1.4803   23.9189 N   0  0  0  0  0  0  0  0  0  0  0  0
    8.8084    7.2828   22.0267 N   0  0  0  0  0  0  0  0  0  0  0  0
    8.9164    2.9473   23.5171 O   0  0  0  0  0  0  0  0  0  0  0  0
    7.2068    6.0149   23.1472 O   0  0  0  0  0  0  0  0  0  0  0  0
   11.5572    2.6548   24.3040 O   0  0  0  0  0  0  0  0  0  0  0  0
    8.6219    4.6104   25.0479 O   0  0  0  0  0  0  0  0  0  0  0  0
   12.8848    4.2099   21.2414 O   0  0  0  0  0  0  0  0  0  0  0  0
   12.6531    5.0688   25.4528 O   0  0  0  0  0  0  0  0  0  0  0  0
   12.7469    6.4563   23.1224 O   0  0  0  0  0  0  0  0  0  0  0  0
   12.7007    1.6975   22.5144 O   0  0  0  0  0  0  0  0  0  0  0  0
   10.6341    3.5151   26.2654 O   0  0  0  0  0  0  0  0  0  0  0  0
   13.0778   -2.8198   22.1940 H   0  0  0  0  0  0  0  0  0  0  0  0
   13.9502   -0.5261   21.8900 H   0  0  0  0  0  0  0  0  0  0  0  0
   10.6666   -4.3305   23.2002 H   0  0  0  0  0  0  0  0  0  0  0  0
   10.3251    1.1348   23.5372 H   0  0  0  0  0  0  0  0  0  0  0  0
    8.3452   -3.3827   24.2516 H   0  0  0  0  0  0  0  0  0  0  0  0
   13.6151    4.0200   23.1582 H   0  0  0  0  0  0  0  0  0  0  0  0
   10.8292    5.8630   24.9899 H   0  0  0  0  0  0  0  0  0  0  0  0
   10.9637    2.7496   22.3646 H   0  0  0  0  0  0  0  0  0  0  0  0
    6.3982    6.6483   20.4161 H   0  0  0  0  0  0  0  0  0  0  0  0
    5.4937    7.3289   21.7534 H   0  0  0  0  0  0  0  0  0  0  0  0
    6.6750    8.3061   20.9075 H   0  0  0  0  0  0  0  0  0  0  0  0
   10.3133    2.0371   27.6680 H   0  0  0  0  0  0  0  0  0  0  0  0
   11.2749    1.5546   26.2360 H   0  0  0  0  0  0  0  0  0  0  0  0
    9.5144    1.7997   26.0918 H   0  0  0  0  0  0  0  0  0  0  0  0
    9.9844    4.8571   22.2788 H   0  0  0  0  0  0  0  0  0  0  0  0
   11.0254    5.8735   21.2795 H   0  0  0  0  0  0  0  0  0  0  0  0
    9.5808    6.7338   23.8387 H   0  0  0  0  0  0  0  0  0  0  0  0
   10.6104    7.8019   22.8686 H   0  0  0  0  0  0  0  0  0  0  0  0
    8.5091   -0.8874   24.2648 H   0  0  0  0  0  0  0  0  0  0  0  0
    8.9447    7.9270   21.2483 H   0  0  0  0  0  0  0  0  0  0  0  0
    9.1590    5.1055   25.7027 H   0  0  0  0  0  0  0  0  0  0  0  0
   13.4138    3.4385   20.9879 H   0  0  0  0  0  0  0  0  0  0  0  0
   12.3609    4.9426   26.3686 H   0  0  0  0  0  0  0  0  0  0  0  0
   13.5058    6.2391   23.6821 H   0  0  0  0  0  0  0  0  0  0  0  0
  1  2  2  0  0  0  0
  1  6  1  0  0  0  0
  2  8  1  0  0  0  0
  3  5  2  0  0  0  0
  3  6  1  0  0  0  0
  4  7  1  0  0  0  0
  4  8  2  0  0  0  0
  5 20  1  0  0  0  0
  6  7  2  0  0  0  0
  7 20  1  0  0  0  0
  8 29  1  0  0  0  0
  9 14  1  0  0  0  0
  9 22  2  0  0  0  0
  9 25  1  0  0  0  0
 10 16  1  0  0  0  0
 10 21  1  0  0  0  0
 10 23  2  0  0  0  0
 11 13  1  0  0  0  0
 11 15  1  0  0  0  0
 11 26  1  0  0  0  0
 12 14  1  0  0  0  0
 12 15  1  0  0  0  0
 12 27  1  0  0  0  0
 13 24  1  0  0  0  0
 13 29  1  0  0  0  0
 14 24  1  0  0  0  0
 14 30  1  0  0  0  0
 15 18  1  0  0  0  0
 15 28  1  0  0  0  0
 17 30  1  0  0  0  0
 18 19  1  0  0  0  0
 19 21  1  0  0  0  0
  1 31  1  0  0  0  0
  2 32  1  0  0  0  0
  3 33  1  0  0  0  0
  4 34  1  0  0  0  0
  5 35  1  0  0  0  0
 11 36  1  0  0  0  0
 12 37  1  0  0  0  0
 13 38  1  0  0  0  0
 16 39  1  0  0  0  0
 16 40  1  0  0  0  0
 16 41  1  0  0  0  0
 17 42  1  0  0  0  0
 17 43  1  0  0  0  0
 17 44  1  0  0  0  0
 18 45  1  0  0  0  0
 18 46  1  0  0  0  0
 19 47  1  0  0  0  0
 19 48  1  0  0  0  0
 20 49  1  0  0  0  0
 21 50  1  0  0  0  0
 25 51  1  0  0  0  0
 26 52  1  0  0  0  0
 27 53  1  0  0  0  0
 28 54  1  0  0  0  0
M  END
> <Hybrid2>
-3.030841

$$$$
N-Acetyl-5-hydroxytryptamine sulfate
  -OEChem-03222023243D

 33 34  0     0  0  0  0  0  0999 V2000
   12.9965    3.9156   22.3562 C   0  0  0  0  0  0  0  0  0  0  0  0
   12.2934    5.0535   22.7621 C   0  0  0  0  0  0  0  0  0  0  0  0
   10.8163    3.7163   24.1504 C   0  0  0  0  0  0  0  0  0  0  0  0
   12.3573    0.4964   23.3644 C   0  0  0  0  0  0  0  0  0  0  0  0
   11.5100    2.5552   23.7553 C   0  0  0  0  0  0  0  0  0  0  0  0
   11.3801    1.1711   24.0592 C   0  0  0  0  0  0  0  0  0  0  0  0
   12.5819    2.6814   22.8691 C   0  0  0  0  0  0  0  0  0  0  0  0
   11.2198    4.9577   23.6453 C   0  0  0  0  0  0  0  0  0  0  0  0
   10.7711   -1.6296   22.4740 C   0  0  0  0  0  0  0  0  0  0  0  0
   11.5321   -2.8719   22.1488 C   0  0  0  0  0  0  0  0  0  0  0  0
   10.3814    0.5581   24.9578 C   0  0  0  0  0  0  0  0  0  0  0  0
    9.4890   -0.4965   24.2782 C   0  0  0  0  0  0  0  0  0  0  0  0
   13.0772    1.4158   22.6497 N   0  0  0  0  0  0  0  0  0  0  0  0
   10.2527   -1.5992   23.7587 N   0  0  0  0  0  0  0  0  0  0  0  0
    8.7302    7.6804   24.3445 O   0  5  0  0  0  0  0  0  0  0  0  0
   10.6570   -0.7517   21.6267 O   0  0  0  0  0  0  0  0  0  0  0  0
    8.2717    5.2786   24.4820 O   0  0  0  0  0  0  0  0  0  0  0  0
    8.7996    6.3192   22.3099 O   0  0  0  0  0  0  0  0  0  0  0  0
   10.5540    6.0852   24.0236 O   0  0  0  0  0  0  0  0  0  0  0  0
    8.9518    6.3560   23.7640 S   0  0  0  0  0  0  0  0  0  0  0  0
   13.8319    3.9913   21.6681 H   0  0  0  0  0  0  0  0  0  0  0  0
   12.5941    6.0253   22.3774 H   0  0  0  0  0  0  0  0  0  0  0  0
    9.9782    3.6517   24.8391 H   0  0  0  0  0  0  0  0  0  0  0  0
   12.6057   -0.5547   23.3135 H   0  0  0  0  0  0  0  0  0  0  0  0
   10.8898   -3.6588   21.7217 H   0  0  0  0  0  0  0  0  0  0  0  0
   12.3188   -2.6985   21.3970 H   0  0  0  0  0  0  0  0  0  0  0  0
   12.0450   -3.3470   23.0003 H   0  0  0  0  0  0  0  0  0  0  0  0
    9.7200    1.3399   25.3810 H   0  0  0  0  0  0  0  0  0  0  0  0
   10.8646    0.0955   25.8421 H   0  0  0  0  0  0  0  0  0  0  0  0
    8.7691   -0.9174   24.9872 H   0  0  0  0  0  0  0  0  0  0  0  0
    8.9308   -0.0592   23.4439 H   0  0  0  0  0  0  0  0  0  0  0  0
   13.8589    1.1979   22.0473 H   0  0  0  0  0  0  0  0  0  0  0  0
   10.4210   -2.3992   24.3666 H   0  0  0  0  0  0  0  0  0  0  0  0
  1  2  2  0  0  0  0
  1  7  1  0  0  0  0
  2  8  1  0  0  0  0
  3  5  1  0  0  0  0
  3  8  2  0  0  0  0
  4  6  2  0  0  0  0
  4 13  1  0  0  0  0
  5  6  1  0  0  0  0
  5  7  2  0  0  0  0
  6 11  1  0  0  0  0
  7 13  1  0  0  0  0
  8 19  1  0  0  0  0
  9 10  1  0  0  0  0
  9 14  1  0  0  0  0
  9 16  2  0  0  0  0
 11 12  1  0  0  0  0
 12 14  1  0  0  0  0
 15 20  1  0  0  0  0
 17 20  2  0  0  0  0
 18 20  2  0  0  0  0
 19 20  1  0  0  0  0
  1 21  1  0  0  0  0
  2 22  1  0  0  0  0
  3 23  1  0  0  0  0
  4 24  1  0  0  0  0
 10 25  1  0  0  0  0
 10 26  1  0  0  0  0
 10 27  1  0  0  0  0
 11 28  1  0  0  0  0
 11 29  1  0  0  0  0
 12 30  1  0  0  0  0
 12 31  1  0  0  0  0
 13 32  1  0  0  0  0
 14 33  1  0  0  0  0
M  CHG  1  15  -1
M  END
> <Hybrid2>
-4.916397

$$$$
N-Acetyl-5-hydroxytryptamine glucuronide
  -OEChem-03222023283D

 49 51  0     1  0  0  0  0  0999 V2000
   13.6997    3.8275   22.6342 C   0  0  0  0  0  0  0  0  0  0  0  0
   12.9920    2.6445   22.4025 C   0  0  0  0  0  0  0  0  0  0  0  0
   11.0067    3.5564   23.4627 C   0  0  0  0  0  0  0  0  0  0  0  0
   12.4612    6.8106   24.2723 C   0  0  0  0  0  0  0  0  0  0  0  0
   11.6998    4.7586   23.7073 C   0  0  0  0  0  0  0  0  0  0  0  0
   11.3560    5.9929   24.3262 C   0  0  0  0  0  0  0  0  0  0  0  0
   13.0277    4.8661   23.2883 C   0  0  0  0  0  0  0  0  0  0  0  0
   11.6662    2.5089   22.8094 C   0  0  0  0  0  0  0  0  0  0  0  0
    8.9987    0.9809   24.9045 C   0  0  0  0  0  0  0  0  0  0  0  0
    8.1754    5.5106   22.6317 C   0  0  0  0  0  0  0  0  0  0  0  0
    9.6986   -0.3355   24.6236 C   0  0  1  0  0  0  0  0  0  0  0  0
    9.0699   -1.0425   23.4246 C   0  0  1  0  0  0  0  0  0  0  0  0
   10.1031   -1.9036   22.7089 C   0  0  2  0  0  0  0  0  0  0  0  0
   11.3081   -1.0696   22.2627 C   0  0  1  0  0  0  0  0  0  0  0  0
   11.5489    0.1587   23.1507 C   0  0  2  0  0  0  0  0  0  0  0  0
    7.9603    5.0906   21.2155 C   0  0  0  0  0  0  0  0  0  0  0  0
   10.0511    6.3446   24.9215 C   0  0  0  0  0  0  0  0  0  0  0  0
    9.1950    7.2808   24.0491 C   0  0  0  0  0  0  0  0  0  0  0  0
   13.4643    6.1223   23.6442 N   0  0  0  0  0  0  0  0  0  0  0  0
    8.8797    6.6954   22.7737 N   0  0  0  0  0  0  0  0  0  0  0  0
    7.7789    1.0223   24.5826 O   0  5  0  0  0  0  0  0  0  0  0  0
    9.7299    1.8688   25.4262 O   0  0  0  0  0  0  0  0  0  0  0  0
    7.7360    4.8165   23.5411 O   0  0  0  0  0  0  0  0  0  0  0  0
   11.0915   -0.0543   24.4862 O   0  0  0  0  0  0  0  0  0  0  0  0
    7.9890   -1.8589   23.8802 O   0  0  0  0  0  0  0  0  0  0  0  0
    9.4964   -2.4951   21.5591 O   0  0  0  0  0  0  0  0  0  0  0  0
   12.4488   -1.9314   22.3321 O   0  0  0  0  0  0  0  0  0  0  0  0
   10.9994    1.3391   22.5678 O   0  0  0  0  0  0  0  0  0  0  0  0
   14.7321    3.9317   22.3174 H   0  0  0  0  0  0  0  0  0  0  0  0
   13.4911    1.8210   21.8970 H   0  0  0  0  0  0  0  0  0  0  0  0
    9.9725    3.4415   23.7758 H   0  0  0  0  0  0  0  0  0  0  0  0
   12.6249    7.8198   24.6239 H   0  0  0  0  0  0  0  0  0  0  0  0
    9.5652   -0.9674   25.5697 H   0  0  0  0  0  0  0  0  0  0  0  0
    8.6465   -0.3055   22.7198 H   0  0  0  0  0  0  0  0  0  0  0  0
   10.4259   -2.7333   23.3503 H   0  0  0  0  0  0  0  0  0  0  0  0
   11.1973   -0.7827   21.2110 H   0  0  0  0  0  0  0  0  0  0  0  0
   12.6754    0.3457   23.2062 H   0  0  0  0  0  0  0  0  0  0  0  0
    8.7739    4.4501   20.8387 H   0  0  0  0  0  0  0  0  0  0  0  0
    7.0403    4.4979   21.0878 H   0  0  0  0  0  0  0  0  0  0  0  0
    7.8783    5.9133   20.4872 H   0  0  0  0  0  0  0  0  0  0  0  0
   10.2011    6.8380   25.9022 H   0  0  0  0  0  0  0  0  0  0  0  0
    9.4571    5.4380   25.1555 H   0  0  0  0  0  0  0  0  0  0  0  0
    8.2416    7.5086   24.5363 H   0  0  0  0  0  0  0  0  0  0  0  0
    9.7157    8.2252   23.8594 H   0  0  0  0  0  0  0  0  0  0  0  0
   14.3917    6.4830   23.4676 H   0  0  0  0  0  0  0  0  0  0  0  0
    9.1901    7.1768   21.9312 H   0  0  0  0  0  0  0  0  0  0  0  0
    7.3554   -1.2623   24.3067 H   0  0  0  0  0  0  0  0  0  0  0  0
    8.7581   -3.0307   21.8853 H   0  0  0  0  0  0  0  0  0  0  0  0
   12.5217   -2.2170   23.2555 H   0  0  0  0  0  0  0  0  0  0  0  0
  1  2  2  0  0  0  0
  1  7  1  0  0  0  0
  2  8  1  0  0  0  0
  3  5  1  0  0  0  0
  3  8  2  0  0  0  0
  4  6  2  0  0  0  0
  4 19  1  0  0  0  0
  5  6  1  0  0  0  0
  5  7  2  0  0  0  0
  6 17  1  0  0  0  0
  7 19  1  0  0  0  0
  8 28  1  0  0  0  0
  9 11  1  0  0  0  0
  9 21  1  0  0  0  0
  9 22  2  0  0  0  0
 10 16  1  0  0  0  0
 10 20  1  0  0  0  0
 10 23  2  0  0  0  0
 11 12  1  0  0  0  0
 11 24  1  0  0  0  0
 12 13  1  0  0  0  0
 12 25  1  0  0  0  0
 13 14  1  0  0  0  0
 13 26  1  0  0  0  0
 14 15  1  0  0  0  0
 14 27  1  0  0  0  0
 15 24  1  0  0  0  0
 15 28  1  0  0  0  0
 17 18  1  0  0  0  0
 18 20  1  0  0  0  0
  1 29  1  0  0  0  0
  2 30  1  0  0  0  0
  3 31  1  0  0  0  0
  4 32  1  0  0  0  0
 11 33  1  0  0  0  0
 12 34  1  0  0  0  0
 13 35  1  0  0  0  0
 14 36  1  0  0  0  0
 15 37  1  0  0  0  0
 16 38  1  0  0  0  0
 16 39  1  0  0  0  0
 16 40  1  0  0  0  0
 17 41  1  0  0  0  0
 17 42  1  0  0  0  0
 18 43  1  0  0  0  0
 18 44  1  0  0  0  0
 19 45  1  0  0  0  0
 20 46  1  0  0  0  0
 25 47  1  0  0  0  0
 26 48  1  0  0  0  0
 27 49  1  0  0  0  0
M  CHG  1  21  -1
M  END
> <Hybrid2>
-5.176241

$$$$
5-Methoxytryptamine
  -OEChem-03222023283D

 28 29  0     0  0  0  0  0  0999 V2000
   13.1693    3.9053   22.3301 C   0  0  0  0  0  0  0  0  0  0  0  0
   12.0715    4.6433   22.7819 C   0  0  0  0  0  0  0  0  0  0  0  0
   11.0255    2.6454   23.6825 C   0  0  0  0  0  0  0  0  0  0  0  0
   13.6770    0.3367   22.6822 C   0  0  0  0  0  0  0  0  0  0  0  0
   12.1216    1.8806   23.2362 C   0  0  0  0  0  0  0  0  0  0  0  0
   12.4578    0.4993   23.2987 C   0  0  0  0  0  0  0  0  0  0  0  0
   13.1661    2.5269   22.5716 C   0  0  0  0  0  0  0  0  0  0  0  0
   11.0151    4.0251   23.4479 C   0  0  0  0  0  0  0  0  0  0  0  0
   10.0039    6.1715   23.6109 C   0  0  0  0  0  0  0  0  0  0  0  0
   11.6519   -0.5749   23.9131 C   0  0  0  0  0  0  0  0  0  0  0  0
   11.2654   -1.7041   22.9407 C   0  0  0  0  0  0  0  0  0  0  0  0
   14.0963    1.5653   22.2471 N   0  0  0  0  0  0  0  0  0  0  0  0
   10.4693   -2.7190   23.5773 N   0  0  0  0  0  0  0  0  0  0  0  0
    9.9586    4.7714   23.8775 O   0  0  0  0  0  0  0  0  0  0  0  0
   13.9910    4.3876   21.8112 H   0  0  0  0  0  0  0  0  0  0  0  0
   12.0482    5.7164   22.6062 H   0  0  0  0  0  0  0  0  0  0  0  0
   10.1973    2.1723   24.2033 H   0  0  0  0  0  0  0  0  0  0  0  0
   14.2842   -0.5417   22.5134 H   0  0  0  0  0  0  0  0  0  0  0  0
    9.1028    6.6476   24.0051 H   0  0  0  0  0  0  0  0  0  0  0  0
   10.0738    6.3359   22.5327 H   0  0  0  0  0  0  0  0  0  0  0  0
   10.8826    6.5983   24.1003 H   0  0  0  0  0  0  0  0  0  0  0  0
   10.7169   -0.1553   24.3343 H   0  0  0  0  0  0  0  0  0  0  0  0
   12.1724   -1.0214   24.7845 H   0  0  0  0  0  0  0  0  0  0  0  0
   10.6739   -1.3172   22.1049 H   0  0  0  0  0  0  0  0  0  0  0  0
   12.1564   -2.1916   22.5315 H   0  0  0  0  0  0  0  0  0  0  0  0
   14.9628    1.7417   21.7578 H   0  0  0  0  0  0  0  0  0  0  0  0
    9.6146   -2.3157   23.9030 H   0  0  0  0  0  0  0  0  0  0  0  0
   10.2674   -3.4440   22.9194 H   0  0  0  0  0  0  0  0  0  0  0  0
  1  2  2  0  0  0  0
  1  7  1  0  0  0  0
  2  8  1  0  0  0  0
  3  5  1  0  0  0  0
  3  8  2  0  0  0  0
  4  6  2  0  0  0  0
  4 12  1  0  0  0  0
  5  6  1  0  0  0  0
  5  7  2  0  0  0  0
  6 10  1  0  0  0  0
  7 12  1  0  0  0  0
  8 14  1  0  0  0  0
  9 14  1  0  0  0  0
 10 11  1  0  0  0  0
 11 13  1  0  0  0  0
  1 15  1  0  0  0  0
  2 16  1  0  0  0  0
  3 17  1  0  0  0  0
  4 18  1  0  0  0  0
  9 19  1  0  0  0  0
  9 20  1  0  0  0  0
  9 21  1  0  0  0  0
 10 22  1  0  0  0  0
 10 23  1  0  0  0  0
 11 24  1  0  0  0  0
 11 25  1  0  0  0  0
 12 26  1  0  0  0  0
 13 27  1  0  0  0  0
 13 28  1  0  0  0  0
M  END
> <Hybrid2>
-6.808312

$$$$
Pinolene
  -OEChem-03222023283D

 29 31  0     0  0  0  0  0  0999 V2000
   13.8799   -0.5136   22.0520 C   0  0  0  0  0  0  0  0  0  0  0  0
   12.9931   -1.5612   22.3162 C   0  0  0  0  0  0  0  0  0  0  0  0
   11.2749   -0.0035   23.0353 C   0  0  0  0  0  0  0  0  0  0  0  0
   12.1505    1.0704   22.7782 C   0  0  0  0  0  0  0  0  0  0  0  0
   12.0544    2.4828   22.8959 C   0  0  0  0  0  0  0  0  0  0  0  0
   13.4333    0.7912   22.2908 C   0  0  0  0  0  0  0  0  0  0  0  0
   11.7104   -1.3124   22.7998 C   0  0  0  0  0  0  0  0  0  0  0  0
   13.2542    3.0168   22.4797 C   0  0  0  0  0  0  0  0  0  0  0  0
   10.9392    3.3642   23.3400 C   0  0  0  0  0  0  0  0  0  0  0  0
   13.5903    4.4637   22.4617 C   0  0  0  0  0  0  0  0  0  0  0  0
   11.4555    4.7949   23.6169 C   0  0  0  0  0  0  0  0  0  0  0  0
    9.5689   -2.0344   23.5404 C   0  0  0  0  0  0  0  0  0  0  0  0
   14.0842    1.9961   22.1201 N   0  0  0  0  0  0  0  0  0  0  0  0
   12.3603    5.2765   22.5555 N   0  0  0  0  0  0  0  0  0  0  0  0
   10.8677   -2.3548   23.0467 O   0  0  0  0  0  0  0  0  0  0  0  0
   14.8780   -0.7090   21.6750 H   0  0  0  0  0  0  0  0  0  0  0  0
   13.3164   -2.5841   22.1375 H   0  0  0  0  0  0  0  0  0  0  0  0
   10.2727    0.1815   23.4127 H   0  0  0  0  0  0  0  0  0  0  0  0
   10.1786    3.3960   22.5504 H   0  0  0  0  0  0  0  0  0  0  0  0
   10.4673    2.9624   24.2434 H   0  0  0  0  0  0  0  0  0  0  0  0
   14.2531    4.6990   23.3027 H   0  0  0  0  0  0  0  0  0  0  0  0
   14.1148    4.7243   21.5364 H   0  0  0  0  0  0  0  0  0  0  0  0
   10.5983    5.4729   23.6926 H   0  0  0  0  0  0  0  0  0  0  0  0
   11.9753    4.8280   24.5829 H   0  0  0  0  0  0  0  0  0  0  0  0
    8.9997   -2.9543   23.6945 H   0  0  0  0  0  0  0  0  0  0  0  0
    9.0540   -1.3905   22.8229 H   0  0  0  0  0  0  0  0  0  0  0  0
    9.6704   -1.5076   24.4922 H   0  0  0  0  0  0  0  0  0  0  0  0
   15.0313    2.1002   21.7822 H   0  0  0  0  0  0  0  0  0  0  0  0
   12.6168    6.2456   22.7418 H   0  0  0  0  0  0  0  0  0  0  0  0
  1  2  2  0  0  0  0
  1  6  1  0  0  0  0
  2  7  1  0  0  0  0
  3  4  1  0  0  0  0
  3  7  2  0  0  0  0
  4  5  1  0  0  0  0
  4  6  2  0  0  0  0
  5  8  2  0  0  0  0
  5  9  1  0  0  0  0
  6 13  1  0  0  0  0
  7 15  1  0  0  0  0
  8 10  1  0  0  0  0
  8 13  1  0  0  0  0
  9 11  1  0  0  0  0
 10 14  1  0  0  0  0
 11 14  1  0  0  0  0
 12 15  1  0  0  0  0
  1 16  1  0  0  0  0
  2 17  1  0  0  0  0
  3 18  1  0  0  0  0
  9 19  1  0  0  0  0
  9 20  1  0  0  0  0
 10 21  1  0  0  0  0
 10 22  1  0  0  0  0
 11 23  1  0  0  0  0
 11 24  1  0  0  0  0
 12 25  1  0  0  0  0
 12 26  1  0  0  0  0
 12 27  1  0  0  0  0
 13 28  1  0  0  0  0
 14 29  1  0  0  0  0
M  END
> <Hybrid2>
-7.252102

$$$$
Bufotenine
  -OEChem-03222023283D

 31 32  0     0  0  0  0  0  0999 V2000
   10.5642   -1.0092   23.5140 C   0  0  0  0  0  0  0  0  0  0  0  0
   11.4888   -1.6688   22.6992 C   0  0  0  0  0  0  0  0  0  0  0  0
   12.8522    0.3333   22.5265 C   0  0  0  0  0  0  0  0  0  0  0  0
   10.7124    2.4389   24.6118 C   0  0  0  0  0  0  0  0  0  0  0  0
   11.9339    1.0191   23.3463 C   0  0  0  0  0  0  0  0  0  0  0  0
   11.8569    2.3462   23.8540 C   0  0  0  0  0  0  0  0  0  0  0  0
   10.8134    0.3334   23.8201 C   0  0  0  0  0  0  0  0  0  0  0  0
   12.6159   -1.0099   22.2120 C   0  0  0  0  0  0  0  0  0  0  0  0
   10.2768    6.1033   22.9476 C   0  0  0  0  0  0  0  0  0  0  0  0
   11.7427    6.0840   24.8511 C   0  0  0  0  0  0  0  0  0  0  0  0
   12.8255    3.4356   23.6177 C   0  0  0  0  0  0  0  0  0  0  0  0
   12.2160    4.6850   22.9560 C   0  0  0  0  0  0  0  0  0  0  0  0
   10.0898    1.2198   24.5856 N   0  0  0  0  0  0  0  0  0  0  0  0
   11.1791    5.2733   23.7606 N   0  0  0  0  0  0  0  0  0  0  0  0
   13.5002   -1.6799   21.4203 O   0  0  0  0  0  0  0  0  0  0  0  0
    9.6869   -1.5231   23.8924 H   0  0  0  0  0  0  0  0  0  0  0  0
   11.3186   -2.7125   22.4449 H   0  0  0  0  0  0  0  0  0  0  0  0
   13.7342    0.8386   22.1423 H   0  0  0  0  0  0  0  0  0  0  0  0
   10.2843    3.2617   25.1673 H   0  0  0  0  0  0  0  0  0  0  0  0
    9.8553    5.4971   22.1322 H   0  0  0  0  0  0  0  0  0  0  0  0
    9.4614    6.4854   23.5794 H   0  0  0  0  0  0  0  0  0  0  0  0
   10.8388    6.9483   22.5234 H   0  0  0  0  0  0  0  0  0  0  0  0
   12.4174    5.4634   25.4590 H   0  0  0  0  0  0  0  0  0  0  0  0
   12.3047    6.9291   24.4268 H   0  0  0  0  0  0  0  0  0  0  0  0
   10.9273    6.4661   25.4829 H   0  0  0  0  0  0  0  0  0  0  0  0
   13.6504    3.0773   22.9704 H   0  0  0  0  0  0  0  0  0  0  0  0
   13.3252    3.7422   24.5589 H   0  0  0  0  0  0  0  0  0  0  0  0
   12.9752    5.4588   22.8043 H   0  0  0  0  0  0  0  0  0  0  0  0
   11.7794    4.4396   21.9822 H   0  0  0  0  0  0  0  0  0  0  0  0
    9.2239    1.0014   25.0589 H   0  0  0  0  0  0  0  0  0  0  0  0
   14.2279   -1.0935   21.1612 H   0  0  0  0  0  0  0  0  0  0  0  0
  1  2  2  0  0  0  0
  1  7  1  0  0  0  0
  2  8  1  0  0  0  0
  3  5  1  0  0  0  0
  3  8  2  0  0  0  0
  4  6  2  0  0  0  0
  4 13  1  0  0  0  0
  5  6  1  0  0  0  0
  5  7  2  0  0  0  0
  6 11  1  0  0  0  0
  7 13  1  0  0  0  0
  8 15  1  0  0  0  0
  9 14  1  0  0  0  0
 10 14  1  0  0  0  0
 11 12  1  0  0  0  0
 12 14  1  0  0  0  0
  1 16  1  0  0  0  0
  2 17  1  0  0  0  0
  3 18  1  0  0  0  0
  4 19  1  0  0  0  0
  9 20  1  0  0  0  0
  9 21  1  0  0  0  0
  9 22  1  0  0  0  0
 10 23  1  0  0  0  0
 10 24  1  0  0  0  0
 10 25  1  0  0  0  0
 11 26  1  0  0  0  0
 11 27  1  0  0  0  0
 12 28  1  0  0  0  0
 12 29  1  0  0  0  0
 13 30  1  0  0  0  0
 15 31  1  0  0  0  0
M  END
> <Hybrid2>
-7.790452

$$$$
N
  -OEChem-03222023283D

 30 31  0     0  0  0  0  0  0999 V2000
   13.3009   -0.4309   22.0464 C   0  0  0  0  0  0  0  0  0  0  0  0
   12.2727   -1.3334   22.3114 C   0  0  0  0  0  0  0  0  0  0  0  0
   13.2295    0.8904   22.5025 C   0  0  0  0  0  0  0  0  0  0  0  0
   11.1434   -0.9462   23.0385 C   0  0  0  0  0  0  0  0  0  0  0  0
   10.4781    2.3304   24.4304 C   0  0  0  0  0  0  0  0  0  0  0  0
   12.1006    1.3037   23.2375 C   0  0  0  0  0  0  0  0  0  0  0  0
   11.7036    2.5311   23.8382 C   0  0  0  0  0  0  0  0  0  0  0  0
   11.0857    0.3777   23.4881 C   0  0  0  0  0  0  0  0  0  0  0  0
    9.5413    6.0095   23.0262 C   0  0  0  0  0  0  0  0  0  0  0  0
   10.7347    6.0552   25.1110 C   0  0  0  0  0  0  0  0  0  0  0  0
   12.4612    3.7991   23.8321 C   0  0  0  0  0  0  0  0  0  0  0  0
   11.7050    4.9788   23.1946 C   0  0  0  0  0  0  0  0  0  0  0  0
   10.1138    1.0285   24.2141 N   0  0  0  0  0  0  0  0  0  0  0  0
   10.4810    5.2768   23.8888 N   0  0  0  0  0  0  0  0  0  0  0  0
   14.1692   -0.7556   21.4794 H   0  0  0  0  0  0  0  0  0  0  0  0
   12.3489   -2.3548   21.9475 H   0  0  0  0  0  0  0  0  0  0  0  0
   14.0397    1.5816   22.2884 H   0  0  0  0  0  0  0  0  0  0  0  0
   10.3431   -1.6492   23.2434 H   0  0  0  0  0  0  0  0  0  0  0  0
    9.8329    2.9956   24.9876 H   0  0  0  0  0  0  0  0  0  0  0  0
    9.3516    5.4274   22.1123 H   0  0  0  0  0  0  0  0  0  0  0  0
    8.5948    6.1653   23.5646 H   0  0  0  0  0  0  0  0  0  0  0  0
    9.9746    6.9840   22.7568 H   0  0  0  0  0  0  0  0  0  0  0  0
   11.4374    5.5074   25.7560 H   0  0  0  0  0  0  0  0  0  0  0  0
   11.1679    7.0297   24.8415 H   0  0  0  0  0  0  0  0  0  0  0  0
    9.7881    6.2110   25.6493 H   0  0  0  0  0  0  0  0  0  0  0  0
   13.4141    3.6697   23.2818 H   0  0  0  0  0  0  0  0  0  0  0  0
   12.7700    4.0890   24.8567 H   0  0  0  0  0  0  0  0  0  0  0  0
   12.3103    5.8906   23.2164 H   0  0  0  0  0  0  0  0  0  0  0  0
   11.4494    4.7635   22.1519 H   0  0  0  0  0  0  0  0  0  0  0  0
    9.2556    0.6056   24.5399 H   0  0  0  0  0  0  0  0  0  0  0  0
  1  2  2  0  0  0  0
  1  3  1  0  0  0  0
  2  4  1  0  0  0  0
  3  6  2  0  0  0  0
  4  8  2  0  0  0  0
  5  7  2  0  0  0  0
  5 13  1  0  0  0  0
  6  7  1  0  0  0  0
  6  8  1  0  0  0  0
  7 11  1  0  0  0  0
  8 13  1  0  0  0  0
  9 14  1  0  0  0  0
 10 14  1  0  0  0  0
 11 12  1  0  0  0  0
 12 14  1  0  0  0  0
  1 15  1  0  0  0  0
  2 16  1  0  0  0  0
  3 17  1  0  0  0  0
  4 18  1  0  0  0  0
  5 19  1  0  0  0  0
  9 20  1  0  0  0  0
  9 21  1  0  0  0  0
  9 22  1  0  0  0  0
 10 23  1  0  0  0  0
 10 24  1  0  0  0  0
 10 25  1  0  0  0  0
 11 26  1  0  0  0  0
 11 27  1  0  0  0  0
 12 28  1  0  0  0  0
 12 29  1  0  0  0  0
 13 30  1  0  0  0  0
M  END
> <Hybrid2>
-7.277065

$$$$
2-oxomelatonin
  -OEChem-03222023283D

 34 35  0     1  0  0  0  0  0999 V2000
   12.8316   -0.0055   22.7872 C   0  0  0  0  0  0  0  0  0  0  0  0
   11.7397   -0.8178   23.0976 C   0  0  0  0  0  0  0  0  0  0  0  0
   10.3117    1.1338   23.4267 C   0  0  0  0  0  0  0  0  0  0  0  0
   11.3984    1.9327   23.1224 C   0  0  0  0  0  0  0  0  0  0  0  0
   12.6285    1.3598   22.8069 C   0  0  0  0  0  0  0  0  0  0  0  0
   10.4902   -0.2533   23.4143 C   0  0  0  0  0  0  0  0  0  0  0  0
   12.9883    3.6295   22.6657 C   0  0  0  0  0  0  0  0  0  0  0  0
    9.0722    6.5887   23.5842 C   0  0  0  0  0  0  0  0  0  0  0  0
   11.5074    3.4288   23.0430 C   0  0  2  0  0  0  0  0  0  0  0  0
    8.3018    7.1245   22.4233 C   0  0  0  0  0  0  0  0  0  0  0  0
    9.6844   -2.4750   23.6801 C   0  0  0  0  0  0  0  0  0  0  0  0
   11.1787    4.1314   24.3492 C   0  0  0  0  0  0  0  0  0  0  0  0
   11.2774    5.6497   24.2458 C   0  0  0  0  0  0  0  0  0  0  0  0
   13.5582    2.3580   22.5386 N   0  0  0  0  0  0  0  0  0  0  0  0
   10.3648    6.1919   23.2776 N   0  0  0  0  0  0  0  0  0  0  0  0
   13.5437    4.7065   22.5104 O   0  0  0  0  0  0  0  0  0  0  0  0
    8.5424    6.5351   24.6879 O   0  0  0  0  0  0  0  0  0  0  0  0
    9.4403   -1.0706   23.7112 O   0  0  0  0  0  0  0  0  0  0  0  0
   13.7951   -0.4373   22.5424 H   0  0  0  0  0  0  0  0  0  0  0  0
   11.8598   -1.8984   23.0923 H   0  0  0  0  0  0  0  0  0  0  0  0
    9.3472    1.5690   23.6662 H   0  0  0  0  0  0  0  0  0  0  0  0
   10.8906    3.8041   22.2188 H   0  0  0  0  0  0  0  0  0  0  0  0
    7.7472    6.3376   21.8873 H   0  0  0  0  0  0  0  0  0  0  0  0
    7.5408    7.8611   22.7276 H   0  0  0  0  0  0  0  0  0  0  0  0
    8.9034    7.6316   21.6521 H   0  0  0  0  0  0  0  0  0  0  0  0
    8.7669   -3.0108   23.9354 H   0  0  0  0  0  0  0  0  0  0  0  0
   10.4747   -2.7242   24.3927 H   0  0  0  0  0  0  0  0  0  0  0  0
   10.0013   -2.7585   22.6737 H   0  0  0  0  0  0  0  0  0  0  0  0
   11.8765    3.7851   25.1218 H   0  0  0  0  0  0  0  0  0  0  0  0
   10.1705    3.8430   24.6729 H   0  0  0  0  0  0  0  0  0  0  0  0
   11.0324    6.1091   25.2085 H   0  0  0  0  0  0  0  0  0  0  0  0
   12.2882    5.9631   23.9661 H   0  0  0  0  0  0  0  0  0  0  0  0
   14.5240    2.1751   22.2931 H   0  0  0  0  0  0  0  0  0  0  0  0
   10.6846    6.2899   22.3144 H   0  0  0  0  0  0  0  0  0  0  0  0
  1  2  2  0  0  0  0
  1  5  1  0  0  0  0
  2  6  1  0  0  0  0
  3  4  1  0  0  0  0
  3  6  2  0  0  0  0
  4  5  2  0  0  0  0
  4  9  1  0  0  0  0
  5 14  1  0  0  0  0
  6 18  1  0  0  0  0
  7  9  1  0  0  0  0
  7 14  1  0  0  0  0
  7 16  2  0  0  0  0
  8 10  1  0  0  0  0
  8 15  1  0  0  0  0
  8 17  2  0  0  0  0
  9 12  1  0  0  0  0
 11 18  1  0  0  0  0
 12 13  1  0  0  0  0
 13 15  1  0  0  0  0
  1 19  1  0  0  0  0
  2 20  1  0  0  0  0
  3 21  1  0  0  0  0
  9 22  1  0  0  0  0
 10 23  1  0  0  0  0
 10 24  1  0  0  0  0
 10 25  1  0  0  0  0
 11 26  1  0  0  0  0
 11 27  1  0  0  0  0
 11 28  1  0  0  0  0
 12 29  1  0  0  0  0
 12 30  1  0  0  0  0
 13 31  1  0  0  0  0
 13 32  1  0  0  0  0
 14 33  1  0  0  0  0
 15 34  1  0  0  0  0
M  END
> <Hybrid2>
-7.146756

$$$$
3-hydroxymelatonin
  -OEChem-03222023283D

 36 37  0     1  0  0  0  0  0999 V2000
   12.2281    5.5142   23.7949 C   0  0  0  0  0  0  0  0  0  0  0  0
   11.1379    6.2913   24.1941 C   0  0  0  0  0  0  0  0  0  0  0  0
    9.7155    4.3222   24.2935 C   0  0  0  0  0  0  0  0  0  0  0  0
   10.8059    3.5606   23.9043 C   0  0  0  0  0  0  0  0  0  0  0  0
   12.0550    4.1459   23.6746 C   0  0  0  0  0  0  0  0  0  0  0  0
    9.8910    5.6987   24.4449 C   0  0  0  0  0  0  0  0  0  0  0  0
   11.2043   -1.2047   22.4926 C   0  0  0  0  0  0  0  0  0  0  0  0
   12.4258    1.8929   23.4654 C   0  0  0  0  0  0  0  0  0  0  0  0
   10.8924    2.0895   23.6185 C   0  0  1  0  0  0  0  0  0  0  0  0
   12.3844   -1.8807   21.8733 C   0  0  0  0  0  0  0  0  0  0  0  0
    7.5988    5.8162   25.0677 C   0  0  0  0  0  0  0  0  0  0  0  0
   10.2899    1.2012   24.6985 C   0  0  0  0  0  0  0  0  0  0  0  0
    9.9707   -0.2001   24.1934 C   0  0  0  0  0  0  0  0  0  0  0  0
   11.1961   -0.8519   23.7284 N   0  0  0  0  0  0  0  0  0  0  0  0
   12.9992    3.2175   23.2412 N   0  0  0  0  0  0  0  0  0  0  0  0
   10.1766   -1.0105   21.6348 O   0  0  0  0  0  0  0  0  0  0  0  0
   10.2485    1.8371   22.3739 O   0  0  0  0  0  0  0  0  0  0  0  0
    8.8400    6.4764   24.8274 O   0  0  0  0  0  0  0  0  0  0  0  0
   13.1867    5.9797   23.5900 H   0  0  0  0  0  0  0  0  0  0  0  0
   11.2602    7.3660   24.3037 H   0  0  0  0  0  0  0  0  0  0  0  0
    8.7470    3.8646   24.4659 H   0  0  0  0  0  0  0  0  0  0  0  0
   12.8648    1.4830   24.3834 H   0  0  0  0  0  0  0  0  0  0  0  0
   12.6782    1.2274   22.6334 H   0  0  0  0  0  0  0  0  0  0  0  0
   12.2845   -2.9641   21.9807 H   0  0  0  0  0  0  0  0  0  0  0  0
   12.4418   -1.6196   20.8132 H   0  0  0  0  0  0  0  0  0  0  0  0
   13.3069   -1.5609   22.3659 H   0  0  0  0  0  0  0  0  0  0  0  0
    6.8463    6.5505   25.3653 H   0  0  0  0  0  0  0  0  0  0  0  0
    7.7281    5.0710   25.8566 H   0  0  0  0  0  0  0  0  0  0  0  0
    7.2767    5.3196   24.1493 H   0  0  0  0  0  0  0  0  0  0  0  0
    9.3667    1.6675   25.0609 H   0  0  0  0  0  0  0  0  0  0  0  0
   10.9815    1.1471   25.5473 H   0  0  0  0  0  0  0  0  0  0  0  0
    9.5415   -0.7964   25.0052 H   0  0  0  0  0  0  0  0  0  0  0  0
    9.2403   -0.1662   23.3784 H   0  0  0  0  0  0  0  0  0  0  0  0
   13.9914    3.4037   23.2842 H   0  0  0  0  0  0  0  0  0  0  0  0
   10.3560   -1.3403   20.7369 H   0  0  0  0  0  0  0  0  0  0  0  0
   10.3185    0.8828   22.2137 H   0  0  0  0  0  0  0  0  0  0  0  0
  1  2  2  0  0  0  0
  1  5  1  0  0  0  0
  2  6  1  0  0  0  0
  3  4  1  0  0  0  0
  3  6  2  0  0  0  0
  4  5  2  0  0  0  0
  4  9  1  0  0  0  0
  5 15  1  0  0  0  0
  6 18  1  0  0  0  0
  7 10  1  0  0  0  0
  7 14  2  0  0  0  0
  7 16  1  0  0  0  0
  8  9  1  0  0  0  0
  8 15  1  0  0  0  0
  9 12  1  0  0  0  0
  9 17  1  0  0  0  0
 11 18  1  0  0  0  0
 12 13  1  0  0  0  0
 13 14  1  0  0  0  0
  1 19  1  0  0  0  0
  2 20  1  0  0  0  0
  3 21  1  0  0  0  0
  8 22  1  0  0  0  0
  8 23  1  0  0  0  0
 10 24  1  0  0  0  0
 10 25  1  0  0  0  0
 10 26  1  0  0  0  0
 11 27  1  0  0  0  0
 11 28  1  0  0  0  0
 11 29  1  0  0  0  0
 12 30  1  0  0  0  0
 12 31  1  0  0  0  0
 13 32  1  0  0  0  0
 13 33  1  0  0  0  0
 15 34  1  0  0  0  0
 16 35  1  0  0  0  0
 17 36  1  0  0  0  0
M  END
> <Hybrid2>
-7.031129

$$$$
melatonin glucuronide
  -OEChem-03222023323D

 53 55  0     1  0  0  0  0  0999 V2000
   13.1163    3.4007   21.6307 C   0  0  0  0  0  0  0  0  0  0  0  0
   14.0039    4.3518   21.1194 C   0  0  0  0  0  0  0  0  0  0  0  0
   13.0881    6.0709   22.5696 C   0  0  0  0  0  0  0  0  0  0  0  0
   10.6006    3.9319   24.1813 C   0  0  0  0  0  0  0  0  0  0  0  0
   12.1836    5.1297   23.1000 C   0  0  0  0  0  0  0  0  0  0  0  0
   11.1582    5.1860   24.0851 C   0  0  0  0  0  0  0  0  0  0  0  0
   12.2184    3.8190   22.6193 C   0  0  0  0  0  0  0  0  0  0  0  0
   13.9918    5.6668   21.5802 C   0  0  0  0  0  0  0  0  0  0  0  0
   13.3527   -0.9153   22.3181 C   0  0  0  0  0  0  0  0  0  0  0  0
    8.5491    6.1857   22.3761 C   0  0  0  0  0  0  0  0  0  0  0  0
   11.9739   -0.4350   22.6359 C   0  0  2  0  0  0  0  0  0  0  0  0
   11.0045   -0.7783   21.5119 C   0  0  2  0  0  0  0  0  0  0  0  0
    9.6720   -0.0559   21.7124 C   0  0  1  0  0  0  0  0  0  0  0  0
    9.8742    1.4358   21.9902 C   0  0  2  0  0  0  0  0  0  0  0  0
   10.9232    1.6470   23.0924 C   0  0  2  0  0  0  0  0  0  0  0  0
    7.1803    5.6618   22.0929 C   0  0  0  0  0  0  0  0  0  0  0  0
   14.8087    7.9003   21.5753 C   0  0  0  0  0  0  0  0  0  0  0  0
   10.7548    6.3719   24.8675 C   0  0  0  0  0  0  0  0  0  0  0  0
    9.9073    7.3862   24.0780 C   0  0  0  0  0  0  0  0  0  0  0  0
   11.2469    3.1142   23.2935 N   0  0  0  0  0  0  0  0  0  0  0  0
    8.6760    6.8123   23.6054 N   0  0  0  0  0  0  0  0  0  0  0  0
   13.6150   -1.9300   21.6897 O   0  0  0  0  0  0  0  0  0  0  0  0
    9.4372    6.0362   21.5450 O   0  0  0  0  0  0  0  0  0  0  0  0
   12.1417    0.9726   22.7621 O   0  0  0  0  0  0  0  0  0  0  0  0
   14.2829   -0.0702   22.8258 O   0  0  0  0  0  0  0  0  0  0  0  0
   10.7766   -2.1864   21.5175 O   0  0  0  0  0  0  0  0  0  0  0  0
    8.8691   -0.2137   20.5414 O   0  0  0  0  0  0  0  0  0  0  0  0
    8.6319    1.9954   22.4153 O   0  0  0  0  0  0  0  0  0  0  0  0
   14.8706    6.5711   21.0628 O   0  0  0  0  0  0  0  0  0  0  0  0
   13.1300    2.3783   21.2681 H   0  0  0  0  0  0  0  0  0  0  0  0
   14.7135    4.0525   20.3514 H   0  0  0  0  0  0  0  0  0  0  0  0
   13.0866    7.0989   22.9220 H   0  0  0  0  0  0  0  0  0  0  0  0
    9.7987    3.5557   24.8028 H   0  0  0  0  0  0  0  0  0  0  0  0
   11.6768   -0.8725   23.5956 H   0  0  0  0  0  0  0  0  0  0  0  0
   11.4267   -0.5173   20.5332 H   0  0  0  0  0  0  0  0  0  0  0  0
    9.1061   -0.5255   22.5361 H   0  0  0  0  0  0  0  0  0  0  0  0
   10.1701    1.9470   21.0644 H   0  0  0  0  0  0  0  0  0  0  0  0
   10.5563    1.3194   24.0833 H   0  0  0  0  0  0  0  0  0  0  0  0
    6.5427    6.4037   21.5857 H   0  0  0  0  0  0  0  0  0  0  0  0
    7.1953    4.7856   21.4249 H   0  0  0  0  0  0  0  0  0  0  0  0
    6.6058    5.3421   22.9770 H   0  0  0  0  0  0  0  0  0  0  0  0
   15.5609    8.5184   21.0790 H   0  0  0  0  0  0  0  0  0  0  0  0
   14.9878    7.8849   22.6533 H   0  0  0  0  0  0  0  0  0  0  0  0
   13.8155    8.3112   21.3788 H   0  0  0  0  0  0  0  0  0  0  0  0
   11.6519    6.9009   25.2456 H   0  0  0  0  0  0  0  0  0  0  0  0
   10.1984    6.0817   25.7816 H   0  0  0  0  0  0  0  0  0  0  0  0
    9.6368    8.2427   24.7035 H   0  0  0  0  0  0  0  0  0  0  0  0
   10.4540    7.7595   23.2058 H   0  0  0  0  0  0  0  0  0  0  0  0
    7.8547    6.8695   24.2056 H   0  0  0  0  0  0  0  0  0  0  0  0
   13.8726    0.6861   23.2970 H   0  0  0  0  0  0  0  0  0  0  0  0
   10.3999   -2.4005   22.3846 H   0  0  0  0  0  0  0  0  0  0  0  0
    8.7357   -1.1665   20.4287 H   0  0  0  0  0  0  0  0  0  0  0  0
    8.0049    1.8542   21.6898 H   0  0  0  0  0  0  0  0  0  0  0  0
  1  2  2  0  0  0  0
  1  7  1  0  0  0  0
  2  8  1  0  0  0  0
  3  5  1  0  0  0  0
  3  8  2  0  0  0  0
  4  6  2  0  0  0  0
  4 20  1  0  0  0  0
  5  6  1  0  0  0  0
  5  7  2  0  0  0  0
  6 18  1  0  0  0  0
  7 20  1  0  0  0  0
  8 29  1  0  0  0  0
  9 11  1  0  0  0  0
  9 22  2  0  0  0  0
  9 25  1  0  0  0  0
 10 16  1  0  0  0  0
 10 21  1  0  0  0  0
 10 23  2  0  0  0  0
 11 12  1  0  0  0  0
 11 24  1  0  0  0  0
 12 13  1  0  0  0  0
 12 26  1  0  0  0  0
 13 14  1  0  0  0  0
 13 27  1  0  0  0  0
 14 15  1  0  0  0  0
 14 28  1  0  0  0  0
 15 20  1  0  0  0  0
 15 24  1  0  0  0  0
 17 29  1  0  0  0  0
 18 19  1  0  0  0  0
 19 21  1  0  0  0  0
  1 30  1  0  0  0  0
  2 31  1  0  0  0  0
  3 32  1  0  0  0  0
  4 33  1  0  0  0  0
 11 34  1  0  0  0  0
 12 35  1  0  0  0  0
 13 36  1  0  0  0  0
 14 37  1  0  0  0  0
 15 38  1  0  0  0  0
 16 39  1  0  0  0  0
 16 40  1  0  0  0  0
 16 41  1  0  0  0  0
 17 42  1  0  0  0  0
 17 43  1  0  0  0  0
 17 44  1  0  0  0  0
 18 45  1  0  0  0  0
 18 46  1  0  0  0  0
 19 47  1  0  0  0  0
 19 48  1  0  0  0  0
 21 49  1  0  0  0  0
 25 50  1  0  0  0  0
 26 51  1  0  0  0  0
 27 52  1  0  0  0  0
 28 53  1  0  0  0  0
M  END
> <Hybrid2>
-2.295844

$$$$
cyclic melatonin
  -OEChem-03222023323D

 31 33  0     0  0  0  0  0  0999 V2000
   12.8827    1.0726   22.6966 C   0  0  0  0  0  0  0  0  0  0  0  0
   12.6224   -0.2992   22.6241 C   0  0  0  0  0  0  0  0  0  0  0  0
   10.5496   -0.0388   23.8656 C   0  0  0  0  0  0  0  0  0  0  0  0
   10.7867    1.3454   23.9540 C   0  0  0  0  0  0  0  0  0  0  0  0
   10.1092    2.4364   24.5243 C   0  0  0  0  0  0  0  0  0  0  0  0
   11.9530    1.8773   23.3656 C   0  0  0  0  0  0  0  0  0  0  0  0
   11.4765   -0.8474   23.1980 C   0  0  0  0  0  0  0  0  0  0  0  0
   10.8456    3.5562   24.2804 C   0  0  0  0  0  0  0  0  0  0  0  0
   10.8637    5.9419   24.6598 C   0  0  0  0  0  0  0  0  0  0  0  0
    8.8793    2.7570   25.2896 C   0  0  0  0  0  0  0  0  0  0  0  0
    9.0036    4.3160   25.4704 C   0  0  0  0  0  0  0  0  0  0  0  0
   12.3700    5.9211   24.5867 C   0  0  0  0  0  0  0  0  0  0  0  0
   10.0645   -2.6898   23.7151 C   0  0  0  0  0  0  0  0  0  0  0  0
   11.9607    3.2497   23.5852 N   0  0  0  0  0  0  0  0  0  0  0  0
   10.2846    4.6978   24.7915 N   0  0  0  0  0  0  0  0  0  0  0  0
   10.2556    7.0112   24.6016 O   0  0  0  0  0  0  0  0  0  0  0  0
   11.2538   -2.1893   23.1085 O   0  0  0  0  0  0  0  0  0  0  0  0
   13.7761    1.4946   22.2484 H   0  0  0  0  0  0  0  0  0  0  0  0
   13.3315   -0.9435   22.1091 H   0  0  0  0  0  0  0  0  0  0  0  0
    9.6592   -0.4751   24.3100 H   0  0  0  0  0  0  0  0  0  0  0  0
    7.9773    2.5021   24.7257 H   0  0  0  0  0  0  0  0  0  0  0  0
    8.8677    2.2531   26.2605 H   0  0  0  0  0  0  0  0  0  0  0  0
    8.1737    4.8485   24.9948 H   0  0  0  0  0  0  0  0  0  0  0  0
    9.0590    4.6003   26.5262 H   0  0  0  0  0  0  0  0  0  0  0  0
   12.6734    5.8318   23.5489 H   0  0  0  0  0  0  0  0  0  0  0  0
   12.7415    5.0753   25.1561 H   0  0  0  0  0  0  0  0  0  0  0  0
   12.7584    6.8421   25.0091 H   0  0  0  0  0  0  0  0  0  0  0  0
   10.0087   -3.7716   23.5714 H   0  0  0  0  0  0  0  0  0  0  0  0
    9.1937   -2.2064   23.2652 H   0  0  0  0  0  0  0  0  0  0  0  0
   10.0902   -2.4675   24.7845 H   0  0  0  0  0  0  0  0  0  0  0  0
   12.6787    3.8904   23.2742 H   0  0  0  0  0  0  0  0  0  0  0  0
  1  2  2  0  0  0  0
  1  6  1  0  0  0  0
  2  7  1  0  0  0  0
  3  4  1  0  0  0  0
  3  7  2  0  0  0  0
  4  5  1  0  0  0  0
  4  6  2  0  0  0  0
  5  8  2  0  0  0  0
  5 10  1  0  0  0  0
  6 14  1  0  0  0  0
  7 17  1  0  0  0  0
  8 14  1  0  0  0  0
  8 15  1  0  0  0  0
  9 12  1  0  0  0  0
  9 15  1  0  0  0  0
  9 16  2  0  0  0  0
 10 11  1  0  0  0  0
 11 15  1  0  0  0  0
 13 17  1  0  0  0  0
  1 18  1  0  0  0  0
  2 19  1  0  0  0  0
  3 20  1  0  0  0  0
 10 21  1  0  0  0  0
 10 22  1  0  0  0  0
 11 23  1  0  0  0  0
 11 24  1  0  0  0  0
 12 25  1  0  0  0  0
 12 26  1  0  0  0  0
 12 27  1  0  0  0  0
 13 28  1  0  0  0  0
 13 29  1  0  0  0  0
 13 30  1  0  0  0  0
 14 31  1  0  0  0  0
M  END
> <Hybrid2>
-7.547830

$$$$
cyclic N-acetylserotonin glucuronide
  -OEChem-03222023323D

 48 51  0     1  0  0  0  0  0999 V2000
   13.1264    3.3844   22.1728 C   0  0  0  0  0  0  0  0  0  0  0  0
   12.9048    4.6943   22.6085 C   0  0  0  0  0  0  0  0  0  0  0  0
   11.2055    3.9545   24.1804 C   0  0  0  0  0  0  0  0  0  0  0  0
   11.4078    2.6268   23.7606 C   0  0  0  0  0  0  0  0  0  0  0  0
   10.8573    1.3802   24.1034 C   0  0  0  0  0  0  0  0  0  0  0  0
   12.3680    2.3655   22.7611 C   0  0  0  0  0  0  0  0  0  0  0  0
   11.9613    4.9766   23.5950 C   0  0  0  0  0  0  0  0  0  0  0  0
   11.4680    0.4321   23.3392 C   0  0  0  0  0  0  0  0  0  0  0  0
    7.5349    5.2228   22.3077 C   0  0  0  0  0  0  0  0  0  0  0  0
   11.4949   -1.9468   22.9197 C   0  0  0  0  0  0  0  0  0  0  0  0
    9.8484    0.7751   25.0074 C   0  0  0  0  0  0  0  0  0  0  0  0
    9.9603   -0.7532   24.6462 C   0  0  0  0  0  0  0  0  0  0  0  0
    8.3167    6.3621   22.9308 C   0  0  1  0  0  0  0  0  0  0  0  0
    7.6023    6.7531   24.2187 C   0  0  1  0  0  0  0  0  0  0  0  0
    8.4532    7.7319   25.0309 C   0  0  2  0  0  0  0  0  0  0  0  0
    9.8917    7.2388   25.1764 C   0  0  1  0  0  0  0  0  0  0  0  0
   10.4635    6.8113   23.8234 C   0  0  2  0  0  0  0  0  0  0  0  0
   11.4537   -3.2198   23.7276 C   0  0  0  0  0  0  0  0  0  0  0  0
   12.3814    0.9964   22.5219 N   0  0  0  0  0  0  0  0  0  0  0  0
   11.0135   -0.8381   23.5826 N   0  0  0  0  0  0  0  0  0  0  0  0
    7.9755    4.1030   22.0951 O   0  0  0  0  0  0  0  0  0  0  0  0
   11.9330   -1.9577   21.7689 O   0  0  0  0  0  0  0  0  0  0  0  0
    9.6167    5.8506   23.1963 O   0  0  0  0  0  0  0  0  0  0  0  0
    6.2714    5.6146   22.0122 O   0  0  0  0  0  0  0  0  0  0  0  0
    6.3648    7.3828   23.8892 O   0  0  0  0  0  0  0  0  0  0  0  0
    7.8749    7.8973   26.3268 O   0  0  0  0  0  0  0  0  0  0  0  0
   10.6805    8.3000   25.7120 O   0  0  0  0  0  0  0  0  0  0  0  0
   11.7709    6.2654   23.9964 O   0  0  0  0  0  0  0  0  0  0  0  0
   13.8618    3.1696   21.4047 H   0  0  0  0  0  0  0  0  0  0  0  0
   13.4828    5.5019   22.1651 H   0  0  0  0  0  0  0  0  0  0  0  0
   10.4722    4.1842   24.9487 H   0  0  0  0  0  0  0  0  0  0  0  0
   10.0979    0.9449   26.0589 H   0  0  0  0  0  0  0  0  0  0  0  0
    8.8432    1.1514   24.7966 H   0  0  0  0  0  0  0  0  0  0  0  0
   10.2717   -1.3534   25.5072 H   0  0  0  0  0  0  0  0  0  0  0  0
    9.0189   -1.1480   24.2506 H   0  0  0  0  0  0  0  0  0  0  0  0
    8.3408    7.1794   22.2100 H   0  0  0  0  0  0  0  0  0  0  0  0
    7.3701    5.8698   24.8261 H   0  0  0  0  0  0  0  0  0  0  0  0
    8.4361    8.7302   24.5594 H   0  0  0  0  0  0  0  0  0  0  0  0
    9.9345    6.4113   25.8952 H   0  0  0  0  0  0  0  0  0  0  0  0
   10.5686    7.6911   23.1531 H   0  0  0  0  0  0  0  0  0  0  0  0
   10.5027   -3.7147   23.5611 H   0  0  0  0  0  0  0  0  0  0  0  0
   11.5665   -2.9769   24.7792 H   0  0  0  0  0  0  0  0  0  0  0  0
   12.2679   -3.8652   23.4145 H   0  0  0  0  0  0  0  0  0  0  0  0
   12.9741    0.5226   21.8533 H   0  0  0  0  0  0  0  0  0  0  0  0
    6.1108    6.5503   22.2591 H   0  0  0  0  0  0  0  0  0  0  0  0
    5.9423    7.6155   24.7301 H   0  0  0  0  0  0  0  0  0  0  0  0
    6.9824    8.2462   26.1847 H   0  0  0  0  0  0  0  0  0  0  0  0
   10.2937    8.5225   26.5725 H   0  0  0  0  0  0  0  0  0  0  0  0
  1  2  2  0  0  0  0
  1  6  1  0  0  0  0
  2  7  1  0  0  0  0
  3  4  1  0  0  0  0
  3  7  2  0  0  0  0
  4  5  1  0  0  0  0
  4  6  2  0  0  0  0
  5  8  2  0  0  0  0
  5 11  1  0  0  0  0
  6 19  1  0  0  0  0
  7 28  1  0  0  0  0
  8 19  1  0  0  0  0
  8 20  1  0  0  0  0
  9 13  1  0  0  0  0
  9 21  2  0  0  0  0
  9 24  1  0  0  0  0
 10 18  1  0  0  0  0
 10 20  1  0  0  0  0
 10 22  2  0  0  0  0
 11 12  1  0  0  0  0
 12 20  1  0  0  0  0
 13 14  1  0  0  0  0
 13 23  1  0  0  0  0
 14 15  1  0  0  0  0
 14 25  1  0  0  0  0
 15 16  1  0  0  0  0
 15 26  1  0  0  0  0
 16 17  1  0  0  0  0
 16 27  1  0  0  0  0
 17 23  1  0  0  0  0
 17 28  1  0  0  0  0
  1 29  1  0  0  0  0
  2 30  1  0  0  0  0
  3 31  1  0  0  0  0
 11 32  1  0  0  0  0
 11 33  1  0  0  0  0
 12 34  1  0  0  0  0
 12 35  1  0  0  0  0
 13 36  1  0  0  0  0
 14 37  1  0  0  0  0
 15 38  1  0  0  0  0
 16 39  1  0  0  0  0
 17 40  1  0  0  0  0
 18 41  1  0  0  0  0
 18 42  1  0  0  0  0
 18 43  1  0  0  0  0
 19 44  1  0  0  0  0
 24 45  1  0  0  0  0
 25 46  1  0  0  0  0
 26 47  1  0  0  0  0
 27 48  1  0  0  0  0
M  END
> <Hybrid2>
-6.437728

$$$$
cyclic 6-hydroxymelatonin
  -OEChem-03222023323D

 32 34  0     0  0  0  0  0  0999 V2000
   13.2409    1.2256   22.6155 C   0  0  0  0  0  0  0  0  0  0  0  0
   10.6318    0.4148   23.3773 C   0  0  0  0  0  0  0  0  0  0  0  0
   12.3073    2.1850   23.0491 C   0  0  0  0  0  0  0  0  0  0  0  0
   12.3216    3.5793   23.2236 C   0  0  0  0  0  0  0  0  0  0  0  0
   11.0154    1.7602   23.4234 C   0  0  0  0  0  0  0  0  0  0  0  0
   12.8617   -0.1206   22.5676 C   0  0  0  0  0  0  0  0  0  0  0  0
   11.5790   -0.5170   22.9423 C   0  0  0  0  0  0  0  0  0  0  0  0
   11.0937    3.9534   23.6797 C   0  0  0  0  0  0  0  0  0  0  0  0
    9.8235    5.8957   24.3507 C   0  0  0  0  0  0  0  0  0  0  0  0
   13.2203    4.7503   23.0749 C   0  0  0  0  0  0  0  0  0  0  0  0
   12.2926    5.9354   23.5368 C   0  0  0  0  0  0  0  0  0  0  0  0
    8.5576    5.1807   23.9492 C   0  0  0  0  0  0  0  0  0  0  0  0
   13.8046   -1.3309   20.7504 C   0  0  0  0  0  0  0  0  0  0  0  0
   10.2871    2.8794   23.8091 N   0  0  0  0  0  0  0  0  0  0  0  0
   10.9802    5.3031   23.8909 N   0  0  0  0  0  0  0  0  0  0  0  0
    9.7668    6.9193   25.0330 O   0  0  0  0  0  0  0  0  0  0  0  0
   11.2271   -1.8350   22.8899 O   0  0  0  0  0  0  0  0  0  0  0  0
   13.7712   -1.0465   22.1466 O   0  0  0  0  0  0  0  0  0  0  0  0
   14.2431    1.5255   22.3216 H   0  0  0  0  0  0  0  0  0  0  0  0
    9.6328    0.1066   23.6691 H   0  0  0  0  0  0  0  0  0  0  0  0
   14.0975    4.6686   23.7233 H   0  0  0  0  0  0  0  0  0  0  0  0
   13.5355    4.8859   22.0361 H   0  0  0  0  0  0  0  0  0  0  0  0
   12.6933    6.4465   24.4181 H   0  0  0  0  0  0  0  0  0  0  0  0
   12.1346    6.6647   22.7359 H   0  0  0  0  0  0  0  0  0  0  0  0
    8.3091    4.4464   24.7082 H   0  0  0  0  0  0  0  0  0  0  0  0
    8.7148    4.6891   22.9946 H   0  0  0  0  0  0  0  0  0  0  0  0
    7.7549    5.9052   23.8568 H   0  0  0  0  0  0  0  0  0  0  0  0
   14.5711   -2.0833   20.5492 H   0  0  0  0  0  0  0  0  0  0  0  0
   14.0238   -0.4148   20.1961 H   0  0  0  0  0  0  0  0  0  0  0  0
   12.8296   -1.7161   20.4427 H   0  0  0  0  0  0  0  0  0  0  0  0
    9.3275    2.8745   24.1279 H   0  0  0  0  0  0  0  0  0  0  0  0
   11.9735   -2.3659   22.5733 H   0  0  0  0  0  0  0  0  0  0  0  0
  1  3  1  0  0  0  0
  1  6  2  0  0  0  0
  2  5  1  0  0  0  0
  2  7  2  0  0  0  0
  3  4  1  0  0  0  0
  3  5  2  0  0  0  0
  4  8  2  0  0  0  0
  4 10  1  0  0  0  0
  5 14  1  0  0  0  0
  6  7  1  0  0  0  0
  6 18  1  0  0  0  0
  7 17  1  0  0  0  0
  8 14  1  0  0  0  0
  8 15  1  0  0  0  0
  9 12  1  0  0  0  0
  9 15  1  0  0  0  0
  9 16  2  0  0  0  0
 10 11  1  0  0  0  0
 11 15  1  0  0  0  0
 13 18  1  0  0  0  0
  1 19  1  0  0  0  0
  2 20  1  0  0  0  0
 10 21  1  0  0  0  0
 10 22  1  0  0  0  0
 11 23  1  0  0  0  0
 11 24  1  0  0  0  0
 12 25  1  0  0  0  0
 12 26  1  0  0  0  0
 12 27  1  0  0  0  0
 13 28  1  0  0  0  0
 13 29  1  0  0  0  0
 13 30  1  0  0  0  0
 14 31  1  0  0  0  0
 17 32  1  0  0  0  0
M  END
> <Hybrid2>
-7.043154

$$$$
5-hydroxyindole-3-acetaldehyde
  -OEChem-03222023323D

 22 23  0     0  0  0  0  0  0999 V2000
   10.8819    4.1274   23.5736 C   0  0  0  0  0  0  0  0  0  0  0  0
   11.8606    4.9918   23.0746 C   0  0  0  0  0  0  0  0  0  0  0  0
   13.3460    3.1299   22.6014 C   0  0  0  0  0  0  0  0  0  0  0  0
   11.0898    0.5194   23.8078 C   0  0  0  0  0  0  0  0  0  0  0  0
   12.3745    2.2392   23.0998 C   0  0  0  0  0  0  0  0  0  0  0  0
   12.3113    0.8259   23.2537 C   0  0  0  0  0  0  0  0  0  0  0  0
   11.1673    2.7575   23.5734 C   0  0  0  0  0  0  0  0  0  0  0  0
   13.0743    4.5028   22.5954 C   0  0  0  0  0  0  0  0  0  0  0  0
   13.0864   -0.9166   21.6074 C   0  0  0  0  0  0  0  0  0  0  0  0
   13.3606   -0.1463   22.8873 C   0  0  0  0  0  0  0  0  0  0  0  0
   10.4069    1.6908   23.9968 N   0  0  0  0  0  0  0  0  0  0  0  0
   13.0523   -2.1406   21.5359 O   0  0  0  0  0  0  0  0  0  0  0  0
   14.0089    5.3703   22.1141 O   0  0  0  0  0  0  0  0  0  0  0  0
    9.9375    4.5093   23.9469 H   0  0  0  0  0  0  0  0  0  0  0  0
   11.6648    6.0616   23.0643 H   0  0  0  0  0  0  0  0  0  0  0  0
   14.2952    2.7580   22.2251 H   0  0  0  0  0  0  0  0  0  0  0  0
   10.6446   -0.4261   24.0850 H   0  0  0  0  0  0  0  0  0  0  0  0
   12.9118   -0.3030   20.7066 H   0  0  0  0  0  0  0  0  0  0  0  0
   13.5117   -0.8982   23.6838 H   0  0  0  0  0  0  0  0  0  0  0  0
   14.3416    0.3469   22.7566 H   0  0  0  0  0  0  0  0  0  0  0  0
    9.4790    1.7632   24.3906 H   0  0  0  0  0  0  0  0  0  0  0  0
   14.7951    4.8851   21.8190 H   0  0  0  0  0  0  0  0  0  0  0  0
  1  2  2  0  0  0  0
  1  7  1  0  0  0  0
  2  8  1  0  0  0  0
  3  5  1  0  0  0  0
  3  8  2  0  0  0  0
  4  6  2  0  0  0  0
  4 11  1  0  0  0  0
  5  6  1  0  0  0  0
  5  7  2  0  0  0  0
  6 10  1  0  0  0  0
  7 11  1  0  0  0  0
  8 13  1  0  0  0  0
  9 10  1  0  0  0  0
  9 12  2  0  0  0  0
  1 14  1  0  0  0  0
  2 15  1  0  0  0  0
  3 16  1  0  0  0  0
  4 17  1  0  0  0  0
  9 18  1  0  0  0  0
 10 19  1  0  0  0  0
 10 20  1  0  0  0  0
 11 21  1  0  0  0  0
 13 22  1  0  0  0  0
M  END
> <Hybrid2>
-7.835330

$$$$
di-hydroxymelatonin
  -OEChem-03222023323D

 35 36  0     0  0  0  0  0  0999 V2000
   10.5189   -0.1147   24.0608 C   0  0  0  0  0  0  0  0  0  0  0  0
   10.4063    3.4800   24.4879 C   0  0  0  0  0  0  0  0  0  0  0  0
   11.7588    1.9369   23.5396 C   0  0  0  0  0  0  0  0  0  0  0  0
   11.5790    3.3271   23.7848 C   0  0  0  0  0  0  0  0  0  0  0  0
   10.6700    1.2756   24.1119 C   0  0  0  0  0  0  0  0  0  0  0  0
   11.5109   -0.8491   23.4049 C   0  0  0  0  0  0  0  0  0  0  0  0
   12.7464    1.1755   22.8836 C   0  0  0  0  0  0  0  0  0  0  0  0
   12.6084   -0.2161   22.8246 C   0  0  0  0  0  0  0  0  0  0  0  0
    9.4223    6.2662   23.2234 C   0  0  0  0  0  0  0  0  0  0  0  0
    8.3282    6.3581   22.2121 C   0  0  0  0  0  0  0  0  0  0  0  0
   13.3697   -1.2020   20.7988 C   0  0  0  0  0  0  0  0  0  0  0  0
   12.4780    4.4227   23.3681 C   0  0  0  0  0  0  0  0  0  0  0  0
   11.8550    5.8253   23.4882 C   0  0  0  0  0  0  0  0  0  0  0  0
    9.8654    2.2371   24.6806 N   0  0  0  0  0  0  0  0  0  0  0  0
   10.6648    5.9599   22.6918 N   0  0  0  0  0  0  0  0  0  0  0  0
    9.1691    6.4592   24.4067 O   0  0  0  0  0  0  0  0  0  0  0  0
   11.3885   -2.2069   23.3405 O   0  0  0  0  0  0  0  0  0  0  0  0
   13.8351    1.7741   22.3059 O   0  0  0  0  0  0  0  0  0  0  0  0
   13.5607   -0.9608   22.1900 O   0  0  0  0  0  0  0  0  0  0  0  0
    9.6622   -0.6033   24.5141 H   0  0  0  0  0  0  0  0  0  0  0  0
    9.9073    4.3599   24.8699 H   0  0  0  0  0  0  0  0  0  0  0  0
    7.8263    5.3913   22.0465 H   0  0  0  0  0  0  0  0  0  0  0  0
    7.5292    7.0521   22.5190 H   0  0  0  0  0  0  0  0  0  0  0  0
    8.6388    6.6985   21.2113 H   0  0  0  0  0  0  0  0  0  0  0  0
   14.1964   -1.8053   20.4159 H   0  0  0  0  0  0  0  0  0  0  0  0
   13.3228   -0.2489   20.2659 H   0  0  0  0  0  0  0  0  0  0  0  0
   12.4310   -1.7429   20.6574 H   0  0  0  0  0  0  0  0  0  0  0  0
   12.7893    4.2786   22.3147 H   0  0  0  0  0  0  0  0  0  0  0  0
   13.4262    4.4062   23.9423 H   0  0  0  0  0  0  0  0  0  0  0  0
   11.5687    6.0401   24.5226 H   0  0  0  0  0  0  0  0  0  0  0  0
   12.5599    6.5970   23.1618 H   0  0  0  0  0  0  0  0  0  0  0  0
    9.0001    2.0515   25.1690 H   0  0  0  0  0  0  0  0  0  0  0  0
   10.7391    5.8231   21.6850 H   0  0  0  0  0  0  0  0  0  0  0  0
   10.5768   -2.4893   23.7886 H   0  0  0  0  0  0  0  0  0  0  0  0
   13.7867    2.7321   22.4313 H   0  0  0  0  0  0  0  0  0  0  0  0
  1  5  1  0  0  0  0
  1  6  2  0  0  0  0
  2  4  2  0  0  0  0
  2 14  1  0  0  0  0
  3  4  1  0  0  0  0
  3  5  2  0  0  0  0
  3  7  1  0  0  0  0
  4 12  1  0  0  0  0
  5 14  1  0  0  0  0
  6  8  1  0  0  0  0
  6 17  1  0  0  0  0
  7  8  2  0  0  0  0
  7 18  1  0  0  0  0
  8 19  1  0  0  0  0
  9 10  1  0  0  0  0
  9 15  1  0  0  0  0
  9 16  2  0  0  0  0
 11 19  1  0  0  0  0
 12 13  1  0  0  0  0
 13 15  1  0  0  0  0
  1 20  1  0  0  0  0
  2 21  1  0  0  0  0
 10 22  1  0  0  0  0
 10 23  1  0  0  0  0
 10 24  1  0  0  0  0
 11 25  1  0  0  0  0
 11 26  1  0  0  0  0
 11 27  1  0  0  0  0
 12 28  1  0  0  0  0
 12 29  1  0  0  0  0
 13 30  1  0  0  0  0
 13 31  1  0  0  0  0
 14 32  1  0  0  0  0
 15 33  1  0  0  0  0
 17 34  1  0  0  0  0
 18 35  1  0  0  0  0
M  END
> <Hybrid2>
-8.456565

$$$$
