ROB-UNI-b2e-4
 OpenBabel03242009303D

 35 35  0  0  0  0  0  0  0  0999 V2000
   12.0807   -1.2780   22.4942 C   0  0  0  0  0  0  0  0  0  0  0  0
    9.6581   -1.1475   22.8018 C   0  0  0  0  0  0  0  0  0  0  0  0
    8.4691   -1.6766   23.3037 C   0  0  0  0  0  0  0  0  0  0  0  0
   10.8787   -3.0196   23.7197 C   0  0  0  0  0  0  0  0  0  0  0  0
   10.8629   -1.8190   23.0098 C   0  0  0  0  0  0  0  0  0  0  0  0
    9.6896   -3.5488   24.2216 C   0  0  0  0  0  0  0  0  0  0  0  0
    8.4848   -2.8772   24.0135 C   0  0  0  0  0  0  0  0  0  0  0  0
    4.9496   -4.0206   24.3457 C   0  0  0  0  0  0  0  0  0  0  0  0
    7.1000   -3.0230   28.3109 C   0  0  0  0  0  0  0  0  0  0  0  0
    9.7357   -4.8489   24.9861 C   0  0  0  0  0  0  0  0  0  0  0  0
    5.9935   -3.0137   24.0004 C   0  0  0  0  0  0  0  0  0  0  0  0
   10.2666   -4.6850   26.4082 C   0  0  0  0  0  0  0  0  0  0  0  0
   13.0699   -0.8386   22.0754 N   0  0  0  0  0  0  0  0  0  0  0  0
    7.2711   -3.3992   24.5121 N   0  0  0  0  0  0  0  0  0  0  0  0
    9.4291   -3.7883   27.2248 N   0  0  0  0  0  0  0  0  0  0  0  0
    8.6247   -4.8131   29.4603 O   0  0  0  0  0  0  0  0  0  0  0  0
    7.4415   -5.4101   27.3155 O   0  0  0  0  0  0  0  0  0  0  0  0
    8.1485   -4.4491   28.1402 S   0  0  0  0  0  0  0  0  0  0  0  0
    9.6293   -0.2120   22.2478 H   0  0  0  0  0  0  0  0  0  0  0  0
    7.5361   -1.1455   23.1339 H   0  0  0  0  0  0  0  0  0  0  0  0
   11.8161   -3.5467   23.8855 H   0  0  0  0  0  0  0  0  0  0  0  0
    4.8795   -4.1165   25.4393 H   0  0  0  0  0  0  0  0  0  0  0  0
    3.9790   -3.6950   23.9433 H   0  0  0  0  0  0  0  0  0  0  0  0
    5.2200   -4.9933   23.9090 H   0  0  0  0  0  0  0  0  0  0  0  0
    6.2208   -3.3094   28.8901 H   0  0  0  0  0  0  0  0  0  0  0  0
    7.6611   -2.2430   28.8277 H   0  0  0  0  0  0  0  0  0  0  0  0
    6.8090   -2.6884   27.3140 H   0  0  0  0  0  0  0  0  0  0  0  0
   10.3761   -5.5520   24.4388 H   0  0  0  0  0  0  0  0  0  0  0  0
    8.7368   -5.3032   25.0060 H   0  0  0  0  0  0  0  0  0  0  0  0
    6.0574   -2.9237   22.9059 H   0  0  0  0  0  0  0  0  0  0  0  0
    5.7119   -2.0421   24.4324 H   0  0  0  0  0  0  0  0  0  0  0  0
   10.2788   -5.6547   26.9158 H   0  0  0  0  0  0  0  0  0  0  0  0
   11.2852   -4.2831   26.4153 H   0  0  0  0  0  0  0  0  0  0  0  0
    7.3371   -4.0655   25.2572 H   0  0  0  0  0  0  0  0  0  0  0  0
    9.9443   -3.0038   27.6450 H   0  0  0  0  0  0  0  0  0  0  0  0
  1  5  1  0  0  0  0
  1 13  3  0  0  0  0
  2  3  2  0  0  0  0
  2  5  1  0  0  0  0
  2 19  1  0  0  0  0
  3  7  1  0  0  0  0
  3 20  1  0  0  0  0
  4  5  2  0  0  0  0
  4  6  1  0  0  0  0
  4 21  1  0  0  0  0
  6  7  2  0  0  0  0
  6 10  1  0  0  0  0
  7 14  1  0  0  0  0
  8 11  1  0  0  0  0
  8 22  1  0  0  0  0
  8 23  1  0  0  0  0
  8 24  1  0  0  0  0
  9 18  1  0  0  0  0
  9 25  1  0  0  0  0
  9 26  1  0  0  0  0
  9 27  1  0  0  0  0
 10 12  1  0  0  0  0
 10 28  1  0  0  0  0
 10 29  1  0  0  0  0
 11 14  1  0  0  0  0
 11 30  1  0  0  0  0
 11 31  1  0  0  0  0
 12 15  1  0  0  0  0
 12 32  1  0  0  0  0
 12 33  1  0  0  0  0
 14 34  1  0  0  0  0
 15 18  1  0  0  0  0
 15 35  1  0  0  0  0
 16 18  2  0  0  0  0
 17 18  2  0  0  0  0
M  END
>  <Chemgauss4 Score>
-5.01636123657227

>  <Number of Confs>
200

$$$$
