ANT-DIA-3c7-2
 OpenBabel03242009303D

 29 30  0  0  0  0  0  0  0  0999 V2000
    8.9799   -4.6132   24.4190 C   0  0  0  0  0  0  0  0  0  0  0  0
    8.7190   -4.7028   28.1237 C   0  0  0  0  0  0  0  0  0  0  0  0
    8.9628   -3.3696   28.4532 C   0  0  0  0  0  0  0  0  0  0  0  0
   13.4594   -0.4225   22.6038 C   0  0  0  0  0  0  0  0  0  0  0  0
    8.7269   -5.1038   26.7877 C   0  0  0  0  0  0  0  0  0  0  0  0
   12.4060    0.1199   23.3314 C   0  0  0  0  0  0  0  0  0  0  0  0
    9.2144   -2.4372   27.4468 C   0  0  0  0  0  0  0  0  0  0  0  0
   13.1807   -1.4727   21.7440 C   0  0  0  0  0  0  0  0  0  0  0  0
   10.9501   -1.4482   22.2934 C   0  0  0  0  0  0  0  0  0  0  0  0
    8.9785   -4.1714   25.7812 C   0  0  0  0  0  0  0  0  0  0  0  0
   11.1243   -0.3970   23.1791 C   0  0  0  0  0  0  0  0  0  0  0  0
    9.2223   -2.8381   26.1107 C   0  0  0  0  0  0  0  0  0  0  0  0
    9.7387   -0.5121   25.2934 C   0  0  0  0  0  0  0  0  0  0  0  0
    9.9622    0.1691   23.9524 C   0  0  0  0  0  0  0  0  0  0  0  0
    8.9811   -4.9713   23.3151 N   0  0  0  0  0  0  0  0  0  0  0  0
   11.9488   -2.0014   21.5694 N   0  0  0  0  0  0  0  0  0  0  0  0
    9.4776   -1.8799   25.1243 N   0  0  0  0  0  0  0  0  0  0  0  0
    9.7890    0.0994   26.3558 O   0  0  0  0  0  0  0  0  0  0  0  0
    8.5232   -5.4287   28.9075 H   0  0  0  0  0  0  0  0  0  0  0  0
    8.9569   -3.0576   29.4935 H   0  0  0  0  0  0  0  0  0  0  0  0
   14.4667   -0.0354   22.7063 H   0  0  0  0  0  0  0  0  0  0  0  0
    8.5350   -6.1471   26.5484 H   0  0  0  0  0  0  0  0  0  0  0  0
   12.5929    0.9446   24.0139 H   0  0  0  0  0  0  0  0  0  0  0  0
    9.4031   -1.4012   27.7168 H   0  0  0  0  0  0  0  0  0  0  0  0
   13.9681   -1.9307   21.1544 H   0  0  0  0  0  0  0  0  0  0  0  0
    9.9727   -1.8927   22.1328 H   0  0  0  0  0  0  0  0  0  0  0  0
   10.1220    1.2411   24.1250 H   0  0  0  0  0  0  0  0  0  0  0  0
    9.0460    0.0812   23.3548 H   0  0  0  0  0  0  0  0  0  0  0  0
    9.4734   -2.2196   24.1572 H   0  0  0  0  0  0  0  0  0  0  0  0
  1 10  1  0  0  0  0
  1 15  3  0  0  0  0
  2  3  1  0  0  0  0
  2  5  2  0  0  0  0
  2 19  1  0  0  0  0
  3  7  2  0  0  0  0
  3 20  1  0  0  0  0
  4  6  2  0  0  0  0
  4  8  1  0  0  0  0
  4 21  1  0  0  0  0
  5 10  1  0  0  0  0
  5 22  1  0  0  0  0
  6 11  1  0  0  0  0
  6 23  1  0  0  0  0
  7 12  1  0  0  0  0
  7 24  1  0  0  0  0
  8 16  2  0  0  0  0
  8 25  1  0  0  0  0
  9 11  2  0  0  0  0
  9 16  1  0  0  0  0
  9 26  1  0  0  0  0
 10 12  2  0  0  0  0
 11 14  1  0  0  0  0
 12 17  1  0  0  0  0
 13 14  1  0  0  0  0
 13 17  1  0  0  0  0
 13 18  2  0  0  0  0
 14 27  1  0  0  0  0
 14 28  1  0  0  0  0
 17 29  1  0  0  0  0
M  END
>  <Chemgauss4 Score>
-5.28842115402222

>  <Number of Confs>
21

$$$$
