@<TRIPOS>MOLECULE
LIG(A-1101)
   15    16     0     0     0
SMALL
NO_CHARGES

@<TRIPOS>ATOM
      1 C1         10.8870  -25.7840    3.2130 C.ar      1 LIG1101     0.0000
      2 C2         12.0240  -25.0000    3.2940 C.ar      1 LIG1101     0.0000
      3 C3         12.3100  -24.0780    2.2910 C.ar      1 LIG1101     0.0000
      4 C4         11.4540  -23.9360    1.2220 C.ar      1 LIG1101     0.0000
      5 C5         10.3050  -24.7240    1.1490 C.ar      1 LIG1101     0.0000
      6 C6          9.3260  -24.6010   -0.0620 C.3       1 LIG1101     0.0000
      7 C7          7.9280  -23.2130   -1.3450 C.3       1 LIG1101     0.0000
      8 C8          7.1150  -21.9110   -1.3720 C.2       1 LIG1101     0.0000
      9 C9          7.4680  -20.7180   -1.9990 C.2       1 LIG1101     0.0000
     10 C10         6.4430  -19.8110   -1.7710 C.2       1 LIG1101     0.0000
     11 C11         5.4560  -20.4840   -0.9940 C.2       1 LIG1101     0.0000
     12 C12        10.0250  -25.6480    2.1420 C.ar      1 LIG1101     0.0000
     13 F1         10.5920  -26.6830    4.1750 F         1 LIG1101     0.0000
     14 N1          8.8570  -23.2170   -0.2810 N.4       1 LIG1101     0.0000
     15 O1          5.8860  -21.7230   -0.7860 O.3       1 LIG1101     0.0000
@<TRIPOS>BOND
     1    1    2 ar
     2    1   12 ar
     3    1   13 1
     4    2    3 ar
     5    3    4 ar
     6    4    5 ar
     7    5    6 1
     8    5   12 ar
     9    6   14 1
    10    7    8 1
    11    7   14 1
    12    8    9 2
    13    8   15 1
    14    9   10 1
    15   10   11 2
    16   11   15 1
