@<TRIPOS>MOLECULE
LIG(A-701)
   27    27     0     0     0
SMALL
USER_CHARGES

@<TRIPOS>ATOM
      1 C1          5.4710  -30.0890   10.6790 C.3       1 LIG701     -0.1677
      2 C2          4.9360  -29.8880    9.2600 C.2       1 LIG701      0.6638
      3 C3          5.2510  -27.3620    9.3110 C.3       1 LIG701      0.1415
      4 C4          4.3090  -26.1730    9.2770 C.ar      1 LIG701     -0.0463
      5 C5          3.8660  -25.5990   10.4590 C.ar      1 LIG701     -0.1443
      6 C6          3.0330  -24.4940   10.4100 C.ar      1 LIG701     -0.0189
      7 C7          2.6600  -23.9650    9.1850 C.ar      1 LIG701     -0.3569
      8 C8          3.1150  -24.5340    8.0180 C.ar      1 LIG701     -0.0189
      9 C9          3.9400  -25.6320    8.0690 C.ar      1 LIG701     -0.1443
     10 N1          4.8160  -28.5750    8.6310 N.am      1 LIG701     -0.5867
     11 N2          1.8390  -21.6820    7.6080 N.pl3     1 LIG701     -1.0300
     12 O1          4.5820  -30.8450    8.6610 O.2       1 LIG701     -0.6030
     13 O2          1.7570  -21.6090   10.1890 O.2       1 LIG701     -0.6543
     14 O3          0.1640  -22.9050    9.2050 O.2       1 LIG701     -0.6543
     15 S1          1.5720  -22.5220    9.0650 S.o2      1 LIG701      1.5194
     16 H1          5.4404  -31.1584   10.9349 H         1 LIG701      0.0673
     17 H2          6.5088  -29.7285   10.7339 H         1 LIG701      0.0673
     18 H3          4.8486  -29.5243   11.3888 H         1 LIG701      0.0673
     19 H4          6.1991  -27.0465    8.8510 H         1 LIG701      0.0523
     20 H5          5.4230  -27.6180   10.3669 H         1 LIG701      0.0523
     21 H6          4.1684  -26.0107   11.4106 H         1 LIG701      0.1403
     22 H7          2.6748  -24.0454   11.3248 H         1 LIG701      0.1481
     23 H8          2.8246  -24.1189    7.0642 H         1 LIG701      0.1481
     24 H9          4.3013  -26.0733    7.1519 H         1 LIG701      0.1403
     25 H10         4.4263  -28.5071    7.7126 H         1 LIG701      0.3182
     26 H11         2.5935  -21.0368    7.7281 H         1 LIG701      0.4495
     27 H12         1.0108  -21.1823    7.3542 H         1 LIG701      0.4495
@<TRIPOS>BOND
     1    1    2 1
     2    2   10 am
     3    2   12 2
     4    3    4 1
     5    3   10 1
     6    4    5 ar
     7    4    9 ar
     8    5    6 ar
     9    6    7 ar
    10    7    8 ar
    11    7   15 1
    12    8    9 ar
    13   11   15 1
    14   13   15 2
    15   14   15 2
    16    1   16 1
    17    1   17 1
    18    1   18 1
    19    3   19 1
    20    3   20 1
    21    5   21 1
    22    6   22 1
    23    8   23 1
    24    9   24 1
    25   10   25 1
    26   11   26 1
    27   11   27 1
