LIG(A-1101)
  -OEChem-04162023313D

 19 20  0     0  0  0  0  0  0999 V2000
    6.8580   -4.3150   21.9100 N   0  0  0  0  0  0  0  0  0  0  0  0
    7.7780   -4.7660   19.8290 C   0  0  0  0  0  0  0  0  0  0  0  0
    5.4640   -4.2410   20.1140 O   0  0  0  0  0  0  0  0  0  0  0  0
    6.5600   -4.4090   20.6160 C   0  0  0  0  0  0  0  0  0  0  0  0
    0.4670   -4.8070   24.0550 C   0  0  0  0  0  0  0  0  0  0  0  0
   -0.0860   -7.2830   24.9110 C   0  0  0  0  0  0  0  0  0  0  0  0
    1.0610   -7.7230   24.0300 C   0  0  0  0  0  0  0  0  0  0  0  0
    5.9810   -4.4560   22.9970 C   0  0  0  0  0  0  0  0  0  0  0  0
    5.9720   -3.4450   23.9510 C   0  0  0  0  0  0  0  0  0  0  0  0
    5.1100   -3.5330   25.0210 C   0  0  0  0  0  0  0  0  0  0  0  0
    4.2590   -4.6180   25.1460 C   0  0  0  0  0  0  0  0  0  0  0  0
    4.2630   -5.6330   24.1970 C   0  0  0  0  0  0  0  0  0  0  0  0
    5.1230   -5.5460   23.1020 C   0  0  0  0  0  0  0  0  0  0  0  0
    3.3340   -6.8050   24.3200 C   0  0  0  0  0  0  0  0  0  0  0  0
    1.5590   -5.4570   23.2350 C   0  0  0  0  0  0  0  0  0  0  0  0
    2.0660   -6.6610   23.9050 N   0  0  0  0  0  0  0  0  0  0  0  0
    3.7660   -7.8620   24.7760 O   0  0  0  0  0  0  0  0  0  0  0  0
   -0.9720   -5.8690   24.2390 S   0  0  0  0  0  0  0  0  0  0  0  0
    8.2260   -3.4410   18.6920 R#  0  0  0  0  0  0  0  0  0  0  0  0
  1  4  1  0  0  0  0
  1  8  1  0  0  0  0
  2  4  1  0  0  0  0
  3  4  2  0  0  0  0
  5 15  1  0  0  0  0
  5 18  1  0  0  0  0
  6  7  1  0  0  0  0
  6 18  1  0  0  0  0
  7 16  1  0  0  0  0
  8  9  2  0  0  0  0
  8 13  1  0  0  0  0
  9 10  1  0  0  0  0
 10 11  2  0  0  0  0
 11 12  1  0  0  0  0
 12 13  2  0  0  0  0
 12 14  1  0  0  0  0
 14 16  1  0  0  0  0
 14 17  2  0  0  0  0
 15 16  1  0  0  0  0
  2 19  1  0  0  0  0
M  RGP  1  19   1
M  END
$$$$
