@<TRIPOS>MOLECULE
LIG(A-1101)
   21    22     0     0     0
SMALL
NO_CHARGES

@<TRIPOS>ATOM
      1 N1          6.9680   -3.4520   21.1410 N.am      1 LIG1101     0.0000
      2 C1          6.8780   -2.8830   18.7650 C.3       1 LIG1101     0.0000
      3 O1          5.6290   -4.6190   19.7400 O.2       1 LIG1101     0.0000
      4 C2          6.4360   -3.7200   19.9270 C.2       1 LIG1101     0.0000
      5 C3          9.5600   -4.8900   26.5420 C.ar      1 LIG1101     0.0000
      6 C4          9.0540   -3.8050   25.8350 C.ar      1 LIG1101     0.0000
      7 C5          9.8450   -3.2250   24.7810 C.1       1 LIG1101     0.0000
      8 C6          7.8750   -2.3460   21.4810 C.3       1 LIG1101     0.0000
      9 C7          7.3120   -1.5140   22.6060 C.3       1 LIG1101     0.0000
     10 C8          6.0410   -3.4430   23.3840 C.3       1 LIG1101     0.0000
     11 C9          6.6360   -4.2930   22.2940 C.3       1 LIG1101     0.0000
     12 C10         7.8020   -3.2610   26.1730 C.ar      1 LIG1101     0.0000
     13 C11         7.0620   -3.8570   27.1910 C.ar      1 LIG1101     0.0000
     14 C12         7.5780   -4.9370   27.8830 C.ar      1 LIG1101     0.0000
     15 C13         8.8150   -5.4480   27.5630 C.ar      1 LIG1101     0.0000
     16 N2          7.0460   -2.4260   23.7260 N.pl3     1 LIG1101     0.0000
     17 N3         10.4740   -2.6640   24.0030 N.1       1 LIG1101     0.0000
     18 O2          8.0750   -0.8240   25.3080 O.2       1 LIG1101     0.0000
     19 O3          5.7880   -1.6740   25.7230 O.2       1 LIG1101     0.0000
     20 S1          7.1270   -1.8920   25.2740 S.o2      1 LIG1101     0.0000
     21 Du1         8.5740   -3.3830   18.4010 Du        1 LIG1101     0.0000
@<TRIPOS>BOND
     1    1    4 am
     2    1    8 1
     3    1   11 1
     4    2    4 1
     5    3    4 2
     6    5    6 ar
     7    5   15 ar
     8    6    7 1
     9    6   12 ar
    10    7   17 3
    11    8    9 1
    12    9   16 1
    13   10   11 1
    14   10   16 1
    15   12   13 ar
    16   12   20 1
    17   13   14 ar
    18   14   15 ar
    19   16   20 1
    20   18   20 2
    21   19   20 2
    22    2   21 1
