@<TRIPOS>MOLECULE
LIG(A-1101)
   30    31     0     0     0
SMALL
USER_CHARGES

@<TRIPOS>ATOM
      1 N1         23.7210   -8.0730    3.6400 N.pl3     1 LIG1101    -0.7337
      2 C1         25.1090   -7.1380    5.4480 C.3       1 LIG1101    -0.1091
      3 C2         23.6760   -7.2330    4.8710 C.3       1 LIG1101     0.1988
      4 C3         22.6500   -7.7310    5.9090 C.3       1 LIG1101    -0.1091
      5 C4         24.2170   -9.4690    3.8150 C.3       1 LIG1101     0.1767
      6 C5         23.9470   -7.4030    2.3980 C.ar      1 LIG1101     0.7502
      7 C6         24.0170   -5.3660    1.1710 C.ar      1 LIG1101     0.6921
      8 C7         24.4810   -7.2740    0.0140 C.ar      1 LIG1101     0.5892
      9 C8         25.1220   -7.7910   -2.4170 C.3       1 LIG1101     0.2292
     10 C9         24.5180   -9.4410    0.7170 C.2       1 LIG1101     0.3766
     11 C10        24.2920   -8.0960    1.1860 C.ar      1 LIG1101    -0.4800
     12 N2         23.8110   -6.0130    2.3700 N.ar      1 LIG1101    -0.8001
     13 N3         24.3510   -5.8880   -0.0350 N.ar      1 LIG1101    -0.7337
     14 N4         24.8010   -8.1480   -1.0240 N.pl3     1 LIG1101    -0.4060
     15 N5         24.8140   -9.4470   -0.5930 N.2       1 LIG1101    -0.4221
     16 H1         25.0980   -6.5211    6.3587 H         1 LIG1101     0.0424
     17 H2         25.4731   -8.1467    5.6929 H         1 LIG1101     0.0424
     18 H3         25.7747   -6.6789    4.7023 H         1 LIG1101     0.0424
     19 H4         23.3756   -6.2167    4.5760 H         1 LIG1101     0.0991
     20 H5         22.6673   -7.0705    6.7885 H         1 LIG1101     0.0424
     21 H6         21.6442   -7.7221    5.4637 H         1 LIG1101     0.0424
     22 H7         22.9064   -8.7559    6.2152 H         1 LIG1101     0.0424
     23 H8         24.2048   -9.9873    2.8448 H         1 LIG1101     0.0458
     24 H9         25.2450   -9.4465    4.2057 H         1 LIG1101     0.0458
     25 H10        23.5670  -10.0028    4.5239 H         1 LIG1101     0.0458
     26 H11        23.8954   -4.2931    1.1952 H         1 LIG1101     0.0520
     27 H12        26.0075   -7.1387   -2.4341 H         1 LIG1101     0.0617
     28 H13        25.3295   -8.7059   -2.9913 H         1 LIG1101     0.0617
     29 H14        24.2683   -7.2620   -2.8658 H         1 LIG1101     0.0617
     30 H15        24.4574  -10.3241    1.3357 H         1 LIG1101     0.0533
@<TRIPOS>BOND
     1    1    3 1
     2    1    5 1
     3    1    6 1
     4    2    3 1
     5    3    4 1
     6    6   11 ar
     7    6   12 ar
     8    7   12 ar
     9    7   13 ar
    10    8   11 ar
    11    8   13 ar
    12    8   14 1
    13    9   14 1
    14   10   11 1
    15   10   15 2
    16   14   15 1
    17    2   16 1
    18    2   17 1
    19    2   18 1
    20    3   19 1
    21    4   20 1
    22    4   21 1
    23    4   22 1
    24    5   23 1
    25    5   24 1
    26    5   25 1
    27    7   26 1
    28    9   27 1
    29    9   28 1
    30    9   29 1
    31   10   30 1
