@<TRIPOS>MOLECULE
LIG(A-1301)
   19    20     0     0     0
SMALL
NO_CHARGES

@<TRIPOS>ATOM
      1 N1          6.4720   -5.2070   21.7570 N.am      1 LIG1301     0.0000
      2 C1          7.6750   -3.6140   20.3270 C.3       1 LIG1301     0.0000
      3 O1          5.6570   -4.7360   19.7210 O.2       1 LIG1301     0.0000
      4 C2          6.5300   -4.5780   20.5670 C.2       1 LIG1301     0.0000
      5 C3          5.4190   -6.1550   22.1120 C.3       1 LIG1301     0.0000
      6 C4          4.6470   -5.6330   23.2920 C.3       1 LIG1301     0.0000
      7 C5          6.6530   -4.4430   24.0550 C.3       1 LIG1301     0.0000
      8 C6          7.4020   -4.9820   22.8660 C.3       1 LIG1301     0.0000
      9 C7          4.0460   -3.8690   26.0370 C.2       1 LIG1301     0.0000
     10 C8          4.5450   -2.6150   26.2980 C.2       1 LIG1301     0.0000
     11 C9          3.5710   -1.6150   26.0490 C.2       1 LIG1301     0.0000
     12 C10         2.3160   -2.1770   25.8450 C.2       1 LIG1301     0.0000
     13 N2          5.5850   -5.3950   24.4030 N.pl3     1 LIG1301     0.0000
     14 O2          4.0610   -6.4210   26.0440 O.2       1 LIG1301     0.0000
     15 O3          6.0940   -5.2160   26.7950 O.2       1 LIG1301     0.0000
     16 S1          4.9750   -5.3290   25.9130 S.o2      1 LIG1301     0.0000
     17 S2          2.3500   -3.8920   25.7960 S.3       1 LIG1301     0.0000
     18 Cl1         0.8310   -1.3450   25.6540 Cl        1 LIG1301     0.0000
     19 Du1         8.2310   -3.4650   18.6140 Du        1 LIG1301     0.0000
@<TRIPOS>BOND
     1    1    4 am
     2    1    5 1
     3    1    8 1
     4    2    4 1
     5    3    4 2
     6    5    6 1
     7    6   13 1
     8    7    8 1
     9    7   13 1
    10    9   10 2
    11    9   16 1
    12    9   17 1
    13   10   11 1
    14   11   12 2
    15   12   17 1
    16   12   18 1
    17   13   16 1
    18   14   16 2
    19   15   16 2
    20    2   19 1
