LIG(A-1101)
  -OEChem-04302000103D

 17 18  0     0  0  0  0  0  0999 V2000
   22.4840  -22.6120   19.6820 N   0  0  0  0  0  0  0  0  0  0  0  0
   24.9160  -20.0150   19.8210 C   0  0  0  0  0  0  0  0  0  0  0  0
   23.8160  -20.8430   20.1010 O   0  0  0  0  0  0  0  0  0  0  0  0
   23.5820  -21.9090   19.2580 C   0  0  0  0  0  0  0  0  0  0  0  0
   21.3690  -21.8690   14.4910 C   0  0  0  0  0  0  0  0  0  0  0  0
   21.6370  -22.8920   15.4090 C   0  0  0  0  0  0  0  0  0  0  0  0
   22.0330  -23.7430   19.0280 C   0  0  0  0  0  0  0  0  0  0  0  0
   21.2870  -25.9290   18.2920 C   0  0  0  0  0  0  0  0  0  0  0  0
   20.8970  -27.3500   18.2000 C   0  0  0  0  0  0  0  0  0  0  0  0
   21.5310  -23.7970   17.7200 C   0  0  0  0  0  0  0  0  0  0  0  0
   21.3390  -22.6980   16.7660 C   0  0  0  0  0  0  0  0  0  0  0  0
   20.7920  -21.4840   17.1990 C   0  0  0  0  0  0  0  0  0  0  0  0
   20.5270  -20.4650   16.2770 C   0  0  0  0  0  0  0  0  0  0  0  0
   20.8120  -20.6560   14.9240 C   0  0  0  0  0  0  0  0  0  0  0  0
   21.1100  -25.0750   17.3150 N   0  0  0  0  0  0  0  0  0  0  0  0
   24.2580  -22.1550   18.2810 O   0  0  0  0  0  0  0  0  0  0  0  0
   21.9830  -25.2860   19.7660 S   0  0  0  0  0  0  0  0  0  0  0  0
  1  4  1  0  0  0  0
  1  7  1  0  0  0  0
  2  3  1  0  0  0  0
  3  4  1  0  0  0  0
  4 16  2  0  0  0  0
  5  6  2  0  0  0  0
  5 14  1  0  0  0  0
  6 11  1  0  0  0  0
  7 10  2  0  0  0  0
  7 17  1  0  0  0  0
  8  9  1  0  0  0  0
  8 15  2  0  0  0  0
  8 17  1  0  0  0  0
 10 11  1  0  0  0  0
 10 15  1  0  0  0  0
 11 12  2  0  0  0  0
 12 13  1  0  0  0  0
 13 14  2  0  0  0  0
M  END
$$$$
