LIG(A-1101)
  -OEChem-04032019353D

 17 17  0     0  0  0  0  0  0999 V2000
    6.9050   -3.2530   26.5180 N   0  0  0  0  0  0  0  0  0  0  0  0
    8.8820   -4.6490   27.0870 C   0  0  0  0  0  0  0  0  0  0  0  0
    4.9020   -3.1340   25.4680 O   0  0  0  0  0  0  0  0  0  0  0  0
    7.4370   -4.3190   27.4040 C   0  0  0  0  0  0  0  0  0  0  0  0
    6.3720   -4.2150   20.1100 C   0  0  0  0  0  0  0  0  0  0  0  0
    6.9220   -3.0840   19.2830 C   0  0  0  0  0  0  0  0  0  0  0  0
    6.5500   -5.5470   27.4350 C   0  0  0  0  0  0  0  0  0  0  0  0
    7.4200   -1.9060   26.7830 C   0  0  0  0  0  0  0  0  0  0  0  0
    6.0860   -3.4870   25.4720 C   0  0  0  0  0  0  0  0  0  0  0  0
    6.7400   -4.0610   24.2270 C   0  0  0  0  0  0  0  0  0  0  0  0
    5.8010   -5.0010   23.4680 C   0  0  0  0  0  0  0  0  0  0  0  0
    6.4650   -5.5020   22.2100 C   0  0  0  0  0  0  0  0  0  0  0  0
    7.7930   -3.4550   22.0240 C   0  0  0  0  0  0  0  0  0  0  0  0
    7.1870   -2.9230   23.3010 C   0  0  0  0  0  0  0  0  0  0  0  0
    6.8590   -4.3720   21.3620 N   0  0  0  0  0  0  0  0  0  0  0  0
    5.5160   -4.9550   19.6440 O   0  0  0  0  0  0  0  0  0  0  0  0
    8.5020   -3.5110   18.4990 R#  0  0  0  0  0  0  0  0  0  0  0  0
  1  4  1  0  0  0  0
  1  8  1  0  0  0  0
  1  9  1  0  0  0  0
  2  4  1  0  0  0  0
  3  9  2  0  0  0  0
  4  7  1  0  0  0  0
  5  6  1  0  0  0  0
  5 15  1  0  0  0  0
  5 16  2  0  0  0  0
  9 10  1  0  0  0  0
 10 11  1  0  0  0  0
 10 14  1  0  0  0  0
 11 12  1  0  0  0  0
 12 15  1  0  0  0  0
 13 14  1  0  0  0  0
 13 15  1  0  0  0  0
  6 17  1  0  0  0  0
M  RGP  1  17   1
M  END
$$$$
