@<TRIPOS>MOLECULE
LIG(A-1101)
   18    19     0     0     0
SMALL
NO_CHARGES

@<TRIPOS>ATOM
      1 C1          6.7670   -4.3190   20.7050 C.2       1 LIG1101     0.0000
      2 C2          8.1870   -4.0260   20.2840 C.3       1 LIG1101     0.0000
      3 C3          7.6160   -4.9880   22.9190 C.ar      1 LIG1101     0.0000
      4 C4          8.6070   -5.9630   22.8250 C.ar      1 LIG1101     0.0000
      5 C5          9.5840   -6.0530   23.8030 C.ar      1 LIG1101     0.0000
      6 C6          9.5720   -5.2030   24.8870 C.ar      1 LIG1101     0.0000
      7 C7          8.5820   -4.2550   25.0000 C.ar      1 LIG1101     0.0000
      8 C8          7.6040   -4.1410   24.0250 C.ar      1 LIG1101     0.0000
      9 C9          5.2530   -5.4340   22.2710 C.3       1 LIG1101     0.0000
     10 C10         5.1650   -6.9160   21.9600 C.3       1 LIG1101     0.0000
     11 C11         4.1430   -7.4900   22.5690 C.3       1 LIG1101     0.0000
     12 C12         4.8990   -5.3190   23.7660 C.3       1 LIG1101     0.0000
     13 N1          6.5680   -4.8990   21.9350 N.am      1 LIG1101     0.0000
     14 O1          5.8320   -4.0540   19.9590 O.2       1 LIG1101     0.0000
     15 O2          4.4430   -7.5300   25.1700 O.2       1 LIG1101     0.0000
     16 O3          2.4940   -6.3430   24.2540 O.2       1 LIG1101     0.0000
     17 S1          3.8720   -6.7310   24.1180 S.o2      1 LIG1101     0.0000
     18 Du1         8.3110   -3.6080   18.5230 Du        1 LIG1101     0.0000
@<TRIPOS>BOND
     1    1    2 1
     2    1   13 am
     3    1   14 2
     4    3    4 ar
     5    3    8 ar
     6    3   13 1
     7    4    5 ar
     8    5    6 ar
     9    6    7 ar
    10    7    8 ar
    11    9   10 1
    12    9   12 1
    13    9   13 1
    14   10   11 1
    15   11   17 1
    16   12   17 1
    17   15   17 2
    18   16   17 2
    19    2   18 1
