@<TRIPOS>MOLECULE
LIG(A-1101)
   21    22     0     0     0
SMALL
NO_CHARGES

@<TRIPOS>ATOM
      1 N1          7.4370   -2.4900   23.7050 N.pl3     1 LIG1101     0.0000
      2 C1          6.0340   -5.1920   29.0800 C.3       1 LIG1101     0.0000
      3 O1          8.5950   -1.0530   25.3590 O.2       1 LIG1101     0.0000
      4 C2          7.0470   -4.8150   28.0280 C.ar      1 LIG1101     0.0000
      5 C3          6.7140   -4.1990   22.1800 C.3       1 LIG1101     0.0000
      6 C4          6.2850   -3.3160   23.3190 C.3       1 LIG1101     0.0000
      7 C5          6.6480   -3.5230   19.8180 C.2       1 LIG1101     0.0000
      8 C6          7.2240   -2.6780   18.7140 C.3       1 LIG1101     0.0000
      9 C7          8.1940   -5.5660   27.8410 C.ar      1 LIG1101     0.0000
     10 C8          9.1270   -5.2240   26.8770 C.ar      1 LIG1101     0.0000
     11 C9          8.9420   -4.1120   26.0600 C.ar      1 LIG1101     0.0000
     12 C10         9.9930   -3.8010   25.0290 C.3       1 LIG1101     0.0000
     13 C11         7.7830   -3.3490   26.2560 C.ar      1 LIG1101     0.0000
     14 C12         6.8490   -3.7050   27.2190 C.ar      1 LIG1101     0.0000
     15 C13         7.8540   -1.5980   22.6120 C.3       1 LIG1101     0.0000
     16 C14         8.2400   -2.4420   21.4230 C.3       1 LIG1101     0.0000
     17 N2          7.1710   -3.3790   21.0570 N.am      1 LIG1101     0.0000
     18 O2          6.1610   -1.4490   25.5430 O.2       1 LIG1101     0.0000
     19 O3          5.7570   -4.3250   19.5660 O.2       1 LIG1101     0.0000
     20 S1          7.4740   -1.9320   25.2450 S.o2      1 LIG1101     0.0000
     21 Du1         8.8300   -3.3500   18.2020 Du        1 LIG1101     0.0000
@<TRIPOS>BOND
     1    1    6 1
     2    1   15 1
     3    1   20 1
     4    2    4 1
     5    3   20 2
     6    4    9 ar
     7    4   14 ar
     8    5    6 1
     9    5   17 1
    10    7    8 1
    11    7   17 am
    12    7   19 2
    13    9   10 ar
    14   10   11 ar
    15   11   12 1
    16   11   13 ar
    17   13   14 ar
    18   13   20 1
    19   15   16 1
    20   16   17 1
    21   18   20 2
    22    8   21 1
