@<TRIPOS>MOLECULE
LIG(A-1101)
   21    23     0     0     0
SMALL
NO_CHARGES

@<TRIPOS>ATOM
      1 N1          6.8830   -2.1700   20.8180 N.am      1 LIG1101     0.0000
      2 C1          8.3440   -3.0280   19.1560 C.3       1 LIG1101     0.0000
      3 O1          5.9820   -3.3830   19.1230 O.2       1 LIG1101     0.0000
      4 C2          6.9520   -2.8770   19.6780 C.2       1 LIG1101     0.0000
      5 C3         12.0090    2.0390   24.6280 C.ar      1 LIG1101     0.0000
      6 C4         10.9990    2.3060   25.4940 C.ar      1 LIG1101     0.0000
      7 C5         10.0070    1.3490   25.7480 C.ar      1 LIG1101     0.0000
      8 C6         10.0300    0.1500   25.1030 C.ar      1 LIG1101     0.0000
      9 C7         11.0560   -0.1680   24.1750 C.ar      1 LIG1101     0.0000
     10 C8          7.9840   -3.2860   22.7300 C.3       1 LIG1101     0.0000
     11 C9          6.6770   -2.9150   22.0620 C.3       1 LIG1101     0.0000
     12 C10         7.8380   -1.0640   20.9480 C.3       1 LIG1101     0.0000
     13 C11         9.1040   -1.4560   21.6840 C.3       1 LIG1101     0.0000
     14 C12        10.0380   -2.4410   23.6830 C.3       1 LIG1101     0.0000
     15 C13        11.1220   -1.4100   23.4820 C.ar      1 LIG1101     0.0000
     16 C14        12.1410   -1.6220   22.5880 C.ar      1 LIG1101     0.0000
     17 C15        13.1440   -0.6630   22.3680 C.ar      1 LIG1101     0.0000
     18 C16        13.1080    0.5210   23.0270 C.ar      1 LIG1101     0.0000
     19 C17        12.0670    0.8060   23.9410 C.ar      1 LIG1101     0.0000
     20 N2          8.8040   -2.1000   22.9650 N.4       1 LIG1101     0.0000
     21 Du1         9.0390   -3.2560   17.5180 Du        1 LIG1101     0.0000
@<TRIPOS>BOND
     1    1    4 am
     2    1   11 1
     3    1   12 1
     4    2    4 1
     5    3    4 2
     6    5    6 ar
     7    5   19 ar
     8    6    7 ar
     9    7    8 ar
    10    8    9 ar
    11    9   15 ar
    12    9   19 ar
    13   10   11 1
    14   10   20 1
    15   12   13 1
    16   13   20 1
    17   14   15 1
    18   14   20 1
    19   15   16 ar
    20   16   17 ar
    21   17   18 ar
    22   18   19 ar
    23    2   21 1
