LIG(A-1101)
  -OEChem-04162023493D

 15 16  0     1  0  0  0  0  0999 V2000
   22.0010   20.1960    4.0200 C   0  0  0  0  0  0  0  0  0  0  0  0
   20.7810   19.3500    4.2670 C   0  0  1  0  0  0  0  0  0  0  0  0
   21.1850   17.8560    4.2470 C   0  0  0  0  0  0  0  0  0  0  0  0
   22.4000   16.3550    5.4930 C   0  0  0  0  0  0  0  0  0  0  0  0
   21.9050   15.1130    6.2280 C   0  0  0  0  0  0  0  0  0  0  0  0
   22.5230   13.9140    5.9320 C   0  0  0  0  0  0  0  0  0  0  0  0
   22.1250   12.7520    6.5580 C   0  0  0  0  0  0  0  0  0  0  0  0
   21.1100   12.7760    7.4950 C   0  0  0  0  0  0  0  0  0  0  0  0
   20.4990   13.9550    7.8000 C   0  0  0  0  0  0  0  0  0  0  0  0
   20.8960   15.1310    7.1630 C   0  0  0  0  0  0  0  0  0  0  0  0
   21.7660   18.2470    6.5450 C   0  0  0  0  0  0  0  0  0  0  0  0
   20.6070   19.2510    6.6820 C   0  0  0  0  0  0  0  0  0  0  0  0
   21.5320   17.3110    5.5280 N   0  3  1  0  0  0  0  0  0  0  0  0
   21.8880   21.3810    4.6910 O   0  0  0  0  0  0  0  0  0  0  0  0
   20.1250   19.7740    5.4500 O   0  0  0  0  0  0  0  0  0  0  0  0
  1  2  1  0  0  0  0
  1 14  1  0  0  0  0
  2  3  1  0  0  0  0
  2 15  1  0  0  0  0
  3 13  1  0  0  0  0
  4  5  1  0  0  0  0
  4 13  1  0  0  0  0
  5  6  2  0  0  0  0
  5 10  1  0  0  0  0
  6  7  1  0  0  0  0
  7  8  2  0  0  0  0
  8  9  1  0  0  0  0
  9 10  2  0  0  0  0
 11 12  1  0  0  0  0
 11 13  1  0  0  0  0
 12 15  1  0  0  0  0
M  CHG  1  13   1
M  END
$$$$
