@<TRIPOS>MOLECULE
LIG(A-1101)
   20    21     0     0     0
SMALL
NO_CHARGES

@<TRIPOS>ATOM
      1 N1          5.4910   -5.3150   24.3760 N.pl3     1 LIG1101     0.0000
      2 C1          4.2140   -2.5770   26.0540 C.ar      1 LIG1101     0.0000
      3 O1          5.7950   -5.0800   26.8010 O.2       1 LIG1101     0.0000
      4 C2          3.3880   -1.4770   26.1030 C.ar      1 LIG1101     0.0000
      5 C3          6.6430   -4.4330   20.5730 C.2       1 LIG1101     0.0000
      6 C4          7.8190   -3.5260   20.3310 C.3       1 LIG1101     0.0000
      7 C5          2.0210   -1.6590   26.0000 C.ar      1 LIG1101     0.0000
      8 C6          1.4860   -2.9190   25.8470 C.ar      1 LIG1101     0.0000
      9 C7          2.3140   -4.0250   25.7940 C.ar      1 LIG1101     0.0000
     10 C8          3.6900   -3.8630   25.8940 C.ar      1 LIG1101     0.0000
     11 C9          6.4480   -4.2370   24.0840 C.3       1 LIG1101     0.0000
     12 C10         7.3480   -4.6760   22.9610 C.3       1 LIG1101     0.0000
     13 C11         5.5840   -6.0800   22.0820 C.3       1 LIG1101     0.0000
     14 C12         4.6710   -5.6580   23.2030 C.3       1 LIG1101     0.0000
     15 F1          5.5490   -2.3870   26.1580 F         1 LIG1101     0.0000
     16 N2          6.5430   -5.0180   21.7880 N.am      1 LIG1101     0.0000
     17 O2          3.9240   -6.4370   25.9220 O.2       1 LIG1101     0.0000
     18 O3          5.8190   -4.6190   19.6880 O.2       1 LIG1101     0.0000
     19 S1          4.7540   -5.2750   25.8410 S.o2      1 LIG1101     0.0000
     20 Du1         8.3120   -3.4000   18.5890 Du        1 LIG1101     0.0000
@<TRIPOS>BOND
     1    1   11 1
     2    1   14 1
     3    1   19 1
     4    2    4 ar
     5    2   10 ar
     6    2   15 1
     7    3   19 2
     8    4    7 ar
     9    5    6 1
    10    5   16 am
    11    5   18 2
    12    7    8 ar
    13    8    9 ar
    14    9   10 ar
    15   10   19 1
    16   11   12 1
    17   12   16 1
    18   13   14 1
    19   13   16 1
    20   17   19 2
    21    6   20 1
