LIG(A-1101)
  -OEChem-04162023253D

 20 20  0     1  0  0  0  0  0999 V2000
    7.7120    4.9760   22.5680 C   0  0  0  0  0  0  0  0  0  0  0  0
    6.9510   -0.2240   20.1690 C   0  0  0  0  0  0  0  0  0  0  0  0
    9.0430    0.4530   22.3300 C   0  0  0  0  0  0  0  0  0  0  0  0
    9.9800   -1.7280   21.8820 C   0  0  0  0  0  0  0  0  0  0  0  0
   11.3510   -1.5920   22.3760 C   0  0  0  0  0  0  0  0  0  0  0  0
   12.4580   -1.6420   22.8330 C   0  0  0  0  0  0  0  0  0  0  0  0
    7.2810    3.5960   22.9500 C   0  0  0  0  0  0  0  0  0  0  0  0
    7.8660    1.2230   22.9140 C   0  0  2  0  0  0  0  0  0  0  0  0
    6.5260    0.5830   22.5150 C   0  0  0  0  0  0  0  0  0  0  0  0
    6.2730    0.6260   21.0280 C   0  0  0  0  0  0  0  0  0  0  0  0
    5.3860    1.5380   20.4750 C   0  0  0  0  0  0  0  0  0  0  0  0
    5.1740    1.5990   19.1080 C   0  0  0  0  0  0  0  0  0  0  0  0
    5.8630    0.7370   18.2730 C   0  0  0  0  0  0  0  0  0  0  0  0
    6.7550   -0.1720   18.8020 C   0  0  0  0  0  0  0  0  0  0  0  0
    7.9910    2.5940   22.4400 N   0  0  0  0  0  0  0  0  0  0  0  0
    9.0960   -0.8440   22.6110 N   0  0  0  0  0  0  0  0  0  0  0  0
    6.3070    3.3850   23.6640 O   0  0  0  0  0  0  0  0  0  0  0  0
    5.7020    0.7840   16.9300 O   0  0  0  0  0  0  0  0  0  0  0  0
    9.8660    1.0170   21.6110 O   0  0  0  0  0  0  0  0  0  0  0  0
   14.1800   -1.9250   23.6600 Br  0  0  0  0  0  0  0  0  0  0  0  0
  1  7  1  0  0  0  0
  2 10  2  0  0  0  0
  2 14  1  0  0  0  0
  3  8  1  0  0  0  0
  3 16  1  0  0  0  0
  3 19  2  0  0  0  0
  4  5  1  0  0  0  0
  4 16  1  0  0  0  0
  5  6  3  0  0  0  0
  6 20  1  0  0  0  0
  7 15  1  0  0  0  0
  7 17  2  0  0  0  0
  8  9  1  0  0  0  0
  8 15  1  0  0  0  0
  9 10  1  0  0  0  0
 10 11  1  0  0  0  0
 11 12  2  0  0  0  0
 12 13  1  0  0  0  0
 13 14  2  0  0  0  0
 13 18  1  0  0  0  0
M  END
$$$$
