@<TRIPOS>MOLECULE
LIG(A-1101)
   20    20     0     0     0
SMALL
NO_CHARGES

@<TRIPOS>ATOM
      1 C1          7.7120    4.9760   22.5680 C.3       1 LIG1101     0.0000
      2 C2          6.9510   -0.2240   20.1690 C.ar      1 LIG1101     0.0000
      3 C3          9.0430    0.4530   22.3300 C.2       1 LIG1101     0.0000
      4 C4          9.9800   -1.7280   21.8820 C.3       1 LIG1101     0.0000
      5 C5         11.3510   -1.5920   22.3760 C.1       1 LIG1101     0.0000
      6 C6         12.4580   -1.6420   22.8330 C.1       1 LIG1101     0.0000
      7 C7          7.2810    3.5960   22.9500 C.2       1 LIG1101     0.0000
      8 C8          7.8660    1.2230   22.9140 C.3       1 LIG1101     0.0000
      9 C9          6.5260    0.5830   22.5150 C.3       1 LIG1101     0.0000
     10 C10         6.2730    0.6260   21.0280 C.ar      1 LIG1101     0.0000
     11 C11         5.3860    1.5380   20.4750 C.ar      1 LIG1101     0.0000
     12 C12         5.1740    1.5990   19.1080 C.ar      1 LIG1101     0.0000
     13 C13         5.8630    0.7370   18.2730 C.ar      1 LIG1101     0.0000
     14 C14         6.7550   -0.1720   18.8020 C.ar      1 LIG1101     0.0000
     15 N1          7.9910    2.5940   22.4400 N.am      1 LIG1101     0.0000
     16 N2          9.0960   -0.8440   22.6110 N.am      1 LIG1101     0.0000
     17 O1          6.3070    3.3850   23.6640 O.2       1 LIG1101     0.0000
     18 O2          5.7020    0.7840   16.9300 O.3       1 LIG1101     0.0000
     19 O3          9.8660    1.0170   21.6110 O.2       1 LIG1101     0.0000
     20 Br1        14.1800   -1.9250   23.6600 Br        1 LIG1101     0.0000
@<TRIPOS>BOND
     1    1    7 1
     2    2   10 ar
     3    2   14 ar
     4    3    8 1
     5    3   16 am
     6    3   19 2
     7    4    5 1
     8    4   16 1
     9    5    6 3
    10    6   20 1
    11    7   15 am
    12    7   17 2
    13    8    9 1
    14    8   15 1
    15    9   10 1
    16   10   11 ar
    17   11   12 ar
    18   12   13 ar
    19   13   14 ar
    20   13   18 1
