@<TRIPOS>MOLECULE
LIG(A-1101)
   20    21     0     0     0
SMALL
NO_CHARGES

@<TRIPOS>ATOM
      1 N1          6.0560   -5.2800   24.2180 N.pl3     1 LIG1101     0.0000
      2 C1          0.9880   -1.1520   25.8930 C.3       1 LIG1101     0.0000
      3 O1          6.4980   -4.8020   26.5850 O.2       1 LIG1101     0.0000
      4 C2          2.0890   -2.1710   25.8530 C.ar      1 LIG1101     0.0000
      5 C3          6.6760   -4.0460   23.7090 C.3       1 LIG1101     0.0000
      6 C4          6.4680   -4.6290   20.3360 C.2       1 LIG1101     0.0000
      7 C5          7.0960   -3.3370   19.8890 C.3       1 LIG1101     0.0000
      8 C6          3.3180   -1.9070   26.4330 C.ar      1 LIG1101     0.0000
      9 C7          4.3440   -2.8330   26.4060 C.ar      1 LIG1101     0.0000
     10 C8          4.1400   -4.0520   25.7780 C.ar      1 LIG1101     0.0000
     11 C9          2.9170   -4.3420   25.1950 C.ar      1 LIG1101     0.0000
     12 C10         1.9070   -3.3990   25.2360 C.ar      1 LIG1101     0.0000
     13 C11         5.2670   -5.9550   23.1760 C.3       1 LIG1101     0.0000
     14 C12         6.2020   -6.3350   22.0600 C.3       1 LIG1101     0.0000
     15 C13         7.5840   -4.3890   22.5560 C.3       1 LIG1101     0.0000
     16 N2          6.8470   -5.1330   21.5300 N.am      1 LIG1101     0.0000
     17 O2          4.8420   -6.5300   25.9650 O.2       1 LIG1101     0.0000
     18 O3          5.6280   -5.1740   19.6320 O.2       1 LIG1101     0.0000
     19 S1          5.4390   -5.2520   25.7370 S.o2      1 LIG1101     0.0000
     20 Du1         8.3940   -3.4530   18.6210 Du        1 LIG1101     0.0000
@<TRIPOS>BOND
     1    1    5 1
     2    1   13 1
     3    1   19 1
     4    2    4 1
     5    3   19 2
     6    4    8 ar
     7    4   12 ar
     8    5   15 1
     9    6    7 1
    10    6   16 am
    11    6   18 2
    12    8    9 ar
    13    9   10 ar
    14   10   11 ar
    15   10   19 1
    16   11   12 ar
    17   13   14 1
    18   14   16 1
    19   15   16 1
    20   17   19 2
    21    7   20 1
