@<TRIPOS>MOLECULE
LIG(A-1101)
   17    18     0     0     0
SMALL
NO_CHARGES

@<TRIPOS>ATOM
      1 C1          6.7450   -3.4880   19.9100 C.2       1 LIG1101     0.0000
      2 C2          7.3820   -2.7180   18.7850 C.3       1 LIG1101     0.0000
      3 C3          6.5310   -3.8610   22.3400 C.3       1 LIG1101     0.0000
      4 C4          7.6460   -4.4730   23.1540 C.3       1 LIG1101     0.0000
      5 C5          8.5570   -2.2920   22.9330 C.3       1 LIG1101     0.0000
      6 C6          9.8400   -1.5330   23.1720 C.ar      1 LIG1101     0.0000
      7 C7          9.9790   -0.7790   24.3240 C.ar      1 LIG1101     0.0000
      8 C8         11.1330   -0.0670   24.5750 C.ar      1 LIG1101     0.0000
      9 C9         12.1360   -0.1260   23.6590 C.ar      1 LIG1101     0.0000
     10 C10        12.0540   -0.8540   22.5070 C.ar      1 LIG1101     0.0000
     11 C11        10.8930   -1.5660   22.2700 C.ar      1 LIG1101     0.0000
     12 C12         7.9560   -2.0460   21.5550 C.3       1 LIG1101     0.0000
     13 F1         13.2710    0.5760   23.9140 F         1 LIG1101     0.0000
     14 N1          7.0780   -3.1500   21.1750 N.am      1 LIG1101     0.0000
     15 O1          5.9590   -4.3930   19.6590 O.2       1 LIG1101     0.0000
     16 O2          8.8360   -3.6720   23.1220 O.3       1 LIG1101     0.0000
     17 Du1         8.9530   -3.4960   18.3230 Du        1 LIG1101     0.0000
@<TRIPOS>BOND
     1    1    2 1
     2    1   14 am
     3    1   15 2
     4    3    4 1
     5    3   14 1
     6    4   16 1
     7    5    6 1
     8    5   12 1
     9    5   16 1
    10    6    7 ar
    11    6   11 ar
    12    7    8 ar
    13    8    9 ar
    14    9   10 ar
    15    9   13 1
    16   10   11 ar
    17   12   14 1
    18    2   17 1
