@<TRIPOS>MOLECULE
LIG(A-1101)
   19    20     0     0     0
SMALL
NO_CHARGES

@<TRIPOS>ATOM
      1 N1          6.8580   -4.3150   21.9100 N.am      1 LIG1101     0.0000
      2 C1          7.7780   -4.7660   19.8290 C.3       1 LIG1101     0.0000
      3 O1          5.4640   -4.2410   20.1140 O.2       1 LIG1101     0.0000
      4 C2          6.5600   -4.4090   20.6160 C.2       1 LIG1101     0.0000
      5 C3          0.4670   -4.8070   24.0550 C.3       1 LIG1101     0.0000
      6 C4         -0.0860   -7.2830   24.9110 C.3       1 LIG1101     0.0000
      7 C5          1.0610   -7.7230   24.0300 C.3       1 LIG1101     0.0000
      8 C6          5.9810   -4.4560   22.9970 C.ar      1 LIG1101     0.0000
      9 C7          5.9720   -3.4450   23.9510 C.ar      1 LIG1101     0.0000
     10 C8          5.1100   -3.5330   25.0210 C.ar      1 LIG1101     0.0000
     11 C9          4.2590   -4.6180   25.1460 C.ar      1 LIG1101     0.0000
     12 C10         4.2630   -5.6330   24.1970 C.ar      1 LIG1101     0.0000
     13 C11         5.1230   -5.5460   23.1020 C.ar      1 LIG1101     0.0000
     14 C12         3.3340   -6.8050   24.3200 C.2       1 LIG1101     0.0000
     15 C13         1.5590   -5.4570   23.2350 C.3       1 LIG1101     0.0000
     16 N2          2.0660   -6.6610   23.9050 N.am      1 LIG1101     0.0000
     17 O2          3.7660   -7.8620   24.7760 O.2       1 LIG1101     0.0000
     18 S1         -0.9720   -5.8690   24.2390 S.3       1 LIG1101     0.0000
     19 Du1         8.2260   -3.4410   18.6920 Du        1 LIG1101     0.0000
@<TRIPOS>BOND
     1    1    4 am
     2    1    8 1
     3    2    4 1
     4    3    4 2
     5    5   15 1
     6    5   18 1
     7    6    7 1
     8    6   18 1
     9    7   16 1
    10    8    9 ar
    11    8   13 ar
    12    9   10 ar
    13   10   11 ar
    14   11   12 ar
    15   12   13 ar
    16   12   14 1
    17   14   16 am
    18   14   17 2
    19   15   16 1
    20    2   19 1
