@<TRIPOS>MOLECULE
LIG(A-1101)
   17    18     0     0     0
SMALL
NO_CHARGES

@<TRIPOS>ATOM
      1 N1          7.1410   -4.7630   21.6250 N.am      1 LIG1101     0.0000
      2 C1          7.4740   -2.4320   22.4220 C.3       1 LIG1101     0.0000
      3 O1          5.6070   -5.1620   20.0230 O.2       1 LIG1101     0.0000
      4 C2          7.4090   -3.9090   22.7920 C.3       1 LIG1101     0.0000
      5 C3          7.5630   -4.1780   28.0230 C.ar      1 LIG1101     0.0000
      6 C4          8.5330   -3.9520   27.0370 C.ar      1 LIG1101     0.0000
      7 C5          8.1870   -3.9360   25.7180 C.ar      1 LIG1101     0.0000
      8 C6          6.8450   -4.1520   25.2970 C.ar      1 LIG1101     0.0000
      9 C7          6.4840   -4.4380   20.4990 C.2       1 LIG1101     0.0000
     10 C8          6.8510   -3.2640   19.6010 C.3       1 LIG1101     0.0000
     11 C9          6.4170   -4.1560   23.9210 C.ar      1 LIG1101     0.0000
     12 C10         5.0900   -4.3770   23.6380 C.ar      1 LIG1101     0.0000
     13 C11         4.1400   -4.5930   24.6530 C.ar      1 LIG1101     0.0000
     14 C12         4.5220   -4.5950   25.9530 C.ar      1 LIG1101     0.0000
     15 C13         5.8710   -4.3770   26.3160 C.ar      1 LIG1101     0.0000
     16 C14         6.2680   -4.3830   27.6750 C.ar      1 LIG1101     0.0000
     17 Du1         8.4210   -3.5050   18.7130 Du        1 LIG1101     0.0000
@<TRIPOS>BOND
     1    1    4 1
     2    1    9 am
     3    2    4 1
     4    3    9 2
     5    4   11 1
     6    5    6 ar
     7    5   16 ar
     8    6    7 ar
     9    7    8 ar
    10    8   11 ar
    11    8   15 ar
    12    9   10 1
    13   11   12 ar
    14   12   13 ar
    15   13   14 ar
    16   14   15 ar
    17   15   16 ar
    18   10   17 1
