@<TRIPOS>MOLECULE
LIG(A-1101)
   16    17     0     0     0
SMALL
NO_CHARGES

@<TRIPOS>ATOM
      1 C1          9.4620    0.1790   21.3990 C.2       1 LIG1101     0.0000
      2 C2         10.0510   -0.3120   22.7150 C.3       1 LIG1101     0.0000
      3 C3         11.5700   -0.2260   22.7370 C.3       1 LIG1101     0.0000
      4 C4         12.1880   -1.1720   21.7080 C.3       1 LIG1101     0.0000
      5 C5         13.4460   -1.8740   22.2130 C.3       1 LIG1101     0.0000
      6 C6         14.2900   -1.0480   23.1730 C.3       1 LIG1101     0.0000
      7 C7         13.4970   -0.3390   24.2650 C.3       1 LIG1101     0.0000
      8 C8         11.9940   -0.5570   24.1570 C.3       1 LIG1101     0.0000
      9 C9          7.5430    0.0720   19.8490 C.ar      1 LIG1101     0.0000
     10 C10         6.2960    0.6690   20.0040 C.ar      1 LIG1101     0.0000
     11 C11         5.6620    1.1060   18.8460 C.ar      1 LIG1101     0.0000
     12 C12         6.3070    0.9290   17.6300 C.ar      1 LIG1101     0.0000
     13 C13         8.1460   -0.0680   18.6140 C.ar      1 LIG1101     0.0000
     14 N1          8.1920   -0.3690   21.0460 N.am      1 LIG1101     0.0000
     15 N2          7.5030    0.3630   17.5510 N.ar      1 LIG1101     0.0000
     16 O1         10.0000    0.9720   20.6940 O.2       1 LIG1101     0.0000
@<TRIPOS>BOND
     1    1    2 1
     2    1   14 am
     3    1   16 2
     4    2    3 1
     5    3    4 1
     6    3    8 1
     7    4    5 1
     8    5    6 1
     9    6    7 1
    10    7    8 1
    11    9   10 ar
    12    9   13 ar
    13    9   14 1
    14   10   11 ar
    15   11   12 ar
    16   12   15 ar
    17   13   15 ar
