LIG(A-1101)
  -OEChem-04302000233D

 17 18  0     1  0  0  0  0  0999 V2000
    7.1410   -4.7630   21.6250 N   0  0  0  0  0  0  0  0  0  0  0  0
    7.4740   -2.4320   22.4220 C   0  0  0  0  0  0  0  0  0  0  0  0
    5.6070   -5.1620   20.0230 O   0  0  0  0  0  0  0  0  0  0  0  0
    7.4090   -3.9090   22.7920 C   0  0  1  0  0  0  0  0  0  0  0  0
    7.5630   -4.1780   28.0230 C   0  0  0  0  0  0  0  0  0  0  0  0
    8.5330   -3.9520   27.0370 C   0  0  0  0  0  0  0  0  0  0  0  0
    8.1870   -3.9360   25.7180 C   0  0  0  0  0  0  0  0  0  0  0  0
    6.8450   -4.1520   25.2970 C   0  0  0  0  0  0  0  0  0  0  0  0
    6.4840   -4.4380   20.4990 C   0  0  0  0  0  0  0  0  0  0  0  0
    6.8510   -3.2640   19.6010 C   0  0  0  0  0  0  0  0  0  0  0  0
    6.4170   -4.1560   23.9210 C   0  0  0  0  0  0  0  0  0  0  0  0
    5.0900   -4.3770   23.6380 C   0  0  0  0  0  0  0  0  0  0  0  0
    4.1400   -4.5930   24.6530 C   0  0  0  0  0  0  0  0  0  0  0  0
    4.5220   -4.5950   25.9530 C   0  0  0  0  0  0  0  0  0  0  0  0
    5.8710   -4.3770   26.3160 C   0  0  0  0  0  0  0  0  0  0  0  0
    6.2680   -4.3830   27.6750 C   0  0  0  0  0  0  0  0  0  0  0  0
    8.4210   -3.5050   18.7130 R#  0  0  0  0  0  0  0  0  0  0  0  0
  1  4  1  0  0  0  0
  1  9  1  0  0  0  0
  2  4  1  0  0  0  0
  3  9  2  0  0  0  0
  4 11  1  0  0  0  0
  5  6  2  0  0  0  0
  5 16  1  0  0  0  0
  6  7  1  0  0  0  0
  7  8  2  0  0  0  0
  8 11  1  0  0  0  0
  8 15  1  0  0  0  0
  9 10  1  0  0  0  0
 11 12  2  0  0  0  0
 12 13  1  0  0  0  0
 13 14  2  0  0  0  0
 14 15  1  0  0  0  0
 15 16  2  0  0  0  0
 10 17  1  0  0  0  0
M  RGP  1  17   1
M  END
$$$$
