@<TRIPOS>MOLECULE
LIG(A-1101)
   15    16     0     0     0
SMALL
NO_CHARGES

@<TRIPOS>ATOM
      1 N1          9.9780    1.4800   21.3330 N.1       1 LIG1101     0.0000
      2 C1          9.8370    0.5150   21.9430 C.1       1 LIG1101     0.0000
      3 O1          7.3700   -5.8530   25.4070 O.3       1 LIG1101     0.0000
      4 C2          9.6670   -0.6350   22.7340 C.ar      1 LIG1101     0.0000
      5 C3          8.7780   -4.1340   26.4660 C.3       1 LIG1101     0.0000
      6 C4          8.9630   -0.5320   23.9220 C.ar      1 LIG1101     0.0000
      7 C5          8.8900   -1.6410   24.7590 C.ar      1 LIG1101     0.0000
      8 C6          9.5270   -2.8480   24.4040 C.ar      1 LIG1101     0.0000
      9 C7         10.1990   -2.8390   23.1360 C.ar      1 LIG1101     0.0000
     10 C8          9.9640   -5.3500   24.6430 C.3       1 LIG1101     0.0000
     11 C9          8.9750   -5.8560   23.5870 C.3       1 LIG1101     0.0000
     12 C10         7.5100   -5.6370   24.0070 C.3       1 LIG1101     0.0000
     13 C11         7.3610   -4.7240   26.2460 C.3       1 LIG1101     0.0000
     14 N2         10.2800   -1.7800   22.3120 N.ar      1 LIG1101     0.0000
     15 N3          9.6050   -4.0300   25.2320 N.pl3     1 LIG1101     0.0000
@<TRIPOS>BOND
     1    1    2 3
     2    2    4 1
     3    3   12 1
     4    3   13 1
     5    4    6 ar
     6    4   14 ar
     7    5   13 1
     8    5   15 1
     9    6    7 ar
    10    7    8 ar
    11    8    9 ar
    12    8   15 1
    13    9   14 ar
    14   10   11 1
    15   10   15 1
    16   11   12 1
