LIG(A-1101)
  -OEChem-04302000473D

 19 20  0     1  0  0  0  0  0999 V2000
    6.7380   -4.3620   20.9160 C   0  0  0  0  0  0  0  0  0  0  0  0
    8.0390   -3.6990   20.5190 C   0  0  0  0  0  0  0  0  0  0  0  0
    7.5590   -4.5590   23.2100 C   0  0  0  0  0  0  0  0  0  0  0  0
    8.0330   -3.3810   23.7820 C   0  0  0  0  0  0  0  0  0  0  0  0
    9.0640   -3.4280   24.7080 C   0  0  0  0  0  0  0  0  0  0  0  0
    9.5930   -4.6450   25.0370 C   0  0  0  0  0  0  0  0  0  0  0  0
    9.1520   -5.8190   24.4970 C   0  0  0  0  0  0  0  0  0  0  0  0
    8.1190   -5.7780   23.5760 C   0  0  0  0  0  0  0  0  0  0  0  0
    5.1140   -4.7170   22.7420 C   0  0  2  0  0  0  0  0  0  0  0  0
    4.9640   -4.3570   24.2200 C   0  0  0  0  0  0  0  0  0  0  0  0
    4.2050   -5.1890   24.9280 C   0  0  0  0  0  0  0  0  0  0  0  0
    4.6940   -6.1880   22.5810 C   0  0  0  0  0  0  0  0  0  0  0  0
   10.6110   -4.6920   25.9370 F   0  0  0  0  0  0  0  0  0  0  0  0
    6.4830   -4.5230   22.2610 N   0  0  0  0  0  0  0  0  0  0  0  0
    5.9510   -4.7480   20.0600 O   0  0  0  0  0  0  0  0  0  0  0  0
    2.6560   -7.1010   24.0200 O   0  0  0  0  0  0  0  0  0  0  0  0
    4.9210   -7.7050   24.7510 O   0  0  0  0  0  0  0  0  0  0  0  0
    4.0430   -6.7410   24.1440 S   0  0  0  0  0  0  0  0  0  0  0  0
    8.3090   -3.4620   18.7290 R#  0  0  0  0  0  0  0  0  0  0  0  0
  1  2  1  0  0  0  0
  1 14  1  0  0  0  0
  1 15  2  0  0  0  0
  3  4  2  0  0  0  0
  3  8  1  0  0  0  0
  3 14  1  0  0  0  0
  4  5  1  0  0  0  0
  5  6  2  0  0  0  0
  6  7  1  0  0  0  0
  6 13  1  0  0  0  0
  7  8  2  0  0  0  0
  9 10  1  0  0  0  0
  9 12  1  0  0  0  0
  9 14  1  0  0  0  0
 10 11  1  0  0  0  0
 11 18  1  0  0  0  0
 12 18  1  0  0  0  0
 16 18  2  0  0  0  0
 17 18  2  0  0  0  0
  2 19  1  0  0  0  0
M  RGP  1  19   1
M  END
$$$$
