LIG(A-1101)
  -OEChem-04302000063D

 18 19  0     0  0  0  0  0  0999 V2000
    6.7690   -4.2560   21.4030 N   0  0  0  0  0  0  0  0  0  0  0  0
    6.8570   -3.0210   19.2750 C   0  0  0  0  0  0  0  0  0  0  0  0
    5.4850   -4.9040   19.6590 O   0  0  0  0  0  0  0  0  0  0  0  0
    6.3150   -4.1360   20.1320 C   0  0  0  0  0  0  0  0  0  0  0  0
    7.0460   -4.7320   29.1990 C   0  0  0  0  0  0  0  0  0  0  0  0
    5.6060   -4.3430   28.9100 C   0  0  0  0  0  0  0  0  0  0  0  0
    5.5130   -3.1880   27.9270 C   0  0  0  0  0  0  0  0  0  0  0  0
    7.6890   -3.3490   22.1040 C   0  0  0  0  0  0  0  0  0  0  0  0
    7.0030   -2.7450   23.3130 C   0  0  0  0  0  0  0  0  0  0  0  0
    6.4670   -3.8470   24.2350 C   0  0  0  0  0  0  0  0  0  0  0  0
    5.5580   -4.7750   23.4460 C   0  0  0  0  0  0  0  0  0  0  0  0
    6.2990   -5.3480   22.2630 C   0  0  0  0  0  0  0  0  0  0  0  0
    5.7570   -3.2940   25.4510 C   0  0  0  0  0  0  0  0  0  0  0  0
    7.6910   -3.7900   27.0000 C   0  0  0  0  0  0  0  0  0  0  0  0
    7.7690   -5.0060   27.8950 C   0  0  0  0  0  0  0  0  0  0  0  0
    6.2960   -3.4370   26.7080 N   0  0  0  0  0  0  0  0  0  0  0  0
    4.6740   -2.7310   25.3100 O   0  0  0  0  0  0  0  0  0  0  0  0
    8.4550   -3.4660   18.5330 R#  0  0  0  0  0  0  0  0  0  0  0  0
  1  4  1  0  0  0  0
  1  8  1  0  0  0  0
  1 12  1  0  0  0  0
  2  4  1  0  0  0  0
  3  4  2  0  0  0  0
  5  6  1  0  0  0  0
  5 15  1  0  0  0  0
  6  7  1  0  0  0  0
  7 16  1  0  0  0  0
  8  9  1  0  0  0  0
  9 10  1  0  0  0  0
 10 11  1  0  0  0  0
 10 13  1  0  0  0  0
 11 12  1  0  0  0  0
 13 16  1  0  0  0  0
 13 17  2  0  0  0  0
 14 15  1  0  0  0  0
 14 16  1  0  0  0  0
  2 18  1  0  0  0  0
M  RGP  1  18   1
M  END
$$$$
