LIG(A-1101)
  -OEChem-04302000143D

 21 22  0     0  0  0  0  0  0999 V2000
    6.9680   -3.4520   21.1410 N   0  0  0  0  0  0  0  0  0  0  0  0
    6.8780   -2.8830   18.7650 C   0  0  0  0  0  0  0  0  0  0  0  0
    5.6290   -4.6190   19.7400 O   0  0  0  0  0  0  0  0  0  0  0  0
    6.4360   -3.7200   19.9270 C   0  0  0  0  0  0  0  0  0  0  0  0
    9.5600   -4.8900   26.5420 C   0  0  0  0  0  0  0  0  0  0  0  0
    9.0540   -3.8050   25.8350 C   0  0  0  0  0  0  0  0  0  0  0  0
    9.8450   -3.2250   24.7810 C   0  0  0  0  0  0  0  0  0  0  0  0
    7.8750   -2.3460   21.4810 C   0  0  0  0  0  0  0  0  0  0  0  0
    7.3120   -1.5140   22.6060 C   0  0  0  0  0  0  0  0  0  0  0  0
    6.0410   -3.4430   23.3840 C   0  0  0  0  0  0  0  0  0  0  0  0
    6.6360   -4.2930   22.2940 C   0  0  0  0  0  0  0  0  0  0  0  0
    7.8020   -3.2610   26.1730 C   0  0  0  0  0  0  0  0  0  0  0  0
    7.0620   -3.8570   27.1910 C   0  0  0  0  0  0  0  0  0  0  0  0
    7.5780   -4.9370   27.8830 C   0  0  0  0  0  0  0  0  0  0  0  0
    8.8150   -5.4480   27.5630 C   0  0  0  0  0  0  0  0  0  0  0  0
    7.0460   -2.4260   23.7260 N   0  0  0  0  0  0  0  0  0  0  0  0
   10.4740   -2.6640   24.0030 N   0  0  0  0  0  0  0  0  0  0  0  0
    8.0750   -0.8240   25.3080 O   0  0  0  0  0  0  0  0  0  0  0  0
    5.7880   -1.6740   25.7230 O   0  0  0  0  0  0  0  0  0  0  0  0
    7.1270   -1.8920   25.2740 S   0  0  0  0  0  0  0  0  0  0  0  0
    8.5740   -3.3830   18.4010 R#  0  0  0  0  0  0  0  0  0  0  0  0
  1  4  1  0  0  0  0
  1  8  1  0  0  0  0
  1 11  1  0  0  0  0
  2  4  1  0  0  0  0
  3  4  2  0  0  0  0
  5  6  2  0  0  0  0
  5 15  1  0  0  0  0
  6  7  1  0  0  0  0
  6 12  1  0  0  0  0
  7 17  3  0  0  0  0
  8  9  1  0  0  0  0
  9 16  1  0  0  0  0
 10 11  1  0  0  0  0
 10 16  1  0  0  0  0
 12 13  2  0  0  0  0
 12 20  1  0  0  0  0
 13 14  1  0  0  0  0
 14 15  2  0  0  0  0
 16 20  1  0  0  0  0
 18 20  2  0  0  0  0
 19 20  2  0  0  0  0
  2 21  1  0  0  0  0
M  RGP  1  21   1
M  END
$$$$
