@<TRIPOS>MOLECULE
LIG(A-1101)
   15    16     0     0     0
SMALL
NO_CHARGES

@<TRIPOS>ATOM
      1 C1          8.3910   -1.3890   20.7480 C.3       1 LIG1101     0.0000
      2 C2          7.3210   -1.6620   18.4660 C.3       1 LIG1101     0.0000
      3 C3          6.4820   -0.3680   18.3880 C.2       1 LIG1101     0.0000
      4 C4          5.5080    0.0260   19.3090 C.2       1 LIG1101     0.0000
      5 C5          5.0040    1.2280   18.8850 C.2       1 LIG1101     0.0000
      6 C6          3.9090    2.0390   19.5820 C.3       1 LIG1101     0.0000
      7 C7          6.5190   -3.0820   20.4400 C.2       1 LIG1101     0.0000
      8 C8          5.7590   -4.4650   22.4780 C.3       1 LIG1101     0.0000
      9 C9          6.5330   -5.6520   23.0580 C.3       1 LIG1101     0.0000
     10 C10         5.6630   -5.8420   21.8100 C.3       1 LIG1101     0.0000
     11 N1          7.4100   -2.0580   19.8830 N.am      1 LIG1101     0.0000
     12 N2          6.5530    0.5880   17.4480 N.2       1 LIG1101     0.0000
     13 N3          6.6220   -3.4450   21.8620 N.am      1 LIG1101     0.0000
     14 O1          5.6360    1.5480   17.7650 O.3       1 LIG1101     0.0000
     15 O2          5.7270   -3.6150   19.7290 O.2       1 LIG1101     0.0000
@<TRIPOS>BOND
     1    1   11 1
     2    2    3 1
     3    2   11 1
     4    3    4 1
     5    3   12 2
     6    4    5 2
     7    5    6 1
     8    5   14 1
     9    7   11 am
    10    7   13 am
    11    7   15 2
    12    8    9 1
    13    8   10 1
    14    8   13 1
    15    9   10 1
    16   12   14 1
