@<TRIPOS>MOLECULE
LIG(A-801)
   15    16     0     0     0
SMALL
NO_CHARGES

@<TRIPOS>ATOM
      1 C1         10.7720   -0.4840   24.6580 C.3       1 LIG801      0.0000
      2 C2         12.5050   -1.6780   23.3560 C.3       1 LIG801      0.0000
      3 C3         13.4810   -1.5760   22.2220 C.3       1 LIG801      0.0000
      4 C4         14.4540   -0.4360   22.4420 C.3       1 LIG801      0.0000
      5 C5         13.7000    0.9040   22.7060 C.ar      1 LIG801      0.0000
      6 C6         14.2540    2.1300   22.2900 C.ar      1 LIG801      0.0000
      7 C7         13.5650    3.3230   22.5210 C.ar      1 LIG801      0.0000
      8 C8         12.3140    3.2700   23.1670 C.ar      1 LIG801      0.0000
      9 C9         11.7610    2.0610   23.5740 C.ar      1 LIG801      0.0000
     10 C10        12.4550    0.8590   23.3370 C.ar      1 LIG801      0.0000
     11 N1         11.8950   -0.4430   23.7520 N.pl3     1 LIG801      0.0000
     12 N2         12.3680    6.1430   23.2090 N.pl3     1 LIG801      0.0000
     13 O1         10.9220    4.7010   24.8790 O.2       1 LIG801      0.0000
     14 O2         10.1250    4.8350   22.7670 O.2       1 LIG801      0.0000
     15 S1         11.3910    4.7800   23.5010 S.o2      1 LIG801      0.0000
@<TRIPOS>BOND
     1    1   11 1
     2    2    3 1
     3    2   11 1
     4    3    4 1
     5    4    5 1
     6    5    6 ar
     7    5   10 ar
     8    6    7 ar
     9    7    8 ar
    10    8    9 ar
    11    8   15 1
    12    9   10 ar
    13   10   11 1
    14   12   15 1
    15   13   15 2
    16   14   15 2
