@<TRIPOS>MOLECULE
LIG(A-1101)
   15    17     0     0     0
SMALL
NO_CHARGES

@<TRIPOS>ATOM
      1 C1          2.2660  -24.9490    0.8600 C.ar      1 LIG1101     0.0000
      2 C2          2.0380  -23.5860    0.7280 C.ar      1 LIG1101     0.0000
      3 C3          4.1440  -23.3370   -0.1750 C.ar      1 LIG1101     0.0000
      4 C4          6.4330  -22.8710   -1.1390 C.3       1 LIG1101     0.0000
      5 C5          7.2850  -21.5600   -1.3400 C.3       1 LIG1101     0.0000
      6 C6          6.1880  -20.4690   -1.6130 C.3       1 LIG1101     0.0000
      7 C7          6.7090  -19.0540   -1.3430 C.3       1 LIG1101     0.0000
      8 C8          7.3550  -18.7200   -2.4970 C.3       1 LIG1101     0.0000
      9 C9          5.7760  -20.4110   -3.1660 C.3       1 LIG1101     0.0000
     10 C10         5.1580  -20.8150   -0.8110 C.3       1 LIG1101     0.0000
     11 C11         4.3760  -24.7140   -0.0460 C.ar      1 LIG1101     0.0000
     12 N1          2.9930  -22.7980    0.2110 N.ar      1 LIG1101     0.0000
     13 N2          5.2110  -22.4640   -0.7510 N.pl3     1 LIG1101     0.0000
     14 N3          3.4300  -25.4860    0.4770 N.ar      1 LIG1101     0.0000
     15 O1          6.6850  -19.6230   -3.7070 O.3       1 LIG1101     0.0000
@<TRIPOS>BOND
     1    1    2 ar
     2    1   14 ar
     3    2   12 ar
     4    3   11 ar
     5    3   12 ar
     6    3   13 1
     7    4    5 1
     8    4   13 1
     9    5    6 1
    10    6    7 1
    11    6    9 1
    12    6   10 1
    13    7    8 1
    14    8   15 1
    15    9   15 1
    16   10   13 1
    17   11   14 ar
