@<TRIPOS>MOLECULE
LIG(A-1301)
   16    17     0     0     0
SMALL
NO_CHARGES

@<TRIPOS>ATOM
      1 N1          7.0070   -2.3630   20.7650 N.am      1 LIG1301     0.0000
      2 C1          7.2790   -2.4740   18.3090 C.3       1 LIG1301     0.0000
      3 O1          5.7740   -3.8100   19.5770 O.2       1 LIG1301     0.0000
      4 C2          6.6240   -2.9270   19.6010 C.2       1 LIG1301     0.0000
      5 C3          7.9070   -1.2250   20.9110 C.3       1 LIG1301     0.0000
      6 C4          6.5880   -2.8610   22.0720 C.3       1 LIG1301     0.0000
      7 C5          7.7990   -3.2530   22.8870 C.3       1 LIG1301     0.0000
      8 C6          9.9030   -2.5430   23.8170 C.3       1 LIG1301     0.0000
      9 C7         10.9850   -1.4940   23.8150 C.2       1 LIG1301     0.0000
     10 C8         12.0870   -1.4240   22.9100 C.2       1 LIG1301     0.0000
     11 C9         12.7980   -0.2800   23.0050 C.2       1 LIG1301     0.0000
     12 C10        11.0200   -0.4110   24.6860 C.2       1 LIG1301     0.0000
     13 C11         9.1160   -1.6370   21.7160 C.3       1 LIG1301     0.0000
     14 N2          8.7300   -2.1310   23.0440 N.4       1 LIG1301     0.0000
     15 S1         12.1640    0.7410   24.1910 S.3       1 LIG1301     0.0000
     16 Du1         8.8750   -3.2990   18.0960 Du        1 LIG1301     0.0000
@<TRIPOS>BOND
     1    1    4 am
     2    1    5 1
     3    1    6 1
     4    2    4 1
     5    3    4 2
     6    5   13 1
     7    6    7 1
     8    7   14 1
     9    8    9 1
    10    8   14 1
    11    9   10 1
    12    9   12 2
    13   10   11 2
    14   11   15 1
    15   12   15 1
    16   13   14 1
    17    2   16 1
