@<TRIPOS>MOLECULE
LIG(A-1101)
   20    21     0     0     0
SMALL
NO_CHARGES

@<TRIPOS>ATOM
      1 N1          5.4050   -5.5300   24.3490 N.pl3     1 LIG1101     0.0000
      2 C1          2.8460   -1.9600   25.8170 C.ar      1 LIG1101     0.0000
      3 O1          3.9820   -6.7730   25.9260 O.2       1 LIG1101     0.0000
      4 C2          1.5060   -2.2500   25.7290 C.ar      1 LIG1101     0.0000
      5 C3          6.5550   -4.4450   20.5810 C.2       1 LIG1101     0.0000
      6 C4          7.8210   -3.6570   20.3730 C.3       1 LIG1101     0.0000
      7 C5          1.1370   -3.5790   25.6710 C.ar      1 LIG1101     0.0000
      8 C6          2.0980   -4.5790   25.6940 C.ar      1 LIG1101     0.0000
      9 C7          3.4410   -4.2450   25.7790 C.ar      1 LIG1101     0.0000
     10 C8          3.8330   -2.9190   25.8420 C.ar      1 LIG1101     0.0000
     11 C9          6.4410   -4.5100   24.1200 C.3       1 LIG1101     0.0000
     12 C10         7.2730   -4.9000   22.9270 C.3       1 LIG1101     0.0000
     13 C11         5.3980   -6.1220   22.0010 C.3       1 LIG1101     0.0000
     14 C12         4.5420   -5.7140   23.1710 C.3       1 LIG1101     0.0000
     15 F1          3.2220   -0.6640   25.8750 F         1 LIG1101     0.0000
     16 N2          6.4200   -5.1060   21.7550 N.am      1 LIG1101     0.0000
     17 O2          5.6560   -5.1600   26.7720 O.2       1 LIG1101     0.0000
     18 O3          5.7050   -4.4820   19.7010 O.2       1 LIG1101     0.0000
     19 S1          4.6630   -5.5210   25.8100 S.o2      1 LIG1101     0.0000
     20 Du1         8.2500   -3.4050   18.6280 Du        1 LIG1101     0.0000
@<TRIPOS>BOND
     1    1   11 1
     2    1   14 1
     3    1   19 1
     4    2    4 ar
     5    2   10 ar
     6    2   15 1
     7    3   19 2
     8    4    7 ar
     9    5    6 1
    10    5   16 am
    11    5   18 2
    12    7    8 ar
    13    8    9 ar
    14    9   10 ar
    15    9   19 1
    16   11   12 1
    17   12   16 1
    18   13   14 1
    19   13   16 1
    20   17   19 2
    21    6   20 1
