@<TRIPOS>MOLECULE
LIG(A-1101)
   17    18     0     0     0
SMALL
NO_CHARGES

@<TRIPOS>ATOM
      1 N1         22.4840  -22.6120   19.6820 N.am      1 LIG1101     0.0000
      2 C1         24.9160  -20.0150   19.8210 C.3       1 LIG1101     0.0000
      3 O1         23.8160  -20.8430   20.1010 O.3       1 LIG1101     0.0000
      4 C2         23.5820  -21.9090   19.2580 C.2       1 LIG1101     0.0000
      5 C3         21.3690  -21.8690   14.4910 C.ar      1 LIG1101     0.0000
      6 C4         21.6370  -22.8920   15.4090 C.ar      1 LIG1101     0.0000
      7 C5         22.0330  -23.7430   19.0280 C.2       1 LIG1101     0.0000
      8 C6         21.2870  -25.9290   18.2920 C.2       1 LIG1101     0.0000
      9 C7         20.8970  -27.3500   18.2000 C.3       1 LIG1101     0.0000
     10 C8         21.5310  -23.7970   17.7200 C.2       1 LIG1101     0.0000
     11 C9         21.3390  -22.6980   16.7660 C.ar      1 LIG1101     0.0000
     12 C10        20.7920  -21.4840   17.1990 C.ar      1 LIG1101     0.0000
     13 C11        20.5270  -20.4650   16.2770 C.ar      1 LIG1101     0.0000
     14 C12        20.8120  -20.6560   14.9240 C.ar      1 LIG1101     0.0000
     15 N2         21.1100  -25.0750   17.3150 N.2       1 LIG1101     0.0000
     16 O2         24.2580  -22.1550   18.2810 O.2       1 LIG1101     0.0000
     17 S1         21.9830  -25.2860   19.7660 S.3       1 LIG1101     0.0000
@<TRIPOS>BOND
     1    1    4 am
     2    1    7 1
     3    2    3 1
     4    3    4 1
     5    4   16 2
     6    5    6 ar
     7    5   14 ar
     8    6   11 ar
     9    7   10 2
    10    7   17 1
    11    8    9 1
    12    8   15 2
    13    8   17 1
    14   10   11 1
    15   10   15 1
    16   11   12 ar
    17   12   13 ar
    18   13   14 ar
