@<TRIPOS>MOLECULE
LIG(A-1101)
   13    14     0     0     0
SMALL
NO_CHARGES

@<TRIPOS>ATOM
      1 C1          9.3330   -4.9600   26.4820 C.3       1 LIG1101     0.0000
      2 C2         10.5690   -4.8110   25.7560 C.3       1 LIG1101     0.0000
      3 C3         10.8100   -3.4010   25.2070 C.3       1 LIG1101     0.0000
      4 C4          9.8600   -1.6280   24.1990 C.3       1 LIG1101     0.0000
      5 C5         11.2350   -1.2740   23.6150 C.2       1 LIG1101     0.0000
      6 C6         12.1490   -0.1720   24.1440 C.2       1 LIG1101     0.0000
      7 C7         13.3560   -0.1220   23.3700 C.2       1 LIG1101     0.0000
      8 C8         11.8670   -1.9130   22.5000 C.2       1 LIG1101     0.0000
      9 C9          8.4890   -2.9630   25.2840 C.3       1 LIG1101     0.0000
     10 C10         8.2300   -4.4000   25.7450 C.3       1 LIG1101     0.0000
     11 N1          9.6990   -2.8170   24.4950 N.4       1 LIG1101     0.0000
     12 O1          9.4650   -4.3700   27.7520 O.3       1 LIG1101     0.0000
     13 S1         13.3110   -1.2460   22.2080 S.3       1 LIG1101     0.0000
@<TRIPOS>BOND
     1    1    2 1
     2    1   10 1
     3    1   12 1
     4    2    3 1
     5    3   11 1
     6    4    5 1
     7    4   11 1
     8    5    6 1
     9    5    8 2
    10    6    7 2
    11    7   13 1
    12    8   13 1
    13    9   10 1
    14    9   11 1
