@<TRIPOS>MOLECULE
LIG(A-1101)
   14    15     0     0     0
SMALL
NO_CHARGES

@<TRIPOS>ATOM
      1 C1         23.6020   -8.1590    5.5510 C.ar      1 LIG1101     0.0000
      2 C2         24.3630   -6.8860    5.9160 C.ar      1 LIG1101     0.0000
      3 C3         25.7340   -6.8750    5.9130 C.ar      1 LIG1101     0.0000
      4 C4         26.4600   -8.0750    5.5590 C.ar      1 LIG1101     0.0000
      5 C5         25.7220   -9.3240    5.2040 C.ar      1 LIG1101     0.0000
      6 C6         26.5110  -10.5760    4.8470 C.3       1 LIG1101     0.0000
      7 C7         27.8620  -10.6920    6.6860 C.2       1 LIG1101     0.0000
      8 C8         28.3350  -11.4820    7.8940 C.2       1 LIG1101     0.0000
      9 C9         27.4260  -13.4380    6.8560 C.3       1 LIG1101     0.0000
     10 C10        27.2110  -12.6010    5.6070 C.3       1 LIG1101     0.0000
     11 C11        24.3120   -9.3370    5.2050 C.ar      1 LIG1101     0.0000
     12 N1         26.8660  -11.2690    5.9440 N.pl3     1 LIG1101     0.0000
     13 O1         28.2930  -12.9030    7.7660 O.3       1 LIG1101     0.0000
     14 Cl1        21.8170   -8.1260    5.5810 Cl        1 LIG1101     0.0000
@<TRIPOS>BOND
     1    1    2 ar
     2    1   11 ar
     3    1   14 1
     4    2    3 ar
     5    3    4 ar
     6    4    5 ar
     7    5    6 1
     8    5   11 ar
     9    6   12 1
    10    7    8 2
    11    7   12 1
    12    8   13 1
    13    9   10 1
    14    9   13 1
    15   10   12 1
