LIG(A-1101)
  -OEChem-04162023213D

 12 12  0     0  0  0  0  0  0999 V2000
    7.4120   -3.1090   21.3800 N   0  0  0  0  0  0  0  0  0  0  0  0
    8.4550   -2.5550   19.3380 C   0  0  0  0  0  0  0  0  0  0  0  0
    6.2720   -3.5380   19.4540 O   0  0  0  0  0  0  0  0  0  0  0  0
    7.2570   -3.1290   20.0460 C   0  0  0  0  0  0  0  0  0  0  0  0
    6.4170   -3.2140   22.3740 C   0  0  0  0  0  0  0  0  0  0  0  0
    5.9840   -2.1120   23.1080 C   0  0  0  0  0  0  0  0  0  0  0  0
    5.0160   -2.3000   24.0710 C   0  0  0  0  0  0  0  0  0  0  0  0
    4.5250   -3.5720   24.2660 C   0  0  0  0  0  0  0  0  0  0  0  0
    5.8610   -4.4550   22.6520 C   0  0  0  0  0  0  0  0  0  0  0  0
    4.9360   -4.6360   23.5700 N   0  0  0  0  0  0  0  0  0  0  0  0
    6.3700   -5.8630   21.7850 Cl  0  0  0  0  0  0  0  0  0  0  0  0
    9.1150   -3.3760   17.8640 R#  0  0  0  0  0  0  0  0  0  0  0  0
  1  4  1  0  0  0  0
  1  5  1  0  0  0  0
  2  4  1  0  0  0  0
  3  4  2  0  0  0  0
  5  6  2  0  0  0  0
  5  9  1  0  0  0  0
  6  7  1  0  0  0  0
  7  8  2  0  0  0  0
  8 10  1  0  0  0  0
  9 10  2  0  0  0  0
  9 11  1  0  0  0  0
  2 12  1  0  0  0  0
M  RGP  1  12   1
M  END
$$$$
