@<TRIPOS>MOLECULE
LIG(A-1101)
   16    15     0     0     0
SMALL
NO_CHARGES

@<TRIPOS>ATOM
      1 C1          2.1650   -8.0610   24.6500 C.3       1 LIG1101     0.0000
      2 C2          3.2890   -7.0590   24.4950 C.3       1 LIG1101     0.0000
      3 C3          3.2780   -6.3420   23.1300 C.3       1 LIG1101     0.0000
      4 C4          0.9670   -5.8410   22.4420 C.2       1 LIG1101     0.0000
      5 C5         -0.1750   -4.8790   22.5500 C.3       1 LIG1101     0.0000
      6 C6          4.5350   -5.4950   22.9010 C.2       1 LIG1101     0.0000
      7 C7          6.7640   -5.3030   21.8730 C.3       1 LIG1101     0.0000
      8 C8          6.8720   -4.8540   20.4580 C.3       1 LIG1101     0.0000
      9 C9          6.0530   -5.3240   19.5760 C.3       1 LIG1101     0.0000
     10 N1          2.1060   -5.4820   23.0410 N.am      1 LIG1101     0.0000
     11 N2          5.5330   -6.0320   22.1850 N.am      1 LIG1101     0.0000
     12 O1          4.5450   -7.7160   24.6770 O.3       1 LIG1101     0.0000
     13 O2          0.8580   -6.9000   21.8250 O.2       1 LIG1101     0.0000
     14 O3          4.5830   -4.3590   23.3660 O.2       1 LIG1101     0.0000
     15 Du1         7.7770   -4.1310   19.3040 Du        1 LIG1101     0.0000
     16 Du2         7.7770   -4.1310   19.3040 Du        1 LIG1101     0.0000
@<TRIPOS>BOND
     1    1    2 1
     2    2    3 1
     3    2   12 1
     4    3    6 1
     5    3   10 1
     6    4    5 1
     7    4   10 am
     8    4   13 2
     9    6   11 am
    10    6   14 2
    11    7    8 1
    12    7   11 1
    13    8    9 1
    14    8   15 1
    15    9   16 1
