LIG(A-1101)
  -OEChem-04032019353D

 13 14  0     1  0  0  0  0  0999 V2000
    9.6720    1.8000   22.1790 C   0  0  0  0  0  0  0  0  0  0  0  0
    9.2940    1.1390   23.5470 C   0  0  1  0  0  0  0  0  0  0  0  0
    7.9700    1.0510   23.7080 C   0  0  0  0  0  0  0  0  0  0  0  0
    7.5690   -0.4550   23.2930 C   0  0  0  0  0  0  0  0  0  0  0  0
    8.9320   -1.1540   22.9450 C   0  0  0  0  0  0  0  0  0  0  0  0
    9.8620   -0.4260   23.6200 C   0  0  1  0  0  0  0  0  0  0  0  0
   11.2840   -0.5170   23.0130 C   0  0  0  0  0  0  0  0  0  0  0  0
   12.2970    0.4000   23.3860 C   0  0  0  0  0  0  0  0  0  0  0  0
   13.5470    0.1850   22.7540 C   0  0  0  0  0  0  0  0  0  0  0  0
   11.6510   -1.5120   22.0850 C   0  0  0  0  0  0  0  0  0  0  0  0
   10.4680    3.0350   22.1810 N   0  0  0  0  0  0  0  0  0  0  0  0
    9.3290    1.3030   21.1260 O   0  0  0  0  0  0  0  0  0  0  0  0
   13.3390   -1.2060   21.7110 S   0  0  0  0  0  0  0  0  0  0  0  0
  1  2  1  0  0  0  0
  1 11  1  0  0  0  0
  1 12  2  0  0  0  0
  2  3  1  0  0  0  0
  2  6  1  0  0  0  0
  3  4  1  0  0  0  0
  4  5  1  0  0  0  0
  5  6  1  0  0  0  0
  6  7  1  0  0  0  0
  7  8  1  0  0  0  0
  7 10  2  0  0  0  0
  8  9  2  0  0  0  0
  9 13  1  0  0  0  0
 10 13  1  0  0  0  0
M  END
$$$$
