LIG(A-1101)
  -OEChem-04302000443D

 20 21  0     0  0  0  0  0  0999 V2000
    5.4050   -5.5300   24.3490 N   0  0  0  0  0  0  0  0  0  0  0  0
    2.8460   -1.9600   25.8170 C   0  0  0  0  0  0  0  0  0  0  0  0
    3.9820   -6.7730   25.9260 O   0  0  0  0  0  0  0  0  0  0  0  0
    1.5060   -2.2500   25.7290 C   0  0  0  0  0  0  0  0  0  0  0  0
    6.5550   -4.4450   20.5810 C   0  0  0  0  0  0  0  0  0  0  0  0
    7.8210   -3.6570   20.3730 C   0  0  0  0  0  0  0  0  0  0  0  0
    1.1370   -3.5790   25.6710 C   0  0  0  0  0  0  0  0  0  0  0  0
    2.0980   -4.5790   25.6940 C   0  0  0  0  0  0  0  0  0  0  0  0
    3.4410   -4.2450   25.7790 C   0  0  0  0  0  0  0  0  0  0  0  0
    3.8330   -2.9190   25.8420 C   0  0  0  0  0  0  0  0  0  0  0  0
    6.4410   -4.5100   24.1200 C   0  0  0  0  0  0  0  0  0  0  0  0
    7.2730   -4.9000   22.9270 C   0  0  0  0  0  0  0  0  0  0  0  0
    5.3980   -6.1220   22.0010 C   0  0  0  0  0  0  0  0  0  0  0  0
    4.5420   -5.7140   23.1710 C   0  0  0  0  0  0  0  0  0  0  0  0
    3.2220   -0.6640   25.8750 F   0  0  0  0  0  0  0  0  0  0  0  0
    6.4200   -5.1060   21.7550 N   0  0  0  0  0  0  0  0  0  0  0  0
    5.6560   -5.1600   26.7720 O   0  0  0  0  0  0  0  0  0  0  0  0
    5.7050   -4.4820   19.7010 O   0  0  0  0  0  0  0  0  0  0  0  0
    4.6630   -5.5210   25.8100 S   0  0  0  0  0  0  0  0  0  0  0  0
    8.2500   -3.4050   18.6280 R#  0  0  0  0  0  0  0  0  0  0  0  0
  1 11  1  0  0  0  0
  1 14  1  0  0  0  0
  1 19  1  0  0  0  0
  2  4  2  0  0  0  0
  2 10  1  0  0  0  0
  2 15  1  0  0  0  0
  3 19  2  0  0  0  0
  4  7  1  0  0  0  0
  5  6  1  0  0  0  0
  5 16  1  0  0  0  0
  5 18  2  0  0  0  0
  7  8  2  0  0  0  0
  8  9  1  0  0  0  0
  9 10  2  0  0  0  0
  9 19  1  0  0  0  0
 11 12  1  0  0  0  0
 12 16  1  0  0  0  0
 13 14  1  0  0  0  0
 13 16  1  0  0  0  0
 17 19  2  0  0  0  0
  6 20  1  0  0  0  0
M  RGP  1  20   1
M  END
$$$$
