@<TRIPOS>MOLECULE
LIG(A-1101)
   17    18     0     0     0
SMALL
NO_CHARGES

@<TRIPOS>ATOM
      1 N1          7.0950   -4.4970   20.7570 N.am      1 LIG1101     0.0000
      2 C1          7.7210   -2.7500   19.1690 C.3       1 LIG1101     0.0000
      3 O1          5.6950   -3.9990   19.0720 O.2       1 LIG1101     0.0000
      4 C2          6.7440   -3.7890   19.6720 C.2       1 LIG1101     0.0000
      5 C3         10.7950   -0.5580   23.5030 C.2       1 LIG1101     0.0000
      6 C4          7.8150   -2.8060   22.2890 C.2       1 LIG1101     0.0000
      7 C5          9.0560   -2.0700   22.5990 C.2       1 LIG1101     0.0000
      8 C6         10.2110   -1.9820   21.7680 C.2       1 LIG1101     0.0000
      9 C7         11.2100   -1.1770   22.3640 C.2       1 LIG1101     0.0000
     10 C8         12.6020   -0.9820   21.8630 C.3       1 LIG1101     0.0000
     11 C9         13.4670   -0.2860   22.8990 C.3       1 LIG1101     0.0000
     12 C10        12.7830    0.9050   23.4700 C.3       1 LIG1101     0.0000
     13 C11        11.5340    0.5250   24.2360 C.3       1 LIG1101     0.0000
     14 N2          7.9720   -4.0080   21.7080 N.am      1 LIG1101     0.0000
     15 O2          6.7060   -2.3180   22.5140 O.2       1 LIG1101     0.0000
     16 S1          9.2820   -1.1620   24.0760 S.3       1 LIG1101     0.0000
     17 Du1         9.0690   -3.4690   18.1820 Du        1 LIG1101     0.0000
@<TRIPOS>BOND
     1    1    4 am
     2    1   14 1
     3    2    4 1
     4    3    4 2
     5    5    9 2
     6    5   13 1
     7    5   16 1
     8    6    7 1
     9    6   14 am
    10    6   15 2
    11    7    8 2
    12    7   16 1
    13    8    9 1
    14    9   10 1
    15   10   11 1
    16   11   12 1
    17   12   13 1
    18    2   17 1
