@<TRIPOS>MOLECULE
LIG(A-1101)
   11    11     0     0     0
SMALL
NO_CHARGES

@<TRIPOS>ATOM
      1 C1          9.9140   -0.6710   22.5440 C.3       1 LIG1101     0.0000
      2 C2          9.0200   -0.0530   21.4710 C.2       1 LIG1101     0.0000
      3 C3          6.9240   -0.1160   20.0670 C.ar      1 LIG1101     0.0000
      4 C4          7.3010   -0.1830   18.7320 C.ar      1 LIG1101     0.0000
      5 C5          5.4180    0.9350   18.0620 C.ar      1 LIG1101     0.0000
      6 C6          4.9600    1.0580   19.3670 C.ar      1 LIG1101     0.0000
      7 C7          5.7280    0.5160   20.3980 C.ar      1 LIG1101     0.0000
      8 C8          5.2810    0.6220   21.8540 C.3       1 LIG1101     0.0000
      9 N1          7.7750   -0.6990   21.0920 N.am      1 LIG1101     0.0000
     10 N2          6.5510    0.3330   17.7770 N.ar      1 LIG1101     0.0000
     11 O1          9.3460    0.9600   20.9550 O.2       1 LIG1101     0.0000
@<TRIPOS>BOND
     1    1    2 1
     2    2    9 am
     3    2   11 2
     4    3    4 ar
     5    3    7 ar
     6    3    9 1
     7    4   10 ar
     8    5    6 ar
     9    5   10 ar
    10    6    7 ar
    11    7    8 1
