LIG(A-1101)
  -OEChem-04302000103D

 16 15  0     1  0  0  0  0  0999 V2000
    2.1650   -8.0610   24.6500 C   0  0  0  0  0  0  0  0  0  0  0  0
    3.2890   -7.0590   24.4950 C   0  0  2  0  0  0  0  0  0  0  0  0
    3.2780   -6.3420   23.1300 C   0  0  2  0  0  0  0  0  0  0  0  0
    0.9670   -5.8410   22.4420 C   0  0  0  0  0  0  0  0  0  0  0  0
   -0.1750   -4.8790   22.5500 C   0  0  0  0  0  0  0  0  0  0  0  0
    4.5350   -5.4950   22.9010 C   0  0  0  0  0  0  0  0  0  0  0  0
    6.7640   -5.3030   21.8730 C   0  0  0  0  0  0  0  0  0  0  0  0
    6.8720   -4.8540   20.4580 C   0  0  3  0  0  0  0  0  0  0  0  0
    6.0530   -5.3240   19.5760 C   0  0  0  0  0  0  0  0  0  0  0  0
    2.1060   -5.4820   23.0410 N   0  0  0  0  0  0  0  0  0  0  0  0
    5.5330   -6.0320   22.1850 N   0  0  0  0  0  0  0  0  0  0  0  0
    4.5450   -7.7160   24.6770 O   0  0  0  0  0  0  0  0  0  0  0  0
    0.8580   -6.9000   21.8250 O   0  0  0  0  0  0  0  0  0  0  0  0
    4.5830   -4.3590   23.3660 O   0  0  0  0  0  0  0  0  0  0  0  0
    7.7770   -4.1310   19.3040 R#  0  0  0  0  0  0  0  0  0  0  0  0
    7.7770   -4.1310   19.3040 R#  0  0  0  0  0  0  0  0  0  0  0  0
  1  2  1  0  0  0  0
  2  3  1  0  0  0  0
  2 12  1  0  0  0  0
  3  6  1  0  0  0  0
  3 10  1  0  0  0  0
  4  5  1  0  0  0  0
  4 10  1  0  0  0  0
  4 13  2  0  0  0  0
  6 11  1  0  0  0  0
  6 14  2  0  0  0  0
  7  8  1  0  0  0  0
  7 11  1  0  0  0  0
  8  9  1  0  0  0  0
  8 15  1  0  0  0  0
  9 16  1  0  0  0  0
M  RGP  2  15   1  16   5
M  END
$$$$
