@<TRIPOS>MOLECULE
LIG(A-701)
   15    16     0     0     0
SMALL
NO_CHARGES

@<TRIPOS>ATOM
      1 C1         26.0480  -10.4060    4.0020 C.3       1 LIG701      0.0000
      2 C2         26.4090  -10.3360    5.4920 C.3       1 LIG701      0.0000
      3 C3         27.9260  -10.8440    7.0900 C.3       1 LIG701      0.0000
      4 C4         27.7230  -11.8360    8.2230 C.3       1 LIG701      0.0000
      5 C5         27.0260  -13.4420    6.7580 C.3       1 LIG701      0.0000
      6 C6         27.1210  -12.5040    5.5600 C.3       1 LIG701      0.0000
      7 C7         23.3920   -9.4930    4.6150 C.ar      1 LIG701      0.0000
      8 C8         23.6710   -8.1980    4.2200 C.ar      1 LIG701      0.0000
      9 C9         23.0050   -7.1460    4.8050 C.ar      1 LIG701      0.0000
     10 C10        22.0570   -7.3700    5.7910 C.ar      1 LIG701      0.0000
     11 C11        21.7840   -8.6650    6.1880 C.ar      1 LIG701      0.0000
     12 C12        22.4560   -9.7320    5.6020 C.ar      1 LIG701      0.0000
     13 N1         27.3220  -11.1550    5.8680 N.4       1 LIG701      0.0000
     14 O1         27.9070  -13.1200    7.7790 O.3       1 LIG701      0.0000
     15 S1         24.2930  -10.8550    3.8410 S.3       1 LIG701      0.0000
@<TRIPOS>BOND
     1    1    2 1
     2    1   15 1
     3    2   13 1
     4    3    4 1
     5    3   13 1
     6    4   14 1
     7    5    6 1
     8    5   14 1
     9    6   13 1
    10    7    8 ar
    11    7   12 ar
    12    7   15 1
    13    8    9 ar
    14    9   10 ar
    15   10   11 ar
    16   11   12 ar
