LIG(A-1101)
  -OEChem-04302000243D

 16 17  0     0  0  0  0  0  0999 V2000
    8.6390   -0.2390   21.3600 C   0  0  0  0  0  0  0  0  0  0  0  0
   10.5660   -0.4930   22.8300 C   0  0  0  0  0  0  0  0  0  0  0  0
   10.6050    0.3380   23.9310 C   0  0  0  0  0  0  0  0  0  0  0  0
   11.8110    0.8480   24.3440 C   0  0  0  0  0  0  0  0  0  0  0  0
   12.9690    0.5330   23.6470 C   0  0  0  0  0  0  0  0  0  0  0  0
   12.9220   -0.2980   22.5410 C   0  0  0  0  0  0  0  0  0  0  0  0
   11.7090   -0.8080   22.1210 C   0  0  0  0  0  0  0  0  0  0  0  0
    6.6490    0.0270   19.8680 C   0  0  0  0  0  0  0  0  0  0  0  0
    5.4450    0.6520   20.1520 C   0  0  0  0  0  0  0  0  0  0  0  0
    4.8150    1.3120   19.1090 C   0  0  0  0  0  0  0  0  0  0  0  0
    5.4060    1.2810   17.8510 C   0  0  0  0  0  0  0  0  0  0  0  0
    7.1890    0.0560   18.5940 C   0  0  0  0  0  0  0  0  0  0  0  0
    9.2790   -0.9690   22.4270 N   0  0  0  0  0  0  0  0  0  0  0  0
    7.3300   -0.6620   20.9310 N   0  0  0  0  0  0  0  0  0  0  0  0
    6.5550    0.6850   17.6400 N   0  0  0  0  0  0  0  0  0  0  0  0
    9.1920    0.6790   20.8500 O   0  0  0  0  0  0  0  0  0  0  0  0
  1 13  1  0  0  0  0
  1 14  1  0  0  0  0
  1 16  2  0  0  0  0
  2  3  2  0  0  0  0
  2  7  1  0  0  0  0
  2 13  1  0  0  0  0
  3  4  1  0  0  0  0
  4  5  2  0  0  0  0
  5  6  1  0  0  0  0
  6  7  2  0  0  0  0
  8  9  2  0  0  0  0
  8 12  1  0  0  0  0
  8 14  1  0  0  0  0
  9 10  1  0  0  0  0
 10 11  2  0  0  0  0
 11 15  1  0  0  0  0
 12 15  2  0  0  0  0
M  END
$$$$
