@<TRIPOS>MOLECULE
LIG(A-1101)
   19    20     0     0     0
SMALL
NO_CHARGES

@<TRIPOS>ATOM
      1 N1          6.6280   -4.1540   21.3880 N.am      1 LIG1101     0.0000
      2 C1          6.8970   -2.9960   19.2290 C.3       1 LIG1101     0.0000
      3 O1          5.5030   -4.8740   19.5690 O.2       1 LIG1101     0.0000
      4 C2          6.2900   -4.0870   20.0780 C.2       1 LIG1101     0.0000
      5 C3          6.6600    0.6500   28.7340 C.ar      1 LIG1101     0.0000
      6 C4          5.7160    1.5030   28.2100 C.ar      1 LIG1101     0.0000
      7 C5          5.0660    1.1700   27.0430 C.ar      1 LIG1101     0.0000
      8 C6          5.3550   -0.0190   26.3910 C.ar      1 LIG1101     0.0000
      9 C7          5.9710   -5.0790   22.3240 C.3       1 LIG1101     0.0000
     10 C8          5.3610   -4.3210   23.4990 C.3       1 LIG1101     0.0000
     11 C9          6.4190   -3.4600   24.1770 C.3       1 LIG1101     0.0000
     12 C10         7.0370   -2.5200   23.1520 C.3       1 LIG1101     0.0000
     13 C11         7.6590   -3.3270   22.0240 C.3       1 LIG1101     0.0000
     14 C12         6.6830   -2.1940   26.2750 C.2       1 LIG1101     0.0000
     15 C13         6.3010   -0.8940   26.9150 C.ar      1 LIG1101     0.0000
     16 C14         6.9560   -0.5410   28.0910 C.ar      1 LIG1101     0.0000
     17 N2          5.8800   -2.6920   25.3050 N.am      1 LIG1101     0.0000
     18 O2          7.7300   -2.7570   26.5950 O.2       1 LIG1101     0.0000
     19 Du1         8.5360   -3.3570   18.5280 Du        1 LIG1101     0.0000
@<TRIPOS>BOND
     1    1    4 am
     2    1    9 1
     3    1   13 1
     4    2    4 1
     5    3    4 2
     6    5    6 ar
     7    5   16 ar
     8    6    7 ar
     9    7    8 ar
    10    8   15 ar
    11    9   10 1
    12   10   11 1
    13   11   12 1
    14   11   17 1
    15   12   13 1
    16   14   15 1
    17   14   17 am
    18   14   18 2
    19   15   16 ar
    20    2   19 1
