@<TRIPOS>MOLECULE
LIG(A-1101)
   10    10     0     0     0
SMALL
NO_CHARGES

@<TRIPOS>ATOM
      1 N1         22.8900  -20.2580   23.3530 N.4       1 LIG1101     0.0000
      2 C1         23.8430  -18.0390   24.0540 C.3       1 LIG1101     0.0000
      3 C2         22.9660  -18.7840   23.0380 C.3       1 LIG1101     0.0000
      4 C3         21.6430  -20.5910   24.1160 C.3       1 LIG1101     0.0000
      5 C4         21.2250  -22.0050   23.9310 C.2       1 LIG1101     0.0000
      6 C5         21.2610  -23.0960   24.8060 C.2       1 LIG1101     0.0000
      7 C6         20.4370  -25.5260   24.5300 C.3       1 LIG1101     0.0000
      8 N2         20.6530  -24.1350   24.0920 N.pl3     1 LIG1101     0.0000
      9 N3         20.2840  -23.6690   22.8600 N.2       1 LIG1101     0.0000
     10 N4         20.6190  -22.4390   22.7570 N.2       1 LIG1101     0.0000
@<TRIPOS>BOND
     1    1    3 1
     2    1    4 1
     3    2    3 1
     4    4    5 1
     5    5    6 2
     6    5   10 1
     7    6    8 1
     8    7    8 1
     9    8    9 1
    10    9   10 2
