@<TRIPOS>MOLECULE
LIG(A-1101)
   17    18     0     0     0
SMALL
NO_CHARGES

@<TRIPOS>ATOM
      1 N1          6.9860   -2.9550   21.0940 N.am      1 LIG1101     0.0000
      2 C1          7.4600   -2.5680   18.6840 C.3       1 LIG1101     0.0000
      3 O1          5.9090   -4.1560   19.5440 O.2       1 LIG1101     0.0000
      4 C2          6.7340   -3.2890   19.8100 C.2       1 LIG1101     0.0000
      5 C3          9.2900    0.5050   26.2540 C.2       1 LIG1101     0.0000
      6 C4          6.3290   -3.6870   22.1820 C.3       1 LIG1101     0.0000
      7 C5          7.3030   -4.0410   23.2840 C.3       1 LIG1101     0.0000
      8 C6          8.7060   -2.1720   22.7110 C.3       1 LIG1101     0.0000
      9 C7          7.8020   -1.8180   21.5450 C.3       1 LIG1101     0.0000
     10 C8          7.3890   -2.1230   24.8040 C.2       1 LIG1101     0.0000
     11 C9          8.2330   -1.3250   25.6610 C.2       1 LIG1101     0.0000
     12 C10         8.8630   -1.6100   26.8220 C.2       1 LIG1101     0.0000
     13 C11         9.5520   -0.4400   27.2190 C.2       1 LIG1101     0.0000
     14 N2          7.9400   -2.8200   23.7780 N.am      1 LIG1101     0.0000
     15 O2          6.1880   -2.1950   25.0540 O.2       1 LIG1101     0.0000
     16 O3          8.4790   -0.0270   25.2990 O.3       1 LIG1101     0.0000
     17 Du1         9.0380   -3.3610   18.2690 Du        1 LIG1101     0.0000
@<TRIPOS>BOND
     1    1    4 am
     2    1    6 1
     3    1    9 1
     4    2    4 1
     5    3    4 2
     6    5   13 2
     7    5   16 1
     8    6    7 1
     9    7   14 1
    10    8    9 1
    11    8   14 1
    12   10   11 1
    13   10   14 am
    14   10   15 2
    15   11   12 2
    16   11   16 1
    17   12   13 1
    18    2   17 1
