@<TRIPOS>MOLECULE
LIG(A-1101)
   33    34     0     0     0
SMALL
NO_CHARGES

@<TRIPOS>ATOM
      1 N1          5.5540   -4.8850   26.0300 N.pl3     1 LIG1101     0.0000
      2 C1          7.0110   -5.0180   26.0910 C.ar      1 LIG1101     0.0000
      3 O1          4.9120   -5.7580   25.4670 O.2       1 LIG1101     0.0000
      4 C2          7.5450   -5.4250   27.3080 C.ar      1 LIG1101     0.0000
      5 C3          6.5970   -3.9330   19.7480 C.2       1 LIG1101     0.0000
      6 C4          7.2090   -2.8290   18.9400 C.3       1 LIG1101     0.0000
      7 C5          8.9110   -5.5710   27.4400 C.ar      1 LIG1101     0.0000
      8 C6          9.7490   -5.3150   26.3710 C.ar      1 LIG1101     0.0000
      9 C7          9.2280   -4.9060   25.1540 C.ar      1 LIG1101     0.0000
     10 C8          7.8540   -4.7510   24.9870 C.ar      1 LIG1101     0.0000
     11 C9          7.7400   -3.1240   23.0620 C.3       1 LIG1101     0.0000
     12 C10         8.1760   -3.4440   21.6480 C.3       1 LIG1101     0.0000
     13 C11         6.7660   -5.4370   21.6620 C.3       1 LIG1101     0.0000
     14 C12         6.2790   -5.0820   23.0460 C.3       1 LIG1101     0.0000
     15 N2          7.3150   -4.3380   23.7700 N.pl3     1 LIG1101     0.0000
     16 N3          7.1520   -4.2240   20.9440 N.am      1 LIG1101     0.0000
     17 O2          5.0370   -3.9280   26.5830 O.2       1 LIG1101     0.0000
     18 O3          5.6660   -4.5720   19.2830 O.2       1 LIG1101     0.0000
     19 Du1         8.8090   -3.4260   18.3390 Du        1 LIG1101     0.0000
     20 H           7.5450   -5.4250   27.3080 H         1 LIG1101     0.0000
     21 H           7.2090   -2.8290   18.9400 H         1 LIG1101     0.0000
     22 H           7.2090   -2.8290   18.9400 H         1 LIG1101     0.0000
     23 H           8.9110   -5.5710   27.4400 H         1 LIG1101     0.0000
     24 H           9.7490   -5.3150   26.3710 H         1 LIG1101     0.0000
     25 H           9.2280   -4.9060   25.1540 H         1 LIG1101     0.0000
     26 H           7.7400   -3.1240   23.0620 H         1 LIG1101     0.0000
     27 H           7.7400   -3.1240   23.0620 H         1 LIG1101     0.0000
     28 H           8.1760   -3.4440   21.6480 H         1 LIG1101     0.0000
     29 H           8.1760   -3.4440   21.6480 H         1 LIG1101     0.0000
     30 H           6.7660   -5.4370   21.6620 H         1 LIG1101     0.0000
     31 H           6.7660   -5.4370   21.6620 H         1 LIG1101     0.0000
     32 H           6.2790   -5.0820   23.0460 H         1 LIG1101     0.0000
     33 H           6.2790   -5.0820   23.0460 H         1 LIG1101     0.0000
@<TRIPOS>BOND
     1    1    2 1
     2    1    3 2
     3    1   17 2
     4    2    4 ar
     5    2   10 ar
     6    4    7 ar
     7    5    6 1
     8    5   16 am
     9    5   18 2
    10    7    8 ar
    11    8    9 ar
    12    9   10 ar
    13   10   15 1
    14   11   12 1
    15   11   15 1
    16   12   16 1
    17   13   14 1
    18   13   16 1
    19   14   15 1
    20    6   19 1
    21    4   20 1
    22    6   21 1
    23    6   22 1
    24    7   23 1
    25    8   24 1
    26    9   25 1
    27   11   26 1
    28   11   27 1
    29   12   28 1
    30   12   29 1
    31   13   30 1
    32   13   31 1
    33   14   32 1
    34   14   33 1
