LIG(A-1101)
  -OEChem-04162023323D

 17 18  0     0  0  0  0  0  0999 V2000
   24.7600  -14.6760   24.9220 C   0  0  0  0  0  0  0  0  0  0  0  0
   23.8820  -15.0080   26.1330 C   0  0  0  0  0  0  0  0  0  0  0  0
   23.4060  -17.3370   25.2710 C   0  0  0  0  0  0  0  0  0  0  0  0
   24.6590  -17.9220   25.2620 C   0  0  0  0  0  0  0  0  0  0  0  0
   24.9360  -18.9570   24.3980 C   0  0  0  0  0  0  0  0  0  0  0  0
   23.9700  -19.4050   23.5140 C   0  0  0  0  0  0  0  0  0  0  0  0
   24.1720  -20.6180   21.3380 C   0  0  0  0  0  0  0  0  0  0  0  0
   24.6680  -20.0500   19.1800 C   0  0  0  0  0  0  0  0  0  0  0  0
   23.8360  -21.0710   18.7170 C   0  0  0  0  0  0  0  0  0  0  0  0
   23.1920  -21.8710   19.6600 C   0  0  0  0  0  0  0  0  0  0  0  0
   22.6970  -18.8470   23.5400 C   0  0  0  0  0  0  0  0  0  0  0  0
   22.4100  -17.8010   24.4160 C   0  0  0  0  0  0  0  0  0  0  0  0
   23.2170  -16.2870   26.2480 N   0  0  0  0  0  0  0  0  0  0  0  0
   24.8210  -19.8480   20.4770 N   0  0  0  0  0  0  0  0  0  0  0  0
   23.4020  -21.6200   20.9350 N   0  0  0  0  0  0  0  0  0  0  0  0
   23.7070  -14.2050   26.9860 O   0  0  0  0  0  0  0  0  0  0  0  0
   24.3560  -20.4880   22.7210 O   0  0  0  0  0  0  0  0  0  0  0  0
  1  2  1  0  0  0  0
  2 13  1  0  0  0  0
  2 16  2  0  0  0  0
  3  4  2  0  0  0  0
  3 12  1  0  0  0  0
  3 13  1  0  0  0  0
  4  5  1  0  0  0  0
  5  6  2  0  0  0  0
  6 11  1  0  0  0  0
  6 17  1  0  0  0  0
  7 14  2  0  0  0  0
  7 15  1  0  0  0  0
  7 17  1  0  0  0  0
  8  9  2  0  0  0  0
  8 14  1  0  0  0  0
  9 10  1  0  0  0  0
 10 15  2  0  0  0  0
 11 12  2  0  0  0  0
M  END
$$$$
