LIG(A-1101)
  -OEChem-04032019323D

 20 22  0     1  0  0  0  0  0999 V2000
    6.8940   -3.2690   20.0090 C   0  0  0  0  0  0  0  0  0  0  0  0
    7.3960   -2.6410   18.7390 C   0  0  0  0  0  0  0  0  0  0  0  0
    6.5830   -3.0990   22.4350 C   0  0  0  0  0  0  0  0  0  0  0  0
    7.5660   -3.6430   23.4340 C   0  0  0  0  0  0  0  0  0  0  0  0
    7.1060   -4.4750   24.4560 C   0  0  0  0  0  0  0  0  0  0  0  0
    7.9820   -4.9920   25.3920 C   0  0  0  0  0  0  0  0  0  0  0  0
    9.3270   -4.6890   25.3190 C   0  0  0  0  0  0  0  0  0  0  0  0
    9.7980   -3.8650   24.3090 C   0  0  0  0  0  0  0  0  0  0  0  0
    8.9250   -3.3220   23.3570 C   0  0  0  0  0  0  0  0  0  0  0  0
    9.4710   -2.4290   22.2480 C   0  0  2  0  0  0  0  0  0  0  0  0
   10.4440   -1.3760   22.7380 C   0  0  0  0  0  0  0  0  0  0  0  0
   11.7260   -1.2880   22.2100 C   0  0  0  0  0  0  0  0  0  0  0  0
   12.6150   -0.3270   22.6610 C   0  0  0  0  0  0  0  0  0  0  0  0
   12.2350    0.5650   23.6380 C   0  0  0  0  0  0  0  0  0  0  0  0
   10.9690    0.4960   24.1700 C   0  0  0  0  0  0  0  0  0  0  0  0
   10.0780   -0.4680   23.7240 C   0  0  0  0  0  0  0  0  0  0  0  0
    8.3600   -1.7750   21.4300 C   0  0  0  0  0  0  0  0  0  0  0  0
    7.2700   -2.7250   21.1980 N   0  0  0  0  0  0  0  0  0  0  0  0
    6.1580   -4.2440   19.9390 O   0  0  0  0  0  0  0  0  0  0  0  0
    8.9750   -3.4240   18.3340 R#  0  0  0  0  0  0  0  0  0  0  0  0
  1  2  1  0  0  0  0
  1 18  1  0  0  0  0
  1 19  2  0  0  0  0
  3  4  1  0  0  0  0
  3 18  1  0  0  0  0
  4  5  2  0  0  0  0
  4  9  1  0  0  0  0
  5  6  1  0  0  0  0
  6  7  2  0  0  0  0
  7  8  1  0  0  0  0
  8  9  2  0  0  0  0
  9 10  1  0  0  0  0
 10 11  1  0  0  0  0
 10 17  1  0  0  0  0
 11 12  2  0  0  0  0
 11 16  1  0  0  0  0
 12 13  1  0  0  0  0
 13 14  2  0  0  0  0
 14 15  1  0  0  0  0
 15 16  2  0  0  0  0
 17 18  1  0  0  0  0
  2 20  1  0  0  0  0
M  RGP  1  20   1
M  END
$$$$
