LIG(A-1301)
  -OEChem-04302000013D

 16 17  0     0  0  0  0  0  0999 V2000
    7.0070   -2.3630   20.7650 N   0  0  0  0  0  0  0  0  0  0  0  0
    7.2790   -2.4740   18.3090 C   0  0  0  0  0  0  0  0  0  0  0  0
    5.7740   -3.8100   19.5770 O   0  0  0  0  0  0  0  0  0  0  0  0
    6.6240   -2.9270   19.6010 C   0  0  0  0  0  0  0  0  0  0  0  0
    7.9070   -1.2250   20.9110 C   0  0  0  0  0  0  0  0  0  0  0  0
    6.5880   -2.8610   22.0720 C   0  0  0  0  0  0  0  0  0  0  0  0
    7.7990   -3.2530   22.8870 C   0  0  0  0  0  0  0  0  0  0  0  0
    9.9030   -2.5430   23.8170 C   0  0  0  0  0  0  0  0  0  0  0  0
   10.9850   -1.4940   23.8150 C   0  0  0  0  0  0  0  0  0  0  0  0
   12.0870   -1.4240   22.9100 C   0  0  0  0  0  0  0  0  0  0  0  0
   12.7980   -0.2800   23.0050 C   0  0  0  0  0  0  0  0  0  0  0  0
   11.0200   -0.4110   24.6860 C   0  0  0  0  0  0  0  0  0  0  0  0
    9.1160   -1.6370   21.7160 C   0  0  0  0  0  0  0  0  0  0  0  0
    8.7300   -2.1310   23.0440 N   0  3  0  0  0  0  0  0  0  0  0  0
   12.1640    0.7410   24.1910 S   0  0  0  0  0  0  0  0  0  0  0  0
    8.8750   -3.2990   18.0960 R#  0  0  0  0  0  0  0  0  0  0  0  0
  1  4  1  0  0  0  0
  1  5  1  0  0  0  0
  1  6  1  0  0  0  0
  2  4  1  0  0  0  0
  3  4  2  0  0  0  0
  5 13  1  0  0  0  0
  6  7  1  0  0  0  0
  7 14  1  0  0  0  0
  8  9  1  0  0  0  0
  8 14  1  0  0  0  0
  9 10  1  0  0  0  0
  9 12  2  0  0  0  0
 10 11  2  0  0  0  0
 11 15  1  0  0  0  0
 12 15  1  0  0  0  0
 13 14  1  0  0  0  0
  2 16  1  0  0  0  0
M  CHG  1  14   1
M  RGP  1  16   1
M  END
$$$$
