LIG(A-701)
  -OEChem-04162023293D

 18 19  0     0  0  0  0  0  0999 V2000
   13.3960   -1.1050   22.5600 C   0  0  0  0  0  0  0  0  0  0  0  0
    7.5180    2.7310   29.3150 C   0  0  0  0  0  0  0  0  0  0  0  0
    6.3240    2.6450   30.0030 C   0  0  0  0  0  0  0  0  0  0  0  0
    5.8490    3.7750   30.8670 C   0  0  0  0  0  0  0  0  0  0  0  0
    5.5850    1.4830   29.8770 C   0  0  0  0  0  0  0  0  0  0  0  0
    6.0160    0.4270   29.0890 C   0  0  0  0  0  0  0  0  0  0  0  0
   11.8700   -0.1610   24.1700 C   0  0  0  0  0  0  0  0  0  0  0  0
   11.1660   -0.4200   25.4800 C   0  0  0  0  0  0  0  0  0  0  0  0
   10.8450   -2.7490   24.7900 C   0  0  0  0  0  0  0  0  0  0  0  0
   11.6140   -2.4270   23.5260 C   0  0  0  0  0  0  0  0  0  0  0  0
    8.9780   -1.5000   25.8560 C   0  0  0  0  0  0  0  0  0  0  0  0
    8.5660   -0.2370   26.6000 C   0  0  0  0  0  0  0  0  0  0  0  0
    7.2150    0.5330   28.4000 C   0  0  0  0  0  0  0  0  0  0  0  0
    7.9700    1.6950   28.5140 C   0  0  0  0  0  0  0  0  0  0  0  0
   12.5890   -1.3610   23.7540 N   0  3  0  0  0  0  0  0  0  0  0  0
   10.2410   -1.5520   25.3800 N   0  0  0  0  0  0  0  0  0  0  0  0
    8.1660   -2.4180   25.7270 O   0  0  0  0  0  0  0  0  0  0  0  0
    7.6280   -0.5210   27.6270 O   0  0  0  0  0  0  0  0  0  0  0  0
  1 15  1  0  0  0  0
  2  3  2  0  0  0  0
  2 14  1  0  0  0  0
  3  4  1  0  0  0  0
  3  5  1  0  0  0  0
  5  6  2  0  0  0  0
  6 13  1  0  0  0  0
  7  8  1  0  0  0  0
  7 15  1  0  0  0  0
  8 16  1  0  0  0  0
  9 10  1  0  0  0  0
  9 16  1  0  0  0  0
 10 15  1  0  0  0  0
 11 12  1  0  0  0  0
 11 16  1  0  0  0  0
 11 17  2  0  0  0  0
 12 18  1  0  0  0  0
 13 14  2  0  0  0  0
 13 18  1  0  0  0  0
M  CHG  1  15   1
M  END
$$$$
