@<TRIPOS>MOLECULE
LIG(A-1101)
   19    20     0     0     0
SMALL
NO_CHARGES

@<TRIPOS>ATOM
      1 N1          8.7980   -1.9840   23.0490 N.pl3     1 LIG1101     0.0000
      2 C1         12.7230   -2.0480   22.1320 C.3       1 LIG1101     0.0000
      3 O1          5.9400   -4.4160   19.5550 O.2       1 LIG1101     0.0000
      4 C2         12.1790   -0.9580   23.0200 C.ar      1 LIG1101     0.0000
      5 C3          6.4650   -1.4660   21.2850 C.3       1 LIG1101     0.0000
      6 C4          7.1870   -3.7400   22.1060 C.2       1 LIG1101     0.0000
      7 C5          7.7650   -3.0040   23.3130 C.2       1 LIG1101     0.0000
      8 C6          6.5660   -3.3810   19.7670 C.2       1 LIG1101     0.0000
      9 C7          7.2560   -2.7040   18.5920 C.3       1 LIG1101     0.0000
     10 C8         12.9100    0.2110   23.1590 C.ar      1 LIG1101     0.0000
     11 C9         12.4700    1.2440   23.9620 C.ar      1 LIG1101     0.0000
     12 C10        11.2820    1.1230   24.6430 C.ar      1 LIG1101     0.0000
     13 C11        10.5400   -0.0350   24.5240 C.ar      1 LIG1101     0.0000
     14 C12        10.9760   -1.0970   23.7340 C.ar      1 LIG1101     0.0000
     15 C13        10.1080   -2.3270   23.6150 C.3       1 LIG1101     0.0000
     16 C14         8.9100   -1.5010   21.6640 C.3       1 LIG1101     0.0000
     17 C15         7.7370   -0.6600   21.2420 C.3       1 LIG1101     0.0000
     18 N2          6.7070   -2.8880   21.0100 N.am      1 LIG1101     0.0000
     19 Du1         8.9210   -3.3850   18.3200 Du        1 LIG1101     0.0000
@<TRIPOS>BOND
     1    1    7 1
     2    1   15 1
     3    1   16 1
     4    2    4 1
     5    3    8 2
     6    4   10 ar
     7    4   14 ar
     8    5   17 1
     9    5   18 1
    10    6    7 2
    11    6   18 1
    12    8    9 1
    13    8   18 am
    14   10   11 ar
    15   11   12 ar
    16   12   13 ar
    17   13   14 ar
    18   14   15 1
    19   16   17 1
    20    9   19 1
