@<TRIPOS>MOLECULE
LIG(A-1101)
   18    19     0     0     0
SMALL
NO_CHARGES

@<TRIPOS>ATOM
      1 N1          6.3990   -5.0700   21.6550 N.am      1 LIG1101     0.0000
      2 C1          7.6530   -3.4810   20.2250 C.3       1 LIG1101     0.0000
      3 O1          5.7180   -4.7100   19.5510 O.2       1 LIG1101     0.0000
      4 C2          6.5220   -4.4770   20.4470 C.2       1 LIG1101     0.0000
      5 C3          7.2420   -4.8110   22.8230 C.3       1 LIG1101     0.0000
      6 C4          6.3960   -4.2950   23.9560 C.3       1 LIG1101     0.0000
      7 C5          4.5000   -5.5840   23.1000 C.3       1 LIG1101     0.0000
      8 C6          5.3670   -6.0610   21.9620 C.3       1 LIG1101     0.0000
      9 C7          3.4450   -3.8280   25.5980 C.2       1 LIG1101     0.0000
     10 C8          2.1350   -3.9400   25.2010 C.2       1 LIG1101     0.0000
     11 C9          1.4850   -2.6810   25.2530 C.2       1 LIG1101     0.0000
     12 C10         2.2720   -1.6970   25.7480 C.2       1 LIG1101     0.0000
     13 N2          5.3460   -5.2780   24.2680 N.pl3     1 LIG1101     0.0000
     14 O2          3.8570   -6.3270   25.9340 O.2       1 LIG1101     0.0000
     15 O3          5.5990   -4.7340   26.6630 O.2       1 LIG1101     0.0000
     16 S1          4.6030   -5.1290   25.7160 S.o2      1 LIG1101     0.0000
     17 S2          3.8790   -2.2150   25.9790 S.3       1 LIG1101     0.0000
     18 Du1         8.3320   -3.3970   18.5410 Du        1 LIG1101     0.0000
@<TRIPOS>BOND
     1    1    4 am
     2    1    5 1
     3    1    8 1
     4    2    4 1
     5    3    4 2
     6    5    6 1
     7    6   13 1
     8    7    8 1
     9    7   13 1
    10    9   10 2
    11    9   16 1
    12    9   17 1
    13   10   11 1
    14   11   12 2
    15   12   17 1
    16   13   16 1
    17   14   16 2
    18   15   16 2
    19    2   18 1
