@<TRIPOS>MOLECULE
LIG(A-1101)
   15    16     0     0     0
SMALL
NO_CHARGES

@<TRIPOS>ATOM
      1 C1          7.4480  -23.3320   -1.2820 C.3       1 LIG1101     0.0000
      2 C2          7.1260  -21.8580   -0.9670 C.3       1 LIG1101     0.0000
      3 C3          7.7130  -20.9540   -2.0490 C.3       1 LIG1101     0.0000
      4 C4          7.7030  -18.6320   -3.0760 C.2       1 LIG1101     0.0000
      5 C5          8.8180  -18.9900   -4.0610 C.3       1 LIG1101     0.0000
      6 C6         10.0330  -16.8490   -4.0240 C.2       1 LIG1101     0.0000
      7 C7         10.3160  -15.8410   -4.9240 C.2       1 LIG1101     0.0000
      8 C8          9.7340  -16.2090   -6.1270 C.2       1 LIG1101     0.0000
      9 C9          6.1560  -19.2990   -1.1820 C.2       1 LIG1101     0.0000
     10 C10         5.2020  -20.4380   -0.8260 C.2       1 LIG1101     0.0000
     11 N1          7.2020  -19.6060   -2.1260 N.am      1 LIG1101     0.0000
     12 N2          9.3260  -17.7680   -4.6570 N.pl3     1 LIG1101     0.0000
     13 N3          9.1390  -17.3750   -5.9500 N.2       1 LIG1101     0.0000
     14 O1          7.2450  -17.5370   -3.1020 O.2       1 LIG1101     0.0000
     15 O2          5.7300  -21.7480   -0.8410 O.3       1 LIG1101     0.0000
@<TRIPOS>BOND
     1    1    2 1
     2    2    3 1
     3    2   15 1
     4    3   11 1
     5    4    5 1
     6    4   11 am
     7    4   14 2
     8    5   12 1
     9    6    7 2
    10    6   12 1
    11    7    8 1
    12    8   13 2
    13    9   10 2
    14    9   11 1
    15   10   15 1
    16   12   13 1
