@<TRIPOS>MOLECULE
LIG(A-1101)
   21    22     0     0     0
SMALL
NO_CHARGES

@<TRIPOS>ATOM
      1 N1          5.6380   -5.2300   24.4260 N.pl3     1 LIG1101     0.0000
      2 C1          2.4450   -4.1450   25.7970 C.ar      1 LIG1101     0.0000
      3 O1          4.3530   -6.3180   26.2130 O.2       1 LIG1101     0.0000
      4 C2          1.4660   -3.1820   25.7740 C.ar      1 LIG1101     0.0000
      5 C3          6.5420   -4.5650   20.5230 C.2       1 LIG1101     0.0000
      6 C4          7.5550   -3.4780   20.2630 C.3       1 LIG1101     0.0000
      7 C5          1.8450   -1.8580   25.8590 C.ar      1 LIG1101     0.0000
      8 C6          3.1730   -1.4890   25.9690 C.ar      1 LIG1101     0.0000
      9 C7          4.1320   -2.4740   25.9870 C.ar      1 LIG1101     0.0000
     10 C8          3.7880   -3.8150   25.9020 C.ar      1 LIG1101     0.0000
     11 C9          4.6700   -5.3510   23.3260 C.3       1 LIG1101     0.0000
     12 C10         5.3750   -5.9710   22.1520 C.3       1 LIG1101     0.0000
     13 C11         7.4620   -4.9760   22.8490 C.3       1 LIG1101     0.0000
     14 C12         6.7860   -4.3840   24.0590 C.3       1 LIG1101     0.0000
     15 F1          2.0750   -5.4430   25.7140 F         1 LIG1101     0.0000
     16 F2          5.4320   -2.1110   26.0880 F         1 LIG1101     0.0000
     17 N2          6.4970   -5.1210   21.7560 N.am      1 LIG1101     0.0000
     18 O2          6.0930   -4.6560   26.7820 O.2       1 LIG1101     0.0000
     19 O3          5.7560   -4.8860   19.6400 O.2       1 LIG1101     0.0000
     20 S1          5.0210   -5.0840   25.9370 S.o2      1 LIG1101     0.0000
     21 Du1         8.2830   -3.4240   18.5970 Du        1 LIG1101     0.0000
@<TRIPOS>BOND
     1    1   11 1
     2    1   14 1
     3    1   20 1
     4    2    4 ar
     5    2   10 ar
     6    2   15 1
     7    3   20 2
     8    4    7 ar
     9    5    6 1
    10    5   17 am
    11    5   19 2
    12    7    8 ar
    13    8    9 ar
    14    9   10 ar
    15    9   16 1
    16   10   20 1
    17   11   12 1
    18   12   17 1
    19   13   14 1
    20   13   17 1
    21   18   20 2
    22    6   21 1
