LIG(A-1101)
  -OEChem-04032019323D

 15 16  0     0  0  0  0  0  0999 V2000
    8.3910   -1.3890   20.7480 C   0  0  0  0  0  0  0  0  0  0  0  0
    7.3210   -1.6620   18.4660 C   0  0  0  0  0  0  0  0  0  0  0  0
    6.4820   -0.3680   18.3880 C   0  0  0  0  0  0  0  0  0  0  0  0
    5.5080    0.0260   19.3090 C   0  0  0  0  0  0  0  0  0  0  0  0
    5.0040    1.2280   18.8850 C   0  0  0  0  0  0  0  0  0  0  0  0
    3.9090    2.0390   19.5820 C   0  0  0  0  0  0  0  0  0  0  0  0
    6.5190   -3.0820   20.4400 C   0  0  0  0  0  0  0  0  0  0  0  0
    5.7590   -4.4650   22.4780 C   0  0  0  0  0  0  0  0  0  0  0  0
    6.5330   -5.6520   23.0580 C   0  0  0  0  0  0  0  0  0  0  0  0
    5.6630   -5.8420   21.8100 C   0  0  0  0  0  0  0  0  0  0  0  0
    7.4100   -2.0580   19.8830 N   0  0  0  0  0  0  0  0  0  0  0  0
    6.5530    0.5880   17.4480 N   0  0  0  0  0  0  0  0  0  0  0  0
    6.6220   -3.4450   21.8620 N   0  0  0  0  0  0  0  0  0  0  0  0
    5.6360    1.5480   17.7650 O   0  0  0  0  0  0  0  0  0  0  0  0
    5.7270   -3.6150   19.7290 O   0  0  0  0  0  0  0  0  0  0  0  0
  1 11  1  0  0  0  0
  2  3  1  0  0  0  0
  2 11  1  0  0  0  0
  3  4  1  0  0  0  0
  3 12  2  0  0  0  0
  4  5  2  0  0  0  0
  5  6  1  0  0  0  0
  5 14  1  0  0  0  0
  7 11  1  0  0  0  0
  7 13  1  0  0  0  0
  7 15  2  0  0  0  0
  8  9  1  0  0  0  0
  8 10  1  0  0  0  0
  8 13  1  0  0  0  0
  9 10  1  0  0  0  0
 12 14  1  0  0  0  0
M  END
$$$$
