LIG(A-1101)
  -OEChem-04162023373D

 17 18  0     0  0  0  0  0  0999 V2000
    7.0950   -4.4970   20.7570 N   0  0  0  0  0  0  0  0  0  0  0  0
    7.7210   -2.7500   19.1690 C   0  0  0  0  0  0  0  0  0  0  0  0
    5.6950   -3.9990   19.0720 O   0  0  0  0  0  0  0  0  0  0  0  0
    6.7440   -3.7890   19.6720 C   0  0  0  0  0  0  0  0  0  0  0  0
   10.7950   -0.5580   23.5030 C   0  0  0  0  0  0  0  0  0  0  0  0
    7.8150   -2.8060   22.2890 C   0  0  0  0  0  0  0  0  0  0  0  0
    9.0560   -2.0700   22.5990 C   0  0  0  0  0  0  0  0  0  0  0  0
   10.2110   -1.9820   21.7680 C   0  0  0  0  0  0  0  0  0  0  0  0
   11.2100   -1.1770   22.3640 C   0  0  0  0  0  0  0  0  0  0  0  0
   12.6020   -0.9820   21.8630 C   0  0  0  0  0  0  0  0  0  0  0  0
   13.4670   -0.2860   22.8990 C   0  0  0  0  0  0  0  0  0  0  0  0
   12.7830    0.9050   23.4700 C   0  0  0  0  0  0  0  0  0  0  0  0
   11.5340    0.5250   24.2360 C   0  0  0  0  0  0  0  0  0  0  0  0
    7.9720   -4.0080   21.7080 N   0  0  0  0  0  0  0  0  0  0  0  0
    6.7060   -2.3180   22.5140 O   0  0  0  0  0  0  0  0  0  0  0  0
    9.2820   -1.1620   24.0760 S   0  0  0  0  0  0  0  0  0  0  0  0
    9.0690   -3.4690   18.1820 R#  0  0  0  0  0  0  0  0  0  0  0  0
  1  4  1  0  0  0  0
  1 14  1  0  0  0  0
  2  4  1  0  0  0  0
  3  4  2  0  0  0  0
  5  9  2  0  0  0  0
  5 13  1  0  0  0  0
  5 16  1  0  0  0  0
  6  7  1  0  0  0  0
  6 14  1  0  0  0  0
  6 15  2  0  0  0  0
  7  8  2  0  0  0  0
  7 16  1  0  0  0  0
  8  9  1  0  0  0  0
  9 10  1  0  0  0  0
 10 11  1  0  0  0  0
 11 12  1  0  0  0  0
 12 13  1  0  0  0  0
  2 17  1  0  0  0  0
M  RGP  1  17   1
M  END
$$$$
