@<TRIPOS>MOLECULE
LIG(A-1101)
   20    22     0     0     0
SMALL
NO_CHARGES

@<TRIPOS>ATOM
      1 C1          6.8940   -3.2690   20.0090 C.2       1 LIG1101     0.0000
      2 C2          7.3960   -2.6410   18.7390 C.3       1 LIG1101     0.0000
      3 C3          6.5830   -3.0990   22.4350 C.3       1 LIG1101     0.0000
      4 C4          7.5660   -3.6430   23.4340 C.ar      1 LIG1101     0.0000
      5 C5          7.1060   -4.4750   24.4560 C.ar      1 LIG1101     0.0000
      6 C6          7.9820   -4.9920   25.3920 C.ar      1 LIG1101     0.0000
      7 C7          9.3270   -4.6890   25.3190 C.ar      1 LIG1101     0.0000
      8 C8          9.7980   -3.8650   24.3090 C.ar      1 LIG1101     0.0000
      9 C9          8.9250   -3.3220   23.3570 C.ar      1 LIG1101     0.0000
     10 C10         9.4710   -2.4290   22.2480 C.3       1 LIG1101     0.0000
     11 C11        10.4440   -1.3760   22.7380 C.ar      1 LIG1101     0.0000
     12 C12        11.7260   -1.2880   22.2100 C.ar      1 LIG1101     0.0000
     13 C13        12.6150   -0.3270   22.6610 C.ar      1 LIG1101     0.0000
     14 C14        12.2350    0.5650   23.6380 C.ar      1 LIG1101     0.0000
     15 C15        10.9690    0.4960   24.1700 C.ar      1 LIG1101     0.0000
     16 C16        10.0780   -0.4680   23.7240 C.ar      1 LIG1101     0.0000
     17 C17         8.3600   -1.7750   21.4300 C.3       1 LIG1101     0.0000
     18 N1          7.2700   -2.7250   21.1980 N.am      1 LIG1101     0.0000
     19 O1          6.1580   -4.2440   19.9390 O.2       1 LIG1101     0.0000
     20 Du1         8.9750   -3.4240   18.3340 Du        1 LIG1101     0.0000
@<TRIPOS>BOND
     1    1    2 1
     2    1   18 am
     3    1   19 2
     4    3    4 1
     5    3   18 1
     6    4    5 ar
     7    4    9 ar
     8    5    6 ar
     9    6    7 ar
    10    7    8 ar
    11    8    9 ar
    12    9   10 1
    13   10   11 1
    14   10   17 1
    15   11   12 ar
    16   11   16 ar
    17   12   13 ar
    18   13   14 ar
    19   14   15 ar
    20   15   16 ar
    21   17   18 1
    22    2   20 1
