@<TRIPOS>MOLECULE
LIG(A-1101)
   17    18     0     0     0
SMALL
NO_CHARGES

@<TRIPOS>ATOM
      1 N1          6.8280   -2.7170   20.9090 N.am      1 LIG1101     0.0000
      2 C1          7.1000   -2.5280   18.4610 C.3       1 LIG1101     0.0000
      3 O1          5.7550   -4.1580   19.5520 O.2       1 LIG1101     0.0000
      4 C2          6.4960   -3.1870   19.6870 C.2       1 LIG1101     0.0000
      5 C3          7.6700   -1.5520   21.1940 C.3       1 LIG1101     0.0000
      6 C4          6.3900   -3.3620   22.1430 C.3       1 LIG1101     0.0000
      7 C5          7.5990   -3.7790   22.9450 C.3       1 LIG1101     0.0000
      8 C6          9.5900   -3.0230   24.0960 C.3       1 LIG1101     0.0000
      9 C7          9.2910   -4.1110   25.0820 C.2       1 LIG1101     0.0000
     10 C8          9.7470   -5.4240   25.0500 C.2       1 LIG1101     0.0000
     11 C9          9.4300   -6.1510   26.2210 C.2       1 LIG1101     0.0000
     12 C10         8.5330   -5.4500   27.0160 C.2       1 LIG1101     0.0000
     13 C11         8.8520   -1.9520   22.0510 C.3       1 LIG1101     0.0000
     14 N2          8.4260   -2.6180   23.2870 N.4       1 LIG1101     0.0000
     15 S1          8.2710   -3.8500   26.4530 S.3       1 LIG1101     0.0000
     16 Cl1         7.7100   -6.0260   28.4080 Cl        1 LIG1101     0.0000
     17 Du1         8.7580   -3.2080   18.2060 Du        1 LIG1101     0.0000
@<TRIPOS>BOND
     1    1    4 am
     2    1    5 1
     3    1    6 1
     4    2    4 1
     5    3    4 2
     6    5   13 1
     7    6    7 1
     8    7   14 1
     9    8    9 1
    10    8   14 1
    11    9   10 2
    12    9   15 1
    13   10   11 1
    14   11   12 2
    15   12   15 1
    16   12   16 1
    17   13   14 1
    18    2   17 1
