@<TRIPOS>MOLECULE
LIG(A-1301)
   13    13     0     0     0
SMALL
NO_CHARGES

@<TRIPOS>ATOM
      1 N1          6.2200   -5.1690   24.2210 N.am      1 LIG1301     0.0000
      2 C1          4.9120   -6.1750   26.0210 C.3       1 LIG1301     0.0000
      3 O1          7.2040   -5.6080   26.1870 O.2       1 LIG1301     0.0000
      4 C2          6.1980   -5.6280   25.4870 C.2       1 LIG1301     0.0000
      5 C3          5.2500   -5.5480   23.1880 C.3       1 LIG1301     0.0000
      6 C4          5.9470   -5.9830   21.9160 C.3       1 LIG1301     0.0000
      7 C5          7.8800   -4.6470   22.5140 C.3       1 LIG1301     0.0000
      8 C6          7.1900   -4.1740   23.7700 C.3       1 LIG1301     0.0000
      9 C7          6.9160   -4.3030   20.3080 C.2       1 LIG1301     0.0000
     10 C8          8.2160   -3.6150   20.0030 C.3       1 LIG1301     0.0000
     11 N2          6.8880   -4.9550   21.4860 N.am      1 LIG1301     0.0000
     12 O2          5.9720   -4.2680   19.5310 O.2       1 LIG1301     0.0000
     13 Du1         8.5300   -3.3110   18.2590 Du        1 LIG1301     0.0000
@<TRIPOS>BOND
     1    1    4 am
     2    1    5 1
     3    1    8 1
     4    2    4 1
     5    3    4 2
     6    5    6 1
     7    6   11 1
     8    7    8 1
     9    7   11 1
    10    9   10 1
    11    9   11 am
    12    9   12 2
    13   10   13 1
