LIG(A-1201)
  -OEChem-04162023103D

 19 21  0     1  0  0  0  0  0999 V2000
    7.1790   -4.5620   21.2990 N   0  0  0  0  0  0  0  0  0  0  0  0
    7.4380   -2.9880   19.4120 C   0  0  0  0  0  0  0  0  0  0  0  0
    5.6490   -4.5230   19.6640 O   0  0  0  0  0  0  0  0  0  0  0  0
    6.6830   -4.0770   20.1430 C   0  0  0  0  0  0  0  0  0  0  0  0
   13.1790   -0.8060   24.9540 C   0  0  0  0  0  0  0  0  0  0  0  0
   13.7060   -1.8750   25.6660 C   0  0  0  0  0  0  0  0  0  0  0  0
   13.0350   -3.0740   25.7360 C   0  0  0  0  0  0  0  0  0  0  0  0
   11.8210   -3.1800   25.0610 C   0  0  0  0  0  0  0  0  0  0  0  0
    6.3490   -5.4300   22.1430 C   0  0  0  0  0  0  0  0  0  0  0  0
    7.1930   -6.3500   23.0020 C   0  0  0  0  0  0  0  0  0  0  0  0
    8.0570   -5.5390   23.9710 C   0  0  0  0  0  0  0  0  0  0  0  0
    8.4320   -4.1850   23.3590 C   0  0  2  0  0  0  0  0  0  0  0  0
    8.5090   -4.3180   21.8490 C   0  0  0  0  0  0  0  0  0  0  0  0
    9.7030   -3.6000   23.9330 C   0  0  0  0  0  0  0  0  0  0  0  0
   11.2860   -2.1090   24.3360 C   0  0  0  0  0  0  0  0  0  0  0  0
   11.9770   -0.9030   24.2870 C   0  0  0  0  0  0  0  0  0  0  0  0
   10.0680   -2.3770   23.7150 N   0  0  0  0  0  0  0  0  0  0  0  0
   10.7570   -4.5460   24.9570 S   0  0  0  0  0  0  0  0  0  0  0  0
    8.8670   -3.6720   18.5520 R#  0  0  0  0  0  0  0  0  0  0  0  0
  1  4  1  0  0  0  0
  1  9  1  0  0  0  0
  1 13  1  0  0  0  0
  2  4  1  0  0  0  0
  3  4  2  0  0  0  0
  5  6  2  0  0  0  0
  5 16  1  0  0  0  0
  6  7  1  0  0  0  0
  7  8  2  0  0  0  0
  8 15  1  0  0  0  0
  8 18  1  0  0  0  0
  9 10  1  0  0  0  0
 10 11  1  0  0  0  0
 11 12  1  0  0  0  0
 12 13  1  0  0  0  0
 12 14  1  0  0  0  0
 14 17  2  0  0  0  0
 14 18  1  0  0  0  0
 15 16  2  0  0  0  0
 15 17  1  0  0  0  0
  2 19  1  0  0  0  0
M  RGP  1  19   1
M  END
$$$$
