@<TRIPOS>MOLECULE
LIG(A-1101)
   16    17     0     0     0
SMALL
NO_CHARGES

@<TRIPOS>ATOM
      1 N1          7.2030   -3.8360   21.2630 N.am      1 LIG1101     0.0000
      2 C1          7.7920   -4.7460   27.6100 C.3       1 LIG1101     0.0000
      3 O1          7.6280   -4.8190   26.1940 O.3       1 LIG1101     0.0000
      4 C2          6.5200   -5.4330   25.6990 C.ar      1 LIG1101     0.0000
      5 C3          5.6040   -6.1620   26.4540 C.ar      1 LIG1101     0.0000
      6 C4          4.5010   -6.7540   25.8330 C.ar      1 LIG1101     0.0000
      7 C5          4.2940   -6.6350   24.4760 C.ar      1 LIG1101     0.0000
      8 C6          5.2180   -5.9070   23.7360 C.ar      1 LIG1101     0.0000
      9 C7          6.6430   -4.5980   22.2680 C.2       1 LIG1101     0.0000
     10 C8          6.7020   -3.6950   19.9970 C.2       1 LIG1101     0.0000
     11 C9          7.5060   -2.8030   19.0820 C.3       1 LIG1101     0.0000
     12 C10         6.3370   -5.2990   24.3250 C.ar      1 LIG1101     0.0000
     13 N2          7.1680   -4.6060   23.4600 N.2       1 LIG1101     0.0000
     14 O2          5.6780   -4.2570   19.6440 O.2       1 LIG1101     0.0000
     15 S1          5.2230   -5.5870   22.0220 S.3       1 LIG1101     0.0000
     16 Du1         9.0030   -3.5870   18.4170 Du        1 LIG1101     0.0000
@<TRIPOS>BOND
     1    1    9 1
     2    1   10 am
     3    2    3 1
     4    3    4 1
     5    4    5 ar
     6    4   12 ar
     7    5    6 ar
     8    6    7 ar
     9    7    8 ar
    10    8   12 ar
    11    8   15 1
    12    9   13 2
    13    9   15 1
    14   10   11 1
    15   10   14 2
    16   12   13 1
    17   11   16 1
