@<TRIPOS>MOLECULE
LIG(A-1101)
   14    15     0     0     0
SMALL
NO_CHARGES

@<TRIPOS>ATOM
      1 C1          9.4830   -5.4700   26.2140 C.3       1 LIG1101     0.0000
      2 C2          9.2450   -4.0890   25.5860 C.2       1 LIG1101     0.0000
      3 C3          9.1100   -2.1110   24.1010 C.2       1 LIG1101     0.0000
      4 C4          9.1760   -1.1030   22.9370 C.3       1 LIG1101     0.0000
      5 C5         10.6500    0.2590   23.7520 C.3       1 LIG1101     0.0000
      6 C6         11.9720    1.1570   23.3260 C.3       1 LIG1101     0.0000
      7 C7         12.9930    0.4020   22.8480 C.2       1 LIG1101     0.0000
      8 C8         12.6620   -0.8640   22.0630 C.2       1 LIG1101     0.0000
      9 C9         11.4340   -1.5160   22.3580 C.3       1 LIG1101     0.0000
     10 F1         13.6440   -1.5870   21.5050 F         1 LIG1101     0.0000
     11 N1          8.6850   -3.0140   26.2440 N.2       1 LIG1101     0.0000
     12 N2          8.5980   -1.8330   25.3570 N.2       1 LIG1101     0.0000
     13 N3         10.3000   -0.5370   22.8150 N.4       1 LIG1101     0.0000
     14 S1          9.6260   -3.6700   24.0430 S.3       1 LIG1101     0.0000
@<TRIPOS>BOND
     1    1    2 1
     2    2   11 2
     3    2   14 1
     4    3    4 1
     5    3   12 2
     6    3   14 1
     7    4   13 1
     8    5    6 1
     9    5   13 1
    10    6    7 1
    11    7    8 2
    12    8    9 1
    13    8   10 1
    14    9   13 1
    15   11   12 1
