@<TRIPOS>MOLECULE
LIG(A-1101)
   15    16     0     0     0
SMALL
NO_CHARGES

@<TRIPOS>ATOM
      1 C1          7.6390   -0.5590   -4.8740 C.3       1 LIG1101     0.0000
      2 C2          6.1190   -2.3810   -5.5970 C.2       1 LIG1101     0.0000
      3 C3          5.2970   -2.6040   -6.6410 C.2       1 LIG1101     0.0000
      4 C4          5.3850   -1.4810   -7.4760 C.2       1 LIG1101     0.0000
      5 C5          4.6280   -1.2430   -8.8050 C.2       1 LIG1101     0.0000
      6 C6          3.1580   -2.0690  -10.7460 C.3       1 LIG1101     0.0000
      7 C7          4.0330   -2.4710  -11.8940 C.3       1 LIG1101     0.0000
      8 C8          3.3040   -2.1080  -13.3370 C.3       1 LIG1101     0.0000
      9 C9          3.7480   -2.9640  -14.1940 C.3       1 LIG1101     0.0000
     10 C10         4.2590   -4.2040  -13.3660 C.3       1 LIG1101     0.0000
     11 N1          6.6760   -1.1930   -5.7880 N.pl3     1 LIG1101     0.0000
     12 N2          3.8830   -2.3280   -9.4740 N.am      1 LIG1101     0.0000
     13 N3          6.2130   -0.6480   -6.9380 N.2       1 LIG1101     0.0000
     14 O1          4.6400   -0.1550   -9.2620 O.2       1 LIG1101     0.0000
     15 O2          4.2180   -3.7630  -11.8810 O.3       1 LIG1101     0.0000
@<TRIPOS>BOND
     1    1   11 1
     2    2    3 2
     3    2   11 1
     4    3    4 1
     5    4    5 1
     6    4   13 2
     7    5   12 am
     8    5   14 2
     9    6    7 1
    10    6   12 1
    11    7    8 1
    12    7   15 1
    13    8    9 1
    14    9   10 1
    15   10   15 1
    16   11   13 1
