@<TRIPOS>MOLECULE
LIG(A-1101)
   21    22     0     0     0
SMALL
NO_CHARGES

@<TRIPOS>ATOM
      1 N1          5.8360   -5.3040   24.3480 N.pl3     1 LIG1101     0.0000
      2 C1          0.7820   -1.4490   26.1340 C.3       1 LIG1101     0.0000
      3 O1          4.7890   -6.8340   25.9830 O.2       1 LIG1101     0.0000
      4 C2          1.8750   -2.4660   26.0680 C.ar      1 LIG1101     0.0000
      5 C3          5.1940   -5.1710   22.0640 C.3       1 LIG1101     0.0000
      6 C4          5.2440   -6.0810   23.2580 C.3       1 LIG1101     0.0000
      7 C5          6.8310   -4.3320   20.4750 C.2       1 LIG1101     0.0000
      8 C6          8.0960   -3.5620   20.2020 C.3       1 LIG1101     0.0000
      9 C7          3.1780   -2.1230   26.3510 C.ar      1 LIG1101     0.0000
     10 C8          4.1910   -3.0520   26.2930 C.ar      1 LIG1101     0.0000
     11 C9          3.9100   -4.3730   25.9650 C.ar      1 LIG1101     0.0000
     12 C10         2.5940   -4.7580   25.6460 C.ar      1 LIG1101     0.0000
     13 C11         2.1530   -6.1420   25.2540 C.3       1 LIG1101     0.0000
     14 C12         1.6080   -3.7780   25.7220 C.ar      1 LIG1101     0.0000
     15 C13         7.2490   -5.0210   24.0830 C.3       1 LIG1101     0.0000
     16 C14         7.2790   -4.0680   22.9180 C.3       1 LIG1101     0.0000
     17 N2          6.4930   -4.5460   21.7670 N.am      1 LIG1101     0.0000
     18 O2          6.2920   -5.0250   26.7620 O.2       1 LIG1101     0.0000
     19 O3          6.1280   -4.7060   19.5450 O.2       1 LIG1101     0.0000
     20 S1          5.2740   -5.4940   25.8740 S.o2      1 LIG1101     0.0000
     21 Du1         8.4950   -3.4500   18.4330 Du        1 LIG1101     0.0000
@<TRIPOS>BOND
     1    1    6 1
     2    1   15 1
     3    1   20 1
     4    2    4 1
     5    3   20 2
     6    4    9 ar
     7    4   14 ar
     8    5    6 1
     9    5   17 1
    10    7    8 1
    11    7   17 am
    12    7   19 2
    13    9   10 ar
    14   10   11 ar
    15   11   12 ar
    16   11   20 1
    17   12   13 1
    18   12   14 ar
    19   15   16 1
    20   16   17 1
    21   18   20 2
    22    8   21 1
