@<TRIPOS>MOLECULE
LIG(A-1101)
   11    11     0     0     0
SMALL
NO_CHARGES

@<TRIPOS>ATOM
      1 C1          8.4730   -0.0980   27.4200 C.3       1 LIG1101     0.0000
      2 C2          9.0280   -0.6430   26.1230 C.3       1 LIG1101     0.0000
      3 C3         10.9870   -0.2750   24.6110 C.ar      1 LIG1101     0.0000
      4 C4         10.6330   -1.4060   23.8860 C.ar      1 LIG1101     0.0000
      5 C5         11.4200   -1.8170   22.8290 C.ar      1 LIG1101     0.0000
      6 C6         12.5500   -1.0820   22.5200 C.ar      1 LIG1101     0.0000
      7 C7         13.4420   -1.5190   21.3660 C.1       1 LIG1101     0.0000
      8 C8         12.8470    0.0410   23.2900 C.ar      1 LIG1101     0.0000
      9 N1         10.1620    0.1630   25.7100 N.pl3     1 LIG1101     0.0000
     10 N2         14.1220   -1.8200   20.5080 N.1       1 LIG1101     0.0000
     11 N3         12.0680    0.4160   24.3030 N.ar      1 LIG1101     0.0000
@<TRIPOS>BOND
     1    1    2 1
     2    2    9 1
     3    3    4 ar
     4    3    9 1
     5    3   11 ar
     6    4    5 ar
     7    5    6 ar
     8    6    7 1
     9    6    8 ar
    10    7   10 3
    11    8   11 ar
