@<TRIPOS>MOLECULE
LIG(A-1101)
   17    17     0     0     0
SMALL
NO_CHARGES

@<TRIPOS>ATOM
      1 N1          6.9050   -3.2530   26.5180 N.am      1 LIG1101     0.0000
      2 C1          8.8820   -4.6490   27.0870 C.3       1 LIG1101     0.0000
      3 O1          4.9020   -3.1340   25.4680 O.2       1 LIG1101     0.0000
      4 C2          7.4370   -4.3190   27.4040 C.3       1 LIG1101     0.0000
      5 C3          6.3720   -4.2150   20.1100 C.2       1 LIG1101     0.0000
      6 C4          6.9220   -3.0840   19.2830 C.3       1 LIG1101     0.0000
      7 C5          6.5500   -5.5470   27.4350 C.3       1 LIG1101     0.0000
      8 C6          7.4200   -1.9060   26.7830 C.3       1 LIG1101     0.0000
      9 C7          6.0860   -3.4870   25.4720 C.2       1 LIG1101     0.0000
     10 C8          6.7400   -4.0610   24.2270 C.3       1 LIG1101     0.0000
     11 C9          5.8010   -5.0010   23.4680 C.3       1 LIG1101     0.0000
     12 C10         6.4650   -5.5020   22.2100 C.3       1 LIG1101     0.0000
     13 C11         7.7930   -3.4550   22.0240 C.3       1 LIG1101     0.0000
     14 C12         7.1870   -2.9230   23.3010 C.3       1 LIG1101     0.0000
     15 N2          6.8590   -4.3720   21.3620 N.am      1 LIG1101     0.0000
     16 O2          5.5160   -4.9550   19.6440 O.2       1 LIG1101     0.0000
     17 Du1         8.5020   -3.5110   18.4990 Du        1 LIG1101     0.0000
@<TRIPOS>BOND
     1    1    4 1
     2    1    8 1
     3    1    9 am
     4    2    4 1
     5    3    9 2
     6    4    7 1
     7    5    6 1
     8    5   15 am
     9    5   16 2
    10    9   10 1
    11   10   11 1
    12   10   14 1
    13   11   12 1
    14   12   15 1
    15   13   14 1
    16   13   15 1
    17    6   17 1
