LIG(A-1101)
  -OEChem-04032019313D

 17 18  0     0  0  0  0  0  0999 V2000
    6.8280   -2.7170   20.9090 N   0  0  0  0  0  0  0  0  0  0  0  0
    7.1000   -2.5280   18.4610 C   0  0  0  0  0  0  0  0  0  0  0  0
    5.7550   -4.1580   19.5520 O   0  0  0  0  0  0  0  0  0  0  0  0
    6.4960   -3.1870   19.6870 C   0  0  0  0  0  0  0  0  0  0  0  0
    7.6700   -1.5520   21.1940 C   0  0  0  0  0  0  0  0  0  0  0  0
    6.3900   -3.3620   22.1430 C   0  0  0  0  0  0  0  0  0  0  0  0
    7.5990   -3.7790   22.9450 C   0  0  0  0  0  0  0  0  0  0  0  0
    9.5900   -3.0230   24.0960 C   0  0  0  0  0  0  0  0  0  0  0  0
    9.2910   -4.1110   25.0820 C   0  0  0  0  0  0  0  0  0  0  0  0
    9.7470   -5.4240   25.0500 C   0  0  0  0  0  0  0  0  0  0  0  0
    9.4300   -6.1510   26.2210 C   0  0  0  0  0  0  0  0  0  0  0  0
    8.5330   -5.4500   27.0160 C   0  0  0  0  0  0  0  0  0  0  0  0
    8.8520   -1.9520   22.0510 C   0  0  0  0  0  0  0  0  0  0  0  0
    8.4260   -2.6180   23.2870 N   0  3  0  0  0  0  0  0  0  0  0  0
    8.2710   -3.8500   26.4530 S   0  0  0  0  0  0  0  0  0  0  0  0
    7.7100   -6.0260   28.4080 Cl  0  0  0  0  0  0  0  0  0  0  0  0
    8.7580   -3.2080   18.2060 R#  0  0  0  0  0  0  0  0  0  0  0  0
  1  4  1  0  0  0  0
  1  5  1  0  0  0  0
  1  6  1  0  0  0  0
  2  4  1  0  0  0  0
  3  4  2  0  0  0  0
  5 13  1  0  0  0  0
  6  7  1  0  0  0  0
  7 14  1  0  0  0  0
  8  9  1  0  0  0  0
  8 14  1  0  0  0  0
  9 10  2  0  0  0  0
  9 15  1  0  0  0  0
 10 11  1  0  0  0  0
 11 12  2  0  0  0  0
 12 15  1  0  0  0  0
 12 16  1  0  0  0  0
 13 14  1  0  0  0  0
  2 17  1  0  0  0  0
M  CHG  1  14   1
M  RGP  1  17   1
M  END
$$$$
