@<TRIPOS>MOLECULE
LIG(A-1101)
   34    35     0     0     0
SMALL
USER_CHARGES

@<TRIPOS>ATOM
      1 C1         23.2610  -17.4170   24.2520 C.3       1 LIG1101     0.0789
      2 C2         22.2220  -19.3820   24.0210 C.3       1 LIG1101     0.0845
      3 C3         22.4070  -20.8510   23.6270 C.3       1 LIG1101     0.0879
      4 C4         24.1580  -20.2130   22.1970 C.3       1 LIG1101     0.0879
      5 C5         23.9160  -18.7600   22.5810 C.3       1 LIG1101     0.0845
      6 C6         22.4830  -22.0120   21.3780 C.2       1 LIG1101     0.7965
      7 C7         22.5730  -23.1230   19.1030 C.ar      1 LIG1101     0.0312
      8 C8         22.2280  -24.4200   19.4440 C.ar      1 LIG1101    -0.1356
      9 C9         21.7480  -25.2860   18.4730 C.ar      1 LIG1101    -0.1080
     10 C10        21.6120  -24.8590   17.1590 C.ar      1 LIG1101    -0.1212
     11 C11        21.9560  -23.5600   16.8130 C.ar      1 LIG1101    -0.1080
     12 C12        22.4380  -22.6920   17.7850 C.ar      1 LIG1101    -0.1356
     13 N1         23.3870  -18.6230   23.8650 N.4       1 LIG1101    -0.6818
     14 N2         23.0080  -21.0480   22.3500 N.am      1 LIG1101    -0.5251
     15 N3         23.0960  -22.1930   20.0830 N.am      1 LIG1101    -0.4704
     16 O1         21.5100  -22.6380   21.6380 O.2       1 LIG1101    -0.5917
     17 H1         22.8398  -17.3995   25.2680 H         1 LIG1101     0.1062
     18 H2         24.2465  -16.9282   24.2553 H         1 LIG1101     0.1062
     19 H3         22.5880  -16.8806   23.5669 H         1 LIG1101     0.1062
     20 H4         21.4330  -18.9466   23.3902 H         1 LIG1101     0.1113
     21 H5         21.9138  -19.3382   25.0760 H         1 LIG1101     0.1113
     22 H6         23.0431  -21.3326   24.3843 H         1 LIG1101     0.0923
     23 H7         21.4178  -21.3321   23.6193 H         1 LIG1101     0.0923
     24 H8         24.4730  -20.2457   21.1436 H         1 LIG1101     0.0923
     25 H9         24.9627  -20.6106   22.8329 H         1 LIG1101     0.0923
     26 H10        24.8732  -18.2199   22.5353 H         1 LIG1101     0.1113
     27 H11        23.2111  -18.3185   21.8611 H         1 LIG1101     0.1113
     28 H12        22.3326  -24.7567   20.4648 H         1 LIG1101     0.1422
     29 H13        21.4788  -26.2972   18.7402 H         1 LIG1101     0.1462
     30 H14        21.2386  -25.5376   16.4064 H         1 LIG1101     0.1475
     31 H15        21.8495  -23.2249   15.7919 H         1 LIG1101     0.1462
     32 H16        22.7086  -21.6810   17.5183 H         1 LIG1101     0.1422
     33 H17        24.0586  -19.0494   24.4709 H         1 LIG1101     0.4485
     34 H18        23.9095  -21.6580   19.8549 H         1 LIG1101     0.3205
@<TRIPOS>BOND
     1    1   13 1
     2    2    3 1
     3    2   13 1
     4    3   14 1
     5    4    5 1
     6    4   14 1
     7    5   13 1
     8    6   14 am
     9    6   15 am
    10    6   16 2
    11    7    8 ar
    12    7   12 ar
    13    7   15 1
    14    8    9 ar
    15    9   10 ar
    16   10   11 ar
    17   11   12 ar
    18    1   17 1
    19    1   18 1
    20    1   19 1
    21    2   20 1
    22    2   21 1
    23    3   22 1
    24    3   23 1
    25    4   24 1
    26    4   25 1
    27    5   26 1
    28    5   27 1
    29    8   28 1
    30    9   29 1
    31   10   30 1
    32   11   31 1
    33   12   32 1
    34   13   33 1
    35   15   34 1
