LIG(A-1101)
  -OEChem-04302000283D

 20 21  0     0  0  0  0  0  0999 V2000
    5.4910   -5.3150   24.3760 N   0  0  0  0  0  0  0  0  0  0  0  0
    4.2140   -2.5770   26.0540 C   0  0  0  0  0  0  0  0  0  0  0  0
    5.7950   -5.0800   26.8010 O   0  0  0  0  0  0  0  0  0  0  0  0
    3.3880   -1.4770   26.1030 C   0  0  0  0  0  0  0  0  0  0  0  0
    6.6430   -4.4330   20.5730 C   0  0  0  0  0  0  0  0  0  0  0  0
    7.8190   -3.5260   20.3310 C   0  0  0  0  0  0  0  0  0  0  0  0
    2.0210   -1.6590   26.0000 C   0  0  0  0  0  0  0  0  0  0  0  0
    1.4860   -2.9190   25.8470 C   0  0  0  0  0  0  0  0  0  0  0  0
    2.3140   -4.0250   25.7940 C   0  0  0  0  0  0  0  0  0  0  0  0
    3.6900   -3.8630   25.8940 C   0  0  0  0  0  0  0  0  0  0  0  0
    6.4480   -4.2370   24.0840 C   0  0  0  0  0  0  0  0  0  0  0  0
    7.3480   -4.6760   22.9610 C   0  0  0  0  0  0  0  0  0  0  0  0
    5.5840   -6.0800   22.0820 C   0  0  0  0  0  0  0  0  0  0  0  0
    4.6710   -5.6580   23.2030 C   0  0  0  0  0  0  0  0  0  0  0  0
    5.5490   -2.3870   26.1580 F   0  0  0  0  0  0  0  0  0  0  0  0
    6.5430   -5.0180   21.7880 N   0  0  0  0  0  0  0  0  0  0  0  0
    3.9240   -6.4370   25.9220 O   0  0  0  0  0  0  0  0  0  0  0  0
    5.8190   -4.6190   19.6880 O   0  0  0  0  0  0  0  0  0  0  0  0
    4.7540   -5.2750   25.8410 S   0  0  0  0  0  0  0  0  0  0  0  0
    8.3120   -3.4000   18.5890 R#  0  0  0  0  0  0  0  0  0  0  0  0
  1 11  1  0  0  0  0
  1 14  1  0  0  0  0
  1 19  1  0  0  0  0
  2  4  2  0  0  0  0
  2 10  1  0  0  0  0
  2 15  1  0  0  0  0
  3 19  2  0  0  0  0
  4  7  1  0  0  0  0
  5  6  1  0  0  0  0
  5 16  1  0  0  0  0
  5 18  2  0  0  0  0
  7  8  2  0  0  0  0
  8  9  1  0  0  0  0
  9 10  2  0  0  0  0
 10 19  1  0  0  0  0
 11 12  1  0  0  0  0
 12 16  1  0  0  0  0
 13 14  1  0  0  0  0
 13 16  1  0  0  0  0
 17 19  2  0  0  0  0
  6 20  1  0  0  0  0
M  RGP  1  20   1
M  END
$$$$
