@<TRIPOS>MOLECULE
LIG(A-1101)
   20    21     0     0     0
SMALL
NO_CHARGES

@<TRIPOS>ATOM
      1 N1          6.8690   -2.3990   25.9350 N.am      1 LIG1101     0.0000
      2 C1          5.8960   -0.2310   26.5410 C.ar      1 LIG1101     0.0000
      3 O1          5.2870   -0.2040   25.3300 O.3       1 LIG1101     0.0000
      4 C2          5.7620    0.7900   27.4840 C.ar      1 LIG1101     0.0000
      5 C3          7.7250   -3.1920   21.8090 C.3       1 LIG1101     0.0000
      6 C4          7.0720   -2.5970   23.0240 C.3       1 LIG1101     0.0000
      7 C5          6.4070   -3.8980   19.8250 C.2       1 LIG1101     0.0000
      8 C6          7.1070   -2.8280   19.0300 C.3       1 LIG1101     0.0000
      9 C7          6.4120    0.6930   28.7030 C.ar      1 LIG1101     0.0000
     10 C8          7.1950   -0.4040   28.9940 C.ar      1 LIG1101     0.0000
     11 C9          7.3390   -1.4240   28.0660 C.ar      1 LIG1101     0.0000
     12 C10         6.6790   -1.3470   26.8550 C.ar      1 LIG1101     0.0000
     13 C11         5.9640   -3.0910   25.2040 C.2       1 LIG1101     0.0000
     14 C12         6.5530   -3.7020   23.9460 C.3       1 LIG1101     0.0000
     15 C13         5.5670   -4.5800   23.1720 C.3       1 LIG1101     0.0000
     16 C14         6.2360   -5.1470   21.9430 C.3       1 LIG1101     0.0000
     17 N2          6.7790   -4.0660   21.1100 N.am      1 LIG1101     0.0000
     18 O2          4.7860   -3.2250   25.5150 O.2       1 LIG1101     0.0000
     19 O3          5.5460   -4.5930   19.2980 O.2       1 LIG1101     0.0000
     20 Du1         8.6930   -3.4130   18.3630 Du        1 LIG1101     0.0000
@<TRIPOS>BOND
     1    1   12 1
     2    1   13 am
     3    2    3 1
     4    2    4 ar
     5    2   12 ar
     6    4    9 ar
     7    5    6 1
     8    5   17 1
     9    6   14 1
    10    7    8 1
    11    7   17 am
    12    7   19 2
    13    9   10 ar
    14   10   11 ar
    15   11   12 ar
    16   13   14 1
    17   13   18 2
    18   14   15 1
    19   15   16 1
    20   16   17 1
    21    8   20 1
