LIG(A-1101)
  -OEChem-04162023203D

 18 19  0     0  0  0  0  0  0999 V2000
    3.3660    2.2080   23.4360 C   0  0  0  0  0  0  0  0  0  0  0  0
    5.6270    1.4350   22.5990 C   0  0  0  0  0  0  0  0  0  0  0  0
    5.2800    0.2110   21.7560 C   0  0  0  0  0  0  0  0  0  0  0  0
    5.6920    0.3350   20.2900 C   0  0  0  0  0  0  0  0  0  0  0  0
    6.7500   -0.4410   19.8130 C   0  0  0  0  0  0  0  0  0  0  0  0
    7.1190   -0.3200   18.4800 C   0  0  0  0  0  0  0  0  0  0  0  0
    5.4580    1.2450   18.1040 C   0  0  0  0  0  0  0  0  0  0  0  0
    5.0200    1.2020   19.4240 C   0  0  0  0  0  0  0  0  0  0  0  0
    1.1050    3.2090   24.0690 C   0  0  0  0  0  0  0  0  0  0  0  0
    1.0150    4.6460   24.5900 C   0  0  0  0  0  0  0  0  0  0  0  0
   -0.2970    4.9040   25.3140 C   0  0  0  0  0  0  0  0  0  0  0  0
   -1.4780    4.6080   24.4000 C   0  0  0  0  0  0  0  0  0  0  0  0
   -1.4420    3.1800   23.8710 C   0  0  0  0  0  0  0  0  0  0  0  0
   -0.1000    2.8180   23.2260 C   0  0  0  0  0  0  0  0  0  0  0  0
    4.5010    2.3410   22.5380 N   0  0  0  0  0  0  0  0  0  0  0  0
    6.4810    0.5020   17.6780 N   0  0  0  0  0  0  0  0  0  0  0  0
    2.2940    3.1640   23.2440 N   0  0  0  0  0  0  0  0  0  0  0  0
    3.3300    1.3580   24.2760 O   0  0  0  0  0  0  0  0  0  0  0  0
  1 15  1  0  0  0  0
  1 17  1  0  0  0  0
  1 18  2  0  0  0  0
  2  3  1  0  0  0  0
  2 15  1  0  0  0  0
  3  4  1  0  0  0  0
  4  5  2  0  0  0  0
  4  8  1  0  0  0  0
  5  6  1  0  0  0  0
  6 16  2  0  0  0  0
  7  8  2  0  0  0  0
  7 16  1  0  0  0  0
  9 10  1  0  0  0  0
  9 14  1  0  0  0  0
  9 17  1  0  0  0  0
 10 11  1  0  0  0  0
 11 12  1  0  0  0  0
 12 13  1  0  0  0  0
 13 14  1  0  0  0  0
M  END
$$$$
