@<TRIPOS>MOLECULE
LIG(A-1101)
   16    17     0     0     0
SMALL
NO_CHARGES

@<TRIPOS>ATOM
      1 C1          8.6390   -0.2390   21.3600 C.2       1 LIG1101     0.0000
      2 C2         10.5660   -0.4930   22.8300 C.ar      1 LIG1101     0.0000
      3 C3         10.6050    0.3380   23.9310 C.ar      1 LIG1101     0.0000
      4 C4         11.8110    0.8480   24.3440 C.ar      1 LIG1101     0.0000
      5 C5         12.9690    0.5330   23.6470 C.ar      1 LIG1101     0.0000
      6 C6         12.9220   -0.2980   22.5410 C.ar      1 LIG1101     0.0000
      7 C7         11.7090   -0.8080   22.1210 C.ar      1 LIG1101     0.0000
      8 C8          6.6490    0.0270   19.8680 C.ar      1 LIG1101     0.0000
      9 C9          5.4450    0.6520   20.1520 C.ar      1 LIG1101     0.0000
     10 C10         4.8150    1.3120   19.1090 C.ar      1 LIG1101     0.0000
     11 C11         5.4060    1.2810   17.8510 C.ar      1 LIG1101     0.0000
     12 C12         7.1890    0.0560   18.5940 C.ar      1 LIG1101     0.0000
     13 N1          9.2790   -0.9690   22.4270 N.am      1 LIG1101     0.0000
     14 N2          7.3300   -0.6620   20.9310 N.am      1 LIG1101     0.0000
     15 N3          6.5550    0.6850   17.6400 N.ar      1 LIG1101     0.0000
     16 O1          9.1920    0.6790   20.8500 O.2       1 LIG1101     0.0000
@<TRIPOS>BOND
     1    1   13 am
     2    1   14 am
     3    1   16 2
     4    2    3 ar
     5    2    7 ar
     6    2   13 1
     7    3    4 ar
     8    4    5 ar
     9    5    6 ar
    10    6    7 ar
    11    8    9 ar
    12    8   12 ar
    13    8   14 1
    14    9   10 ar
    15   10   11 ar
    16   11   15 ar
    17   12   15 ar
