@<TRIPOS>MOLECULE
LIG(A-1101)
   17    18     0     0     0
SMALL
NO_CHARGES

@<TRIPOS>ATOM
      1 N1         21.2800    7.5680   22.4640 N.pl3     1 LIG1101     0.0000
      2 C1         21.8130    6.4750   23.1570 C.ar      1 LIG1101     0.0000
      3 O1         22.3330    2.1170   25.8910 O.2       1 LIG1101     0.0000
      4 C2         21.4340    6.2590   24.5220 C.ar      1 LIG1101     0.0000
      5 C3         25.9040    5.5920   28.9530 C.ar      1 LIG1101     0.0000
      6 C4         21.9770    5.1910   25.2480 C.ar      1 LIG1101     0.0000
      7 C5         22.8930    4.2680   24.6920 C.ar      1 LIG1101     0.0000
      8 C6         23.2590    4.5140   23.3220 C.ar      1 LIG1101     0.0000
      9 C7         22.7470    5.5740   22.5630 C.ar      1 LIG1101     0.0000
     10 C8         24.9860    4.3120   27.2420 C.ar      1 LIG1101     0.0000
     11 C9         25.7320    4.9300   26.2430 C.ar      1 LIG1101     0.0000
     12 C10        26.5870    5.9160   26.6700 C.ar      1 LIG1101     0.0000
     13 C11        26.6870    6.2620   28.0160 C.ar      1 LIG1101     0.0000
     14 N2         24.0100    3.4090   27.0110 N.pl3     1 LIG1101     0.0000
     15 N3         25.0600    4.6130   28.6080 N.ar      1 LIG1101     0.0000
     16 O2         24.4960    2.3670   24.7460 O.2       1 LIG1101     0.0000
     17 S1         23.4510    2.9160   25.5040 S.o2      1 LIG1101     0.0000
@<TRIPOS>BOND
     1    1    2 1
     2    2    4 ar
     3    2    9 ar
     4    3   17 2
     5    4    6 ar
     6    5   13 ar
     7    5   15 ar
     8    6    7 ar
     9    7    8 ar
    10    7   17 1
    11    8    9 ar
    12   10   11 ar
    13   10   14 1
    14   10   15 ar
    15   11   12 ar
    16   12   13 ar
    17   14   17 1
    18   16   17 2
