@<TRIPOS>MOLECULE
LIG(A-1101)
   19    20     0     0     0
SMALL
NO_CHARGES

@<TRIPOS>ATOM
      1 N1          6.7430   -2.0750   24.1450 N.am      1 LIG1101     0.0000
      2 C1          1.3710   -2.7370   27.8260 C.3       1 LIG1101     0.0000
      3 O1          7.6030   -1.8050   26.2090 O.2       1 LIG1101     0.0000
      4 C2          2.7370   -2.5490   27.2270 C.ar      1 LIG1101     0.0000
      5 C3          6.0510   -3.7230   22.4930 C.3       1 LIG1101     0.0000
      6 C4          5.6510   -2.4830   23.2590 C.3       1 LIG1101     0.0000
      7 C5          7.3330   -3.4790   20.3910 C.2       1 LIG1101     0.0000
      8 C6          8.6160   -2.9970   19.7660 C.3       1 LIG1101     0.0000
      9 C7          3.8120   -3.3240   27.6310 C.ar      1 LIG1101     0.0000
     10 C8          5.0690   -3.1520   27.0780 C.ar      1 LIG1101     0.0000
     11 C9          5.2780   -2.1880   26.1070 C.ar      1 LIG1101     0.0000
     12 C10         4.2090   -1.4120   25.6940 C.ar      1 LIG1101     0.0000
     13 C11         2.9550   -1.5950   26.2500 C.ar      1 LIG1101     0.0000
     14 C12         6.6330   -1.9990   25.4850 C.2       1 LIG1101     0.0000
     15 C13         7.9890   -1.8220   23.4210 C.3       1 LIG1101     0.0000
     16 C14         8.3750   -3.0430   22.6150 C.3       1 LIG1101     0.0000
     17 N2          7.2690   -3.4400   21.7390 N.am      1 LIG1101     0.0000
     18 O2          6.3980   -3.8530   19.6950 O.2       1 LIG1101     0.0000
     19 Du1         8.7080   -3.1760   17.9670 Du        1 LIG1101     0.0000
@<TRIPOS>BOND
     1    1    6 1
     2    1   14 am
     3    1   15 1
     4    2    4 1
     5    3   14 2
     6    4    9 ar
     7    4   13 ar
     8    5    6 1
     9    5   17 1
    10    7    8 1
    11    7   17 am
    12    7   18 2
    13    9   10 ar
    14   10   11 ar
    15   11   12 ar
    16   11   14 1
    17   12   13 ar
    18   15   16 1
    19   16   17 1
    20    8   19 1
