LIG(A-1101)
  -OEChem-04302000323D

 18 19  0     0  0  0  0  0  0999 V2000
    1.4340    3.7910   25.2370 C   0  0  0  0  0  0  0  0  0  0  0  0
    0.4330    4.4980   25.8910 C   0  0  0  0  0  0  0  0  0  0  0  0
   -0.8730    4.0290   25.9230 C   0  0  0  0  0  0  0  0  0  0  0  0
   -1.1880    2.8370   25.2900 C   0  0  0  0  0  0  0  0  0  0  0  0
   -0.1950    2.1280   24.6260 C   0  0  0  0  0  0  0  0  0  0  0  0
    1.1190    2.5950   24.5990 C   0  0  0  0  0  0  0  0  0  0  0  0
    2.1780    1.7820   23.8560 C   0  0  0  0  0  0  0  0  0  0  0  0
    4.3270    1.6820   22.4790 C   0  0  0  0  0  0  0  0  0  0  0  0
    3.8340    1.6090   21.0330 C   0  0  0  0  0  0  0  0  0  0  0  0
    4.8370    1.1340   19.9780 C   0  0  0  0  0  0  0  0  0  0  0  0
    5.8500    0.2130   20.2460 C   0  0  0  0  0  0  0  0  0  0  0  0
    6.6980   -0.1540   19.2000 C   0  0  0  0  0  0  0  0  0  0  0  0
    5.6070    1.2110   17.7240 C   0  0  0  0  0  0  0  0  0  0  0  0
    4.7240    1.6340   18.7030 C   0  0  0  0  0  0  0  0  0  0  0  0
    2.7160    4.2800   25.2300 F   0  0  0  0  0  0  0  0  0  0  0  0
    3.3160    2.4370   23.2200 N   0  0  0  0  0  0  0  0  0  0  0  0
    6.5610    0.3470   17.9800 N   0  0  0  0  0  0  0  0  0  0  0  0
    2.0500    0.6020   23.8000 O   0  0  0  0  0  0  0  0  0  0  0  0
  1  2  2  0  0  0  0
  1  6  1  0  0  0  0
  1 15  1  0  0  0  0
  2  3  1  0  0  0  0
  3  4  2  0  0  0  0
  4  5  1  0  0  0  0
  5  6  2  0  0  0  0
  6  7  1  0  0  0  0
  7 16  1  0  0  0  0
  7 18  2  0  0  0  0
  8  9  1  0  0  0  0
  8 16  1  0  0  0  0
  9 10  1  0  0  0  0
 10 11  2  0  0  0  0
 10 14  1  0  0  0  0
 11 12  1  0  0  0  0
 12 17  2  0  0  0  0
 13 14  2  0  0  0  0
 13 17  1  0  0  0  0
M  END
$$$$
