@<TRIPOS>MOLECULE
LIG(A-1101)
   15    16     0     0     0
SMALL
NO_CHARGES

@<TRIPOS>ATOM
      1 C1         22.5570   14.9480    8.3120 C.3       1 LIG1101     0.0000
      2 C2         21.4330   14.8650    7.2810 C.3       1 LIG1101     0.0000
      3 C3         20.7200   13.5250    7.5300 C.3       1 LIG1101     0.0000
      4 C4         21.1900   12.4260    6.7230 C.3       1 LIG1101     0.0000
      5 C5         22.4950   12.5870    6.1380 C.3       1 LIG1101     0.0000
      6 C6         22.7180   13.9190    5.4370 C.3       1 LIG1101     0.0000
      7 C7         22.5980   16.0880    5.7470 C.3       1 LIG1101     0.0000
      8 C8         21.7920   17.3520    5.4460 C.ar      1 LIG1101     0.0000
      9 C9         21.4120   17.6070    4.1340 C.ar      1 LIG1101     0.0000
     10 C10        20.7000   18.7590    3.8280 C.ar      1 LIG1101     0.0000
     11 C11        20.3810   19.6630    4.8310 C.ar      1 LIG1101     0.0000
     12 C12        20.7680   19.4190    6.1420 C.ar      1 LIG1101     0.0000
     13 C13        21.4840   18.2670    6.4500 C.ar      1 LIG1101     0.0000
     14 N1         21.9500   15.0480    5.9310 N.4       1 LIG1101     0.0000
     15 O1         19.3510   13.7170    7.2990 O.3       1 LIG1101     0.0000
@<TRIPOS>BOND
     1    1    2 1
     2    2    3 1
     3    2   14 1
     4    3    4 1
     5    3   15 1
     6    4    5 1
     7    5    6 1
     8    6   14 1
     9    7    8 1
    10    7   14 1
    11    8    9 ar
    12    8   13 ar
    13    9   10 ar
    14   10   11 ar
    15   11   12 ar
    16   12   13 ar
