@<TRIPOS>MOLECULE
LIG(A-701)
   35    37     0     0     0
SMALL
USER_CHARGES

@<TRIPOS>ATOM
      1 C1         -0.9340   29.8250   -9.1150 C.2       1 LIG701      0.6703
      2 C2         -2.8150   31.1140   -8.0860 C.3       1 LIG701      0.0980
      3 C3         -3.3940   32.3880   -8.6990 C.3       1 LIG701     -0.0988
      4 C4         -2.5200   33.6260   -8.4840 C.3       1 LIG701     -0.0740
      5 C5         -1.2530   33.6110   -9.3400 C.3       1 LIG701     -0.0740
      6 C6         -0.0240   33.0690   -8.6200 C.3       1 LIG701     -0.0988
      7 C7         -0.3470   31.8360   -7.7940 C.3       1 LIG701      0.0980
      8 C8         -1.9100   28.7880   -9.6660 C.ar      1 LIG701     -0.1317
      9 C9         -2.4000   28.7990  -10.9570 C.ar      1 LIG701     -0.0968
     10 C10        -3.2820   27.8090  -11.3890 C.ar      1 LIG701     -0.1174
     11 C11        -3.6840   26.7780  -10.5200 C.ar      1 LIG701      0.0684
     12 C12        -4.7030   25.0830   -9.4510 C.3       1 LIG701      0.3204
     13 C13        -3.2060   26.7610   -9.2480 C.ar      1 LIG701      0.0498
     14 C14        -2.3080   27.7710   -8.8130 C.ar      1 LIG701     -0.0889
     15 N1         -1.3880   30.9560   -8.3140 N.am      1 LIG701     -0.4658
     16 O1          0.2280   29.6650   -9.3110 O.2       1 LIG701     -0.5920
     17 O2         -4.5510   25.6820  -10.7050 O.3       1 LIG701     -0.3322
     18 O3         -3.7610   25.6500   -8.5770 O.3       1 LIG701     -0.3311
     19 H1         -2.9934   31.1378   -7.0008 H         1 LIG701      0.0540
     20 H2         -3.3352   30.2495   -8.5242 H         1 LIG701      0.0540
     21 H3         -3.5124   32.2301   -9.7811 H         1 LIG701      0.0476
     22 H4         -4.3787   32.5750   -8.2459 H         1 LIG701      0.0476
     23 H5         -3.1073   34.5200   -8.7406 H         1 LIG701      0.0414
     24 H6         -2.2281   33.6707   -7.4244 H         1 LIG701      0.0414
     25 H7         -1.4404   32.9838  -10.2241 H         1 LIG701      0.0414
     26 H8         -1.0398   34.6416   -9.6601 H         1 LIG701      0.0414
     27 H9          0.7386   32.8059   -9.3678 H         1 LIG701      0.0476
     28 H10         0.3704   33.8500   -7.9533 H         1 LIG701      0.0476
     29 H11         0.5757   31.2441   -7.7030 H         1 LIG701      0.0540
     30 H12        -0.6644   32.1758   -6.7971 H         1 LIG701      0.0540
     31 H13        -2.0976   29.5809  -11.6379 H         1 LIG701      0.1512
     32 H14        -3.6602   27.8339  -12.4003 H         1 LIG701      0.1600
     33 H15        -5.7195   25.2651   -9.0720 H         1 LIG701      0.0746
     34 H16        -4.5306   23.9996   -9.5324 H         1 LIG701      0.0746
     35 H17        -1.9293   27.7463   -7.8019 H         1 LIG701      0.1644
@<TRIPOS>BOND
     1    1    8 1
     2    1   15 am
     3    1   16 2
     4    2    3 1
     5    2   15 1
     6    3    4 1
     7    4    5 1
     8    5    6 1
     9    6    7 1
    10    7   15 1
    11    8    9 ar
    12    8   14 ar
    13    9   10 ar
    14   10   11 ar
    15   11   13 ar
    16   11   17 1
    17   12   17 1
    18   12   18 1
    19   13   14 ar
    20   13   18 1
    21    2   19 1
    22    2   20 1
    23    3   21 1
    24    3   22 1
    25    4   23 1
    26    4   24 1
    27    5   25 1
    28    5   26 1
    29    6   27 1
    30    6   28 1
    31    7   29 1
    32    7   30 1
    33    9   31 1
    34   10   32 1
    35   12   33 1
    36   12   34 1
    37   14   35 1
