@<TRIPOS>MOLECULE
LIG(A-1201)
   19    21     0     0     0
SMALL
NO_CHARGES

@<TRIPOS>ATOM
      1 N1          7.1790   -4.5620   21.2990 N.am      1 LIG1201     0.0000
      2 C1          7.4380   -2.9880   19.4120 C.3       1 LIG1201     0.0000
      3 O1          5.6490   -4.5230   19.6640 O.2       1 LIG1201     0.0000
      4 C2          6.6830   -4.0770   20.1430 C.2       1 LIG1201     0.0000
      5 C3         13.1790   -0.8060   24.9540 C.ar      1 LIG1201     0.0000
      6 C4         13.7060   -1.8750   25.6660 C.ar      1 LIG1201     0.0000
      7 C5         13.0350   -3.0740   25.7360 C.ar      1 LIG1201     0.0000
      8 C6         11.8210   -3.1800   25.0610 C.ar      1 LIG1201     0.0000
      9 C7          6.3490   -5.4300   22.1430 C.3       1 LIG1201     0.0000
     10 C8          7.1930   -6.3500   23.0020 C.3       1 LIG1201     0.0000
     11 C9          8.0570   -5.5390   23.9710 C.3       1 LIG1201     0.0000
     12 C10         8.4320   -4.1850   23.3590 C.3       1 LIG1201     0.0000
     13 C11         8.5090   -4.3180   21.8490 C.3       1 LIG1201     0.0000
     14 C12         9.7030   -3.6000   23.9330 C.2       1 LIG1201     0.0000
     15 C13        11.2860   -2.1090   24.3360 C.ar      1 LIG1201     0.0000
     16 C14        11.9770   -0.9030   24.2870 C.ar      1 LIG1201     0.0000
     17 N2         10.0680   -2.3770   23.7150 N.2       1 LIG1201     0.0000
     18 S1         10.7570   -4.5460   24.9570 S.3       1 LIG1201     0.0000
     19 Du1         8.8670   -3.6720   18.5520 Du        1 LIG1201     0.0000
@<TRIPOS>BOND
     1    1    4 am
     2    1    9 1
     3    1   13 1
     4    2    4 1
     5    3    4 2
     6    5    6 ar
     7    5   16 ar
     8    6    7 ar
     9    7    8 ar
    10    8   15 ar
    11    8   18 1
    12    9   10 1
    13   10   11 1
    14   11   12 1
    15   12   13 1
    16   12   14 1
    17   14   17 2
    18   14   18 1
    19   15   16 ar
    20   15   17 1
    21    2   19 1
