LIG(A-1101)
  -OEChem-04302000033D

 15 16  0     1  0  0  0  0  0999 V2000
   22.5570   14.9480    8.3120 C   0  0  0  0  0  0  0  0  0  0  0  0
   21.4330   14.8650    7.2810 C   0  0  2  0  0  0  0  0  0  0  0  0
   20.7200   13.5250    7.5300 C   0  0  2  0  0  0  0  0  0  0  0  0
   21.1900   12.4260    6.7230 C   0  0  0  0  0  0  0  0  0  0  0  0
   22.4950   12.5870    6.1380 C   0  0  0  0  0  0  0  0  0  0  0  0
   22.7180   13.9190    5.4370 C   0  0  0  0  0  0  0  0  0  0  0  0
   22.5980   16.0880    5.7470 C   0  0  0  0  0  0  0  0  0  0  0  0
   21.7920   17.3520    5.4460 C   0  0  0  0  0  0  0  0  0  0  0  0
   21.4120   17.6070    4.1340 C   0  0  0  0  0  0  0  0  0  0  0  0
   20.7000   18.7590    3.8280 C   0  0  0  0  0  0  0  0  0  0  0  0
   20.3810   19.6630    4.8310 C   0  0  0  0  0  0  0  0  0  0  0  0
   20.7680   19.4190    6.1420 C   0  0  0  0  0  0  0  0  0  0  0  0
   21.4840   18.2670    6.4500 C   0  0  0  0  0  0  0  0  0  0  0  0
   21.9500   15.0480    5.9310 N   0  3  2  0  0  0  0  0  0  0  0  0
   19.3510   13.7170    7.2990 O   0  0  0  0  0  0  0  0  0  0  0  0
  1  2  1  0  0  0  0
  2  3  1  0  0  0  0
  2 14  1  0  0  0  0
  3  4  1  0  0  0  0
  3 15  1  0  0  0  0
  4  5  1  0  0  0  0
  5  6  1  0  0  0  0
  6 14  1  0  0  0  0
  7  8  1  0  0  0  0
  7 14  1  0  0  0  0
  8  9  2  0  0  0  0
  8 13  1  0  0  0  0
  9 10  1  0  0  0  0
 10 11  2  0  0  0  0
 11 12  1  0  0  0  0
 12 13  2  0  0  0  0
M  CHG  1  14   1
M  END
$$$$
