@<TRIPOS>MOLECULE
LIG(A-1301)
   16    17     0     0     0
SMALL
NO_CHARGES

@<TRIPOS>ATOM
      1 N1          6.9090   -2.5820   20.7850 N.am      1 LIG1301     0.0000
      2 C1          7.1730   -2.5460   18.3360 C.3       1 LIG1301     0.0000
      3 O1          5.8820   -4.1460   19.5490 O.2       1 LIG1301     0.0000
      4 C2          6.5830   -3.1380   19.6020 C.2       1 LIG1301     0.0000
      5 C3          6.6460   -3.2360   22.0590 C.3       1 LIG1301     0.0000
      6 C4          7.6290   -1.3290   20.9900 C.3       1 LIG1301     0.0000
      7 C5          8.9460   -1.6340   21.6600 C.3       1 LIG1301     0.0000
      8 C6         10.0550   -2.6800   23.5200 C.3       1 LIG1301     0.0000
      9 C7         11.0250   -1.5460   23.5600 C.3       1 LIG1301     0.0000
     10 C8         12.1160   -1.3030   22.7170 C.3       1 LIG1301     0.0000
     11 C9         12.8060   -0.1250   23.0980 C.3       1 LIG1301     0.0000
     12 C10        12.1310    0.5950   24.0200 C.3       1 LIG1301     0.0000
     13 C11         7.9620   -3.5390   22.7340 C.3       1 LIG1301     0.0000
     14 N2          8.7510   -2.3200   22.9410 N.4       1 LIG1301     0.0000
     15 S1         10.8980   -0.3170   24.7520 S.3       1 LIG1301     0.0000
     16 Du1         8.8220   -3.2440   18.1000 Du        1 LIG1301     0.0000
@<TRIPOS>BOND
     1    1    4 am
     2    1    5 1
     3    1    6 1
     4    2    4 1
     5    3    4 2
     6    5   13 1
     7    6    7 1
     8    7   14 1
     9    8    9 1
    10    8   14 1
    11    9   10 1
    12    9   15 1
    13   10   11 1
    14   11   12 1
    15   12   15 1
    16   13   14 1
    17    2   16 1
