@<TRIPOS>MOLECULE
LIG(A-701)
   17    18     0     0     0
SMALL
NO_CHARGES

@<TRIPOS>ATOM
      1 C1         25.8390    4.8250   13.3550 C.2       1 LIG701      0.0000
      2 C2         25.4140    4.4510   11.9300 C.ar      1 LIG701      0.0000
      3 C3         25.1590    5.4190   10.9640 C.ar      1 LIG701      0.0000
      4 C4         24.7920    5.0540    9.6840 C.ar      1 LIG701      0.0000
      5 C5         24.6750    3.7200    9.3580 C.ar      1 LIG701      0.0000
      6 C6         23.0540    2.6680    7.7360 C.2       1 LIG701      0.0000
      7 C7         22.7440    2.3030    6.2700 C.3       1 LIG701      0.0000
      8 C8         23.1510    1.1210    6.0300 C.3       1 LIG701      0.0000
      9 C9         23.8060    1.1750    4.6640 C.3       1 LIG701      0.0000
     10 C10        24.4820    2.5330    4.7510 C.3       1 LIG701      0.0000
     11 C11        24.9370    2.7470   10.3040 C.ar      1 LIG701      0.0000
     12 C12        25.3050    3.1100   11.5900 C.ar      1 LIG701      0.0000
     13 N1         25.8640    6.1990   13.8180 N.am      1 LIG701      0.0000
     14 N2         24.3000    3.3520    8.0160 N.am      1 LIG701      0.0000
     15 O1         26.1780    3.9690   14.1090 O.2       1 LIG701      0.0000
     16 O2         22.3040    2.3930    8.6160 O.2       1 LIG701      0.0000
     17 O3         23.5800    3.2660    5.2730 O.3       1 LIG701      0.0000
@<TRIPOS>BOND
     1    1    2 1
     2    1   13 am
     3    1   15 2
     4    2    3 ar
     5    2   12 ar
     6    3    4 ar
     7    4    5 ar
     8    5   11 ar
     9    5   14 1
    10    6    7 1
    11    6   14 am
    12    6   16 2
    13    7    8 1
    14    7   17 1
    15    8    9 1
    16    9   10 1
    17   10   17 1
    18   11   12 ar
