@<TRIPOS>MOLECULE
LIG(A-1101)
   18    19     0     0     0
SMALL
NO_CHARGES

@<TRIPOS>ATOM
      1 C1         24.9750  -17.7740   25.0500 C.2       1 LIG1101     0.0000
      2 C2         24.4430  -18.8160   24.0540 C.3       1 LIG1101     0.0000
      3 C3         25.1690  -18.8530   22.7650 C.3       1 LIG1101     0.0000
      4 C4         24.7570  -20.0760   21.9380 C.3       1 LIG1101     0.0000
      5 C5         22.5570  -20.0300   23.2610 C.3       1 LIG1101     0.0000
      6 C6         23.0170  -18.6650   23.7430 C.3       1 LIG1101     0.0000
      7 C7         22.7370  -21.7090   21.3710 C.2       1 LIG1101     0.0000
      8 C8         22.8150  -23.4020   19.5000 C.ar      1 LIG1101     0.0000
      9 C9         22.6970  -23.2300   18.1340 C.ar      1 LIG1101     0.0000
     10 C10        22.1220  -24.2260   17.3570 C.ar      1 LIG1101     0.0000
     11 C11        21.6680  -25.3960   17.9560 C.ar      1 LIG1101     0.0000
     12 C12        21.7880  -25.5680   19.3300 C.ar      1 LIG1101     0.0000
     13 C13        22.3620  -24.5710   20.1030 C.ar      1 LIG1101     0.0000
     14 N1         24.1920  -16.6450   25.5380 N.am      1 LIG1101     0.0000
     15 N2         23.3570  -20.6330   22.1440 N.am      1 LIG1101     0.0000
     16 N3         23.4310  -22.3450   20.2690 N.am      1 LIG1101     0.0000
     17 O1         26.0690  -17.9160   25.4730 O.2       1 LIG1101     0.0000
     18 O2         21.6350  -22.0620   21.6440 O.2       1 LIG1101     0.0000
@<TRIPOS>BOND
     1    1    2 1
     2    1   14 am
     3    1   17 2
     4    2    3 1
     5    2    6 1
     6    3    4 1
     7    4   15 1
     8    5    6 1
     9    5   15 1
    10    7   15 am
    11    7   16 am
    12    7   18 2
    13    8    9 ar
    14    8   13 ar
    15    8   16 1
    16    9   10 ar
    17   10   11 ar
    18   11   12 ar
    19   12   13 ar
