@<TRIPOS>MOLECULE
LIG(A-1101)
   15    15     0     0     0
SMALL
NO_CHARGES

@<TRIPOS>ATOM
      1 C1         16.2070    2.3660  -14.6990 C.3       1 LIG1101     0.0000
      2 C2         16.7570    3.3040  -12.6730 C.2       1 LIG1101     0.0000
      3 C3         17.6160    2.4530  -11.7500 C.ar      1 LIG1101     0.0000
      4 C4         18.7090    1.7750  -12.2530 C.ar      1 LIG1101     0.0000
      5 C5         19.4850    0.9950  -11.4160 C.ar      1 LIG1101     0.0000
      6 C6         19.1810    0.8860  -10.0750 C.ar      1 LIG1101     0.0000
      7 C7         18.0910    1.5650   -9.5610 C.ar      1 LIG1101     0.0000
      8 C8         16.0550    3.6700   -7.7390 C.3       1 LIG1101     0.0000
      9 C9         17.3140    2.3470  -10.4080 C.ar      1 LIG1101     0.0000
     10 N1         17.7910    1.4270   -8.1430 N.pl3     1 LIG1101     0.0000
     11 O1         17.0200    3.2820  -14.0350 O.3       1 LIG1101     0.0000
     12 O2         15.8590    3.9680  -12.2770 O.2       1 LIG1101     0.0000
     13 O3         17.2430    2.3740   -5.7550 O.2       1 LIG1101     0.0000
     14 O4         18.6350    3.6490   -7.0130 O.2       1 LIG1101     0.0000
     15 S1         17.4660    2.7810   -7.1550 S.o2      1 LIG1101     0.0000
@<TRIPOS>BOND
     1    1   11 1
     2    2    3 1
     3    2   11 1
     4    2   12 2
     5    3    4 ar
     6    3    9 ar
     7    4    5 ar
     8    5    6 ar
     9    6    7 ar
    10    7    9 ar
    11    7   10 1
    12    8   15 1
    13   10   15 1
    14   13   15 2
    15   14   15 2
