LIG(A-1101)
  -OEChem-04292023583D

 17 18  0     0  0  0  0  0  0999 V2000
    6.6440   -3.6500   21.8090 N   0  0  0  0  0  0  0  0  0  0  0  0
    8.2380   -3.2790   20.1020 C   0  0  0  0  0  0  0  0  0  0  0  0
    6.0170   -4.0460   19.6510 O   0  0  0  0  0  0  0  0  0  0  0  0
    6.8430   -3.7040   20.4810 C   0  0  0  0  0  0  0  0  0  0  0  0
    3.2630   -1.9770   27.2700 C   0  0  0  0  0  0  0  0  0  0  0  0
    4.2040   -2.4280   26.1870 C   0  0  0  0  0  0  0  0  0  0  0  0
    5.6920   -4.3260   22.6030 C   0  0  0  0  0  0  0  0  0  0  0  0
    5.3490   -5.6630   22.4110 C   0  0  0  0  0  0  0  0  0  0  0  0
    4.4170   -6.2480   23.2490 C   0  0  0  0  0  0  0  0  0  0  0  0
    3.8270   -5.5270   24.2730 C   0  0  0  0  0  0  0  0  0  0  0  0
    4.1810   -4.1980   24.4580 C   0  0  0  0  0  0  0  0  0  0  0  0
    5.1130   -3.5900   23.6260 C   0  0  0  0  0  0  0  0  0  0  0  0
    2.1970   -3.6470   25.9270 C   0  0  0  0  0  0  0  0  0  0  0  0
    1.8980   -2.4480   26.8020 C   0  0  0  0  0  0  0  0  0  0  0  0
    3.5850   -3.4340   25.4980 N   0  0  0  0  0  0  0  0  0  0  0  0
    5.3080   -1.9810   25.9390 O   0  0  0  0  0  0  0  0  0  0  0  0
    8.5840   -3.3900   18.3280 R#  0  0  0  0  0  0  0  0  0  0  0  0
  1  4  1  0  0  0  0
  1  7  1  0  0  0  0
  2  4  1  0  0  0  0
  3  4  2  0  0  0  0
  5  6  1  0  0  0  0
  5 14  1  0  0  0  0
  6 15  1  0  0  0  0
  6 16  2  0  0  0  0
  7  8  2  0  0  0  0
  7 12  1  0  0  0  0
  8  9  1  0  0  0  0
  9 10  2  0  0  0  0
 10 11  1  0  0  0  0
 11 12  2  0  0  0  0
 11 15  1  0  0  0  0
 13 14  1  0  0  0  0
 13 15  1  0  0  0  0
  2 17  1  0  0  0  0
M  RGP  1  17   1
M  END
$$$$
