@<TRIPOS>MOLECULE
LIG(A-1101)
   18    19     0     0     0
SMALL
NO_CHARGES

@<TRIPOS>ATOM
      1 N1          8.4250   -2.2200   23.0830 N.4       1 LIG1101     0.0000
      2 C1         11.2460    2.1310   24.5900 C.3       1 LIG1101     0.0000
      3 O1          5.7570   -4.2040   19.6120 O.2       1 LIG1101     0.0000
      4 C2         11.4740    0.7460   24.0560 C.ar      1 LIG1101     0.0000
      5 C3          8.8030   -1.6810   21.7720 C.3       1 LIG1101     0.0000
      6 C4          6.4620   -3.2010   19.6390 C.2       1 LIG1101     0.0000
      7 C5          7.0760   -2.6850   18.3670 C.3       1 LIG1101     0.0000
      8 C6         10.5080   -0.2380   24.1980 C.ar      1 LIG1101     0.0000
      9 C7         12.6500    0.4120   23.4010 C.ar      1 LIG1101     0.0000
     10 C8         12.8530   -0.8600   22.8960 C.ar      1 LIG1101     0.0000
     11 C9         11.8760   -1.8260   23.0500 C.ar      1 LIG1101     0.0000
     12 C10        10.7010   -1.5300   23.7210 C.ar      1 LIG1101     0.0000
     13 C11         9.6120   -2.5590   23.8720 C.3       1 LIG1101     0.0000
     14 C12         7.5620   -3.3920   22.9270 C.3       1 LIG1101     0.0000
     15 C13         6.3450   -3.0600   22.0970 C.3       1 LIG1101     0.0000
     16 C14         7.5850   -1.3610   20.9390 C.3       1 LIG1101     0.0000
     17 N2          6.7680   -2.5620   20.7910 N.am      1 LIG1101     0.0000
     18 Du1         8.7790   -3.3030   18.2600 Du        1 LIG1101     0.0000
@<TRIPOS>BOND
     1    1    5 1
     2    1   13 1
     3    1   14 1
     4    2    4 1
     5    3    6 2
     6    4    8 ar
     7    4    9 ar
     8    5   16 1
     9    6    7 1
    10    6   17 am
    11    8   12 ar
    12    9   10 ar
    13   10   11 ar
    14   11   12 ar
    15   12   13 1
    16   14   15 1
    17   15   17 1
    18   16   17 1
    19    7   18 1
