LIG(A-1101)
  -OEChem-04302000343D

 15 16  0     1  0  0  0  0  0999 V2000
    9.9780    1.4800   21.3330 N   0  0  0  0  0  0  0  0  0  0  0  0
    9.8370    0.5150   21.9430 C   0  0  0  0  0  0  0  0  0  0  0  0
    7.3700   -5.8530   25.4070 O   0  0  0  0  0  0  0  0  0  0  0  0
    9.6670   -0.6350   22.7340 C   0  0  0  0  0  0  0  0  0  0  0  0
    8.7780   -4.1340   26.4660 C   0  0  0  0  0  0  0  0  0  0  0  0
    8.9630   -0.5320   23.9220 C   0  0  0  0  0  0  0  0  0  0  0  0
    8.8900   -1.6410   24.7590 C   0  0  0  0  0  0  0  0  0  0  0  0
    9.5270   -2.8480   24.4040 C   0  0  0  0  0  0  0  0  0  0  0  0
   10.1990   -2.8390   23.1360 C   0  0  0  0  0  0  0  0  0  0  0  0
    9.9640   -5.3500   24.6430 C   0  0  0  0  0  0  0  0  0  0  0  0
    8.9750   -5.8560   23.5870 C   0  0  0  0  0  0  0  0  0  0  0  0
    7.5100   -5.6370   24.0070 C   0  0  0  0  0  0  0  0  0  0  0  0
    7.3610   -4.7240   26.2460 C   0  0  0  0  0  0  0  0  0  0  0  0
   10.2800   -1.7800   22.3120 N   0  0  0  0  0  0  0  0  0  0  0  0
    9.6050   -4.0300   25.2320 N   0  0  2  0  0  0  0  0  0  0  0  0
  1  2  3  0  0  0  0
  2  4  1  0  0  0  0
  3 12  1  0  0  0  0
  3 13  1  0  0  0  0
  4  6  2  0  0  0  0
  4 14  1  0  0  0  0
  5 13  1  0  0  0  0
  5 15  1  0  0  0  0
  6  7  1  0  0  0  0
  7  8  2  0  0  0  0
  8  9  1  0  0  0  0
  8 15  1  0  0  0  0
  9 14  2  0  0  0  0
 10 11  1  0  0  0  0
 10 15  1  0  0  0  0
 11 12  1  0  0  0  0
M  END
$$$$
