LIG(A-1101)
  -OEChem-04162023333D

 14 15  0     1  0  0  0  0  0999 V2000
    9.4830   -5.4700   26.2140 C   0  0  0  0  0  0  0  0  0  0  0  0
    9.2450   -4.0890   25.5860 C   0  0  0  0  0  0  0  0  0  0  0  0
    9.1100   -2.1110   24.1010 C   0  0  0  0  0  0  0  0  0  0  0  0
    9.1760   -1.1030   22.9370 C   0  0  0  0  0  0  0  0  0  0  0  0
   10.6500    0.2590   23.7520 C   0  0  0  0  0  0  0  0  0  0  0  0
   11.9720    1.1570   23.3260 C   0  0  0  0  0  0  0  0  0  0  0  0
   12.9930    0.4020   22.8480 C   0  0  0  0  0  0  0  0  0  0  0  0
   12.6620   -0.8640   22.0630 C   0  0  0  0  0  0  0  0  0  0  0  0
   11.4340   -1.5160   22.3580 C   0  0  0  0  0  0  0  0  0  0  0  0
   13.6440   -1.5870   21.5050 F   0  0  0  0  0  0  0  0  0  0  0  0
    8.6850   -3.0140   26.2440 N   0  0  0  0  0  0  0  0  0  0  0  0
    8.5980   -1.8330   25.3570 N   0  0  0  0  0  0  0  0  0  0  0  0
   10.3000   -0.5370   22.8150 N   0  3  1  0  0  0  0  0  0  0  0  0
    9.6260   -3.6700   24.0430 S   0  0  0  0  0  0  0  0  0  0  0  0
  1  2  1  0  0  0  0
  2 11  2  0  0  0  0
  2 14  1  0  0  0  0
  3  4  1  0  0  0  0
  3 12  2  0  0  0  0
  3 14  1  0  0  0  0
  4 13  1  0  0  0  0
  5  6  1  0  0  0  0
  5 13  1  0  0  0  0
  6  7  1  0  0  0  0
  7  8  2  0  0  0  0
  8  9  1  0  0  0  0
  8 10  1  0  0  0  0
  9 13  1  0  0  0  0
 11 12  1  0  0  0  0
M  CHG  1  13   1
M  END
$$$$
