@<TRIPOS>MOLECULE
LIG(A-1101)
   13    13     0     0     0
SMALL
NO_CHARGES

@<TRIPOS>ATOM
      1 N1          6.6940    2.6720   -6.6850 N.pl3     1 LIG1101     0.0000
      2 C1          4.4740   -1.9330   -6.5450 C.3       1 LIG1101     0.0000
      3 O1          6.3470    0.6260   -5.3890 O.2       1 LIG1101     0.0000
      4 C2          5.6080   -1.7210   -7.4400 C.ar      1 LIG1101     0.0000
      5 C3          6.3340   -2.8390   -7.7740 C.ar      1 LIG1101     0.0000
      6 C4          7.4430   -2.6940   -8.5610 C.ar      1 LIG1101     0.0000
      7 C5          7.8570   -1.4460   -9.0070 C.ar      1 LIG1101     0.0000
      8 C6          7.1170   -0.3330   -8.6960 C.ar      1 LIG1101     0.0000
      9 C7          5.9870   -0.4510   -7.9200 C.ar      1 LIG1101     0.0000
     10 C8          5.2380    0.8080   -7.6810 C.3       1 LIG1101     0.0000
     11 F1          8.1050   -3.7740   -8.9340 F         1 LIG1101     0.0000
     12 O2          4.5220    2.2620   -5.7740 O.2       1 LIG1101     0.0000
     13 S1          5.6530    1.5460   -6.2070 S.o2      1 LIG1101     0.0000
@<TRIPOS>BOND
     1    1   13 1
     2    2    4 1
     3    3   13 2
     4    4    5 ar
     5    4    9 ar
     6    5    6 ar
     7    6    7 ar
     8    6   11 1
     9    7    8 ar
    10    8    9 ar
    11    9   10 1
    12   10   13 1
    13   12   13 2
