@<TRIPOS>MOLECULE
LIG(A-1101)
   17    18     0     0     0
SMALL
NO_CHARGES

@<TRIPOS>ATOM
      1 C1         24.7600  -14.6760   24.9220 C.3       1 LIG1101     0.0000
      2 C2         23.8820  -15.0080   26.1330 C.2       1 LIG1101     0.0000
      3 C3         23.4060  -17.3370   25.2710 C.ar      1 LIG1101     0.0000
      4 C4         24.6590  -17.9220   25.2620 C.ar      1 LIG1101     0.0000
      5 C5         24.9360  -18.9570   24.3980 C.ar      1 LIG1101     0.0000
      6 C6         23.9700  -19.4050   23.5140 C.ar      1 LIG1101     0.0000
      7 C7         24.1720  -20.6180   21.3380 C.ar      1 LIG1101     0.0000
      8 C8         24.6680  -20.0500   19.1800 C.ar      1 LIG1101     0.0000
      9 C9         23.8360  -21.0710   18.7170 C.ar      1 LIG1101     0.0000
     10 C10        23.1920  -21.8710   19.6600 C.ar      1 LIG1101     0.0000
     11 C11        22.6970  -18.8470   23.5400 C.ar      1 LIG1101     0.0000
     12 C12        22.4100  -17.8010   24.4160 C.ar      1 LIG1101     0.0000
     13 N1         23.2170  -16.2870   26.2480 N.am      1 LIG1101     0.0000
     14 N2         24.8210  -19.8480   20.4770 N.ar      1 LIG1101     0.0000
     15 N3         23.4020  -21.6200   20.9350 N.ar      1 LIG1101     0.0000
     16 O1         23.7070  -14.2050   26.9860 O.2       1 LIG1101     0.0000
     17 O2         24.3560  -20.4880   22.7210 O.3       1 LIG1101     0.0000
@<TRIPOS>BOND
     1    1    2 1
     2    2   13 am
     3    2   16 2
     4    3    4 ar
     5    3   12 ar
     6    3   13 1
     7    4    5 ar
     8    5    6 ar
     9    6   11 ar
    10    6   17 1
    11    7   14 ar
    12    7   15 ar
    13    7   17 1
    14    8    9 ar
    15    8   14 ar
    16    9   10 ar
    17   10   15 ar
    18   11   12 ar
