@<TRIPOS>MOLECULE
LIG(A-1101)
   19    21     0     0     0
SMALL
NO_CHARGES

@<TRIPOS>ATOM
      1 C1         13.8630   -1.3540   23.5770 C.3       1 LIG1101     0.0000
      2 C2          5.8880    0.7990   18.7560 C.ar      1 LIG1101     0.0000
      3 C3          4.0960    1.8680   19.6250 C.ar      1 LIG1101     0.0000
      4 C4          4.4630    1.5430   20.9280 C.ar      1 LIG1101     0.0000
      5 C5          5.6120    0.8120   21.1430 C.ar      1 LIG1101     0.0000
      6 C6          6.3570    0.4150   20.0270 C.ar      1 LIG1101     0.0000
      7 C7         11.5960   -1.9060   22.9700 C.3       1 LIG1101     0.0000
      8 C8         10.1450   -1.5150   23.1150 C.3       1 LIG1101     0.0000
      9 C9         10.7980    0.8020   23.3390 C.3       1 LIG1101     0.0000
     10 C10        12.2470    0.3960   23.2120 C.3       1 LIG1101     0.0000
     11 C11         9.2010    0.1820   21.5600 C.2       1 LIG1101     0.0000
     12 C12         8.4340   -0.9280   20.8580 C.3       1 LIG1101     0.0000
     13 C13         7.5590   -0.3320   19.8070 C.2       1 LIG1101     0.0000
     14 C14         7.7660   -0.3530   18.4600 C.2       1 LIG1101     0.0000
     15 N1         12.4570   -0.9710   23.6990 N.4       1 LIG1101     0.0000
     16 N2          9.9630   -0.1540   22.6160 N.am      1 LIG1101     0.0000
     17 N3          6.7630    0.3290   17.8230 N.pl3     1 LIG1101     0.0000
     18 N4          4.7820    1.5220   18.5280 N.ar      1 LIG1101     0.0000
     19 O1          9.1350    1.3380   21.1480 O.2       1 LIG1101     0.0000
@<TRIPOS>BOND
     1    1   15 1
     2    2    6 ar
     3    2   17 1
     4    2   18 ar
     5    3    4 ar
     6    3   18 ar
     7    4    5 ar
     8    5    6 ar
     9    6   13 1
    10    7    8 1
    11    7   15 1
    12    8   16 1
    13    9   10 1
    14    9   16 1
    15   10   15 1
    16   11   12 1
    17   11   16 am
    18   11   19 2
    19   12   13 1
    20   13   14 2
    21   14   17 1
