@<TRIPOS>MOLECULE
LIG(A-1101)
   18    19     0     0     0
SMALL
NO_CHARGES

@<TRIPOS>ATOM
      1 C1          1.4340    3.7910   25.2370 C.ar      1 LIG1101     0.0000
      2 C2          0.4330    4.4980   25.8910 C.ar      1 LIG1101     0.0000
      3 C3         -0.8730    4.0290   25.9230 C.ar      1 LIG1101     0.0000
      4 C4         -1.1880    2.8370   25.2900 C.ar      1 LIG1101     0.0000
      5 C5         -0.1950    2.1280   24.6260 C.ar      1 LIG1101     0.0000
      6 C6          1.1190    2.5950   24.5990 C.ar      1 LIG1101     0.0000
      7 C7          2.1780    1.7820   23.8560 C.2       1 LIG1101     0.0000
      8 C8          4.3270    1.6820   22.4790 C.3       1 LIG1101     0.0000
      9 C9          3.8340    1.6090   21.0330 C.3       1 LIG1101     0.0000
     10 C10         4.8370    1.1340   19.9780 C.ar      1 LIG1101     0.0000
     11 C11         5.8500    0.2130   20.2460 C.ar      1 LIG1101     0.0000
     12 C12         6.6980   -0.1540   19.2000 C.ar      1 LIG1101     0.0000
     13 C13         5.6070    1.2110   17.7240 C.ar      1 LIG1101     0.0000
     14 C14         4.7240    1.6340   18.7030 C.ar      1 LIG1101     0.0000
     15 F1          2.7160    4.2800   25.2300 F         1 LIG1101     0.0000
     16 N1          3.3160    2.4370   23.2200 N.am      1 LIG1101     0.0000
     17 N2          6.5610    0.3470   17.9800 N.ar      1 LIG1101     0.0000
     18 O1          2.0500    0.6020   23.8000 O.2       1 LIG1101     0.0000
@<TRIPOS>BOND
     1    1    2 ar
     2    1    6 ar
     3    1   15 1
     4    2    3 ar
     5    3    4 ar
     6    4    5 ar
     7    5    6 ar
     8    6    7 1
     9    7   16 am
    10    7   18 2
    11    8    9 1
    12    8   16 1
    13    9   10 1
    14   10   11 ar
    15   10   14 ar
    16   11   12 ar
    17   12   17 ar
    18   13   14 ar
    19   13   17 ar
