@<TRIPOS>MOLECULE
LIG(A-1101)
   18    19     0     0     0
SMALL
NO_CHARGES

@<TRIPOS>ATOM
      1 C1          3.3660    2.2080   23.4360 C.2       1 LIG1101     0.0000
      2 C2          5.6270    1.4350   22.5990 C.3       1 LIG1101     0.0000
      3 C3          5.2800    0.2110   21.7560 C.3       1 LIG1101     0.0000
      4 C4          5.6920    0.3350   20.2900 C.ar      1 LIG1101     0.0000
      5 C5          6.7500   -0.4410   19.8130 C.ar      1 LIG1101     0.0000
      6 C6          7.1190   -0.3200   18.4800 C.ar      1 LIG1101     0.0000
      7 C7          5.4580    1.2450   18.1040 C.ar      1 LIG1101     0.0000
      8 C8          5.0200    1.2020   19.4240 C.ar      1 LIG1101     0.0000
      9 C9          1.1050    3.2090   24.0690 C.3       1 LIG1101     0.0000
     10 C10         1.0150    4.6460   24.5900 C.3       1 LIG1101     0.0000
     11 C11        -0.2970    4.9040   25.3140 C.3       1 LIG1101     0.0000
     12 C12        -1.4780    4.6080   24.4000 C.3       1 LIG1101     0.0000
     13 C13        -1.4420    3.1800   23.8710 C.3       1 LIG1101     0.0000
     14 C14        -0.1000    2.8180   23.2260 C.3       1 LIG1101     0.0000
     15 N1          4.5010    2.3410   22.5380 N.am      1 LIG1101     0.0000
     16 N2          6.4810    0.5020   17.6780 N.ar      1 LIG1101     0.0000
     17 N3          2.2940    3.1640   23.2440 N.am      1 LIG1101     0.0000
     18 O1          3.3300    1.3580   24.2760 O.2       1 LIG1101     0.0000
@<TRIPOS>BOND
     1    1   15 am
     2    1   17 am
     3    1   18 2
     4    2    3 1
     5    2   15 1
     6    3    4 1
     7    4    5 ar
     8    4    8 ar
     9    5    6 ar
    10    6   16 ar
    11    7    8 ar
    12    7   16 ar
    13    9   10 1
    14    9   14 1
    15    9   17 1
    16   10   11 1
    17   11   12 1
    18   12   13 1
    19   13   14 1
