@<TRIPOS>MOLECULE
LIG(A-1101)
   19    20     0     0     0
SMALL
NO_CHARGES

@<TRIPOS>ATOM
      1 C1         10.7320   -4.4920   25.7770 C.3       1 LIG1101     0.0000
      2 C2          9.6260   -4.5180   24.7860 C.ar      1 LIG1101     0.0000
      3 C3          8.9370   -5.6900   24.5520 C.ar      1 LIG1101     0.0000
      4 C4          7.9130   -5.7480   23.6320 C.ar      1 LIG1101     0.0000
      5 C5          7.5610   -4.6030   22.9230 C.ar      1 LIG1101     0.0000
      6 C6          6.7140   -4.3530   20.6700 C.2       1 LIG1101     0.0000
      7 C7          8.0050   -3.6310   20.3570 C.3       1 LIG1101     0.0000
      8 C8          5.1700   -5.0530   22.4600 C.3       1 LIG1101     0.0000
      9 C9          4.9760   -4.5580   23.8880 C.3       1 LIG1101     0.0000
     10 C10         4.3500   -5.4030   24.6980 C.3       1 LIG1101     0.0000
     11 C11         5.0010   -6.5780   22.4800 C.3       1 LIG1101     0.0000
     12 C12         8.2400   -3.4080   23.1550 C.ar      1 LIG1101     0.0000
     13 C13         9.2720   -3.3840   24.0720 C.ar      1 LIG1101     0.0000
     14 N1          6.4880   -4.6590   21.9790 N.am      1 LIG1101     0.0000
     15 O1          5.9080   -4.6340   19.7950 O.2       1 LIG1101     0.0000
     16 O2          2.6000   -6.9740   23.5270 O.2       1 LIG1101     0.0000
     17 O3          4.5160   -8.0110   24.6710 O.2       1 LIG1101     0.0000
     18 S1          3.9870   -6.9150   23.9050 S.o2      1 LIG1101     0.0000
     19 Du1         8.2770   -3.3290   18.5900 Du        1 LIG1101     0.0000
@<TRIPOS>BOND
     1    1    2 1
     2    2    3 ar
     3    2   13 ar
     4    3    4 ar
     5    4    5 ar
     6    5   12 ar
     7    5   14 1
     8    6    7 1
     9    6   14 am
    10    6   15 2
    11    8    9 1
    12    8   11 1
    13    8   14 1
    14    9   10 1
    15   10   18 1
    16   11   18 1
    17   12   13 ar
    18   16   18 2
    19   17   18 2
    20    7   19 1
