@<TRIPOS>MOLECULE
LIG(A-1101)
   18    19     0     0     0
SMALL
NO_CHARGES

@<TRIPOS>ATOM
      1 N1          6.7690   -4.2560   21.4030 N.am      1 LIG1101     0.0000
      2 C1          6.8570   -3.0210   19.2750 C.3       1 LIG1101     0.0000
      3 O1          5.4850   -4.9040   19.6590 O.2       1 LIG1101     0.0000
      4 C2          6.3150   -4.1360   20.1320 C.2       1 LIG1101     0.0000
      5 C3          7.0460   -4.7320   29.1990 C.3       1 LIG1101     0.0000
      6 C4          5.6060   -4.3430   28.9100 C.3       1 LIG1101     0.0000
      7 C5          5.5130   -3.1880   27.9270 C.3       1 LIG1101     0.0000
      8 C6          7.6890   -3.3490   22.1040 C.3       1 LIG1101     0.0000
      9 C7          7.0030   -2.7450   23.3130 C.3       1 LIG1101     0.0000
     10 C8          6.4670   -3.8470   24.2350 C.3       1 LIG1101     0.0000
     11 C9          5.5580   -4.7750   23.4460 C.3       1 LIG1101     0.0000
     12 C10         6.2990   -5.3480   22.2630 C.3       1 LIG1101     0.0000
     13 C11         5.7570   -3.2940   25.4510 C.2       1 LIG1101     0.0000
     14 C12         7.6910   -3.7900   27.0000 C.3       1 LIG1101     0.0000
     15 C13         7.7690   -5.0060   27.8950 C.3       1 LIG1101     0.0000
     16 N2          6.2960   -3.4370   26.7080 N.am      1 LIG1101     0.0000
     17 O2          4.6740   -2.7310   25.3100 O.2       1 LIG1101     0.0000
     18 Du1         8.4550   -3.4660   18.5330 Du        1 LIG1101     0.0000
@<TRIPOS>BOND
     1    1    4 am
     2    1    8 1
     3    1   12 1
     4    2    4 1
     5    3    4 2
     6    5    6 1
     7    5   15 1
     8    6    7 1
     9    7   16 1
    10    8    9 1
    11    9   10 1
    12   10   11 1
    13   10   13 1
    14   11   12 1
    15   13   16 am
    16   13   17 2
    17   14   15 1
    18   14   16 1
    19    2   18 1
