@<TRIPOS>MOLECULE
LIG(A-1201)
   16    15     0     0     0
SMALL
NO_CHARGES

@<TRIPOS>ATOM
      1 C1          1.3830   -8.6430   21.0970 C.3       1 LIG1201     0.0000
      2 C2          1.6250   -7.3870   21.8720 C.2       1 LIG1201     0.0000
      3 C3          3.1500   -6.1080   23.2980 C.3       1 LIG1201     0.0000
      4 C4          2.8460   -6.4030   24.7690 C.3       1 LIG1201     0.0000
      5 C5          3.1100   -7.8560   25.1040 C.2       1 LIG1201     0.0000
      6 C6          4.5720   -5.5530   23.1400 C.2       1 LIG1201     0.0000
      7 C7          6.6610   -5.4930   21.8310 C.3       1 LIG1201     0.0000
      8 C8          6.6600   -5.1360   20.3490 C.2       1 LIG1201     0.0000
      9 C9          5.6890   -5.6380   19.6220 C.2       1 LIG1201     0.0000
     10 N1          2.8250   -7.2550   22.4520 N.am      1 LIG1201     0.0000
     11 N2          2.2770   -8.4380   25.9530 N.am      1 LIG1201     0.0000
     12 N3          5.4250   -6.1380   22.2850 N.am      1 LIG1201     0.0000
     13 O1          0.7650   -6.5120   21.9520 O.2       1 LIG1201     0.0000
     14 O2          4.0600   -8.4470   24.6020 O.2       1 LIG1201     0.0000
     15 O3          4.8920   -4.5660   23.7990 O.2       1 LIG1201     0.0000
     16 Du1         7.8670   -4.1740   19.4380 Du        1 LIG1201     0.0000
@<TRIPOS>BOND
     1    1    2 1
     2    2   10 am
     3    2   13 2
     4    3    4 1
     5    3    6 1
     6    3   10 1
     7    4    5 1
     8    5   11 am
     9    5   14 2
    10    6   12 am
    11    6   15 2
    12    7    8 1
    13    7   12 1
    14    8    9 2
    15    8   16 1
