@<TRIPOS>MOLECULE
LIG(A-1101)
   15    16     0     0     0
SMALL
NO_CHARGES

@<TRIPOS>ATOM
      1 N1          7.5350   -4.6270   21.2000 N.am      1 LIG1101     0.0000
      2 C1          7.1330   -3.0420   19.3850 C.3       1 LIG1101     0.0000
      3 O1          5.7660   -4.9120   19.8320 O.2       1 LIG1101     0.0000
      4 C2          6.7620   -4.2760   20.1820 C.2       1 LIG1101     0.0000
      5 C3          7.0630   -5.4840   22.2720 C.3       1 LIG1101     0.0000
      6 C4          5.9870   -4.7940   23.0680 C.ar      1 LIG1101     0.0000
      7 C5          6.1580   -3.4850   23.4810 C.ar      1 LIG1101     0.0000
      8 C6          5.1830   -2.7990   24.2100 C.ar      1 LIG1101     0.0000
      9 C7          4.0410   -3.4870   24.4940 C.ar      1 LIG1101     0.0000
     10 C8          1.9960   -4.1240   25.1260 C.3       1 LIG1101     0.0000
     11 C9          3.8540   -4.7860   24.0790 C.ar      1 LIG1101     0.0000
     12 C10         4.7970   -5.4660   23.3620 C.ar      1 LIG1101     0.0000
     13 O2          2.9360   -3.0490   25.1840 O.3       1 LIG1101     0.0000
     14 O3          2.6200   -5.2370   24.4860 O.3       1 LIG1101     0.0000
     15 Du1         8.5820   -3.3270   18.3320 Du        1 LIG1101     0.0000
@<TRIPOS>BOND
     1    1    4 am
     2    1    5 1
     3    2    4 1
     4    3    4 2
     5    5    6 1
     6    6    7 ar
     7    6   12 ar
     8    7    8 ar
     9    8    9 ar
    10    9   11 ar
    11    9   13 1
    12   10   13 1
    13   10   14 1
    14   11   12 ar
    15   11   14 1
    16    2   15 1
