@<TRIPOS>MOLECULE
LIG(A-1101)
   13    13     0     0     0
SMALL
NO_CHARGES

@<TRIPOS>ATOM
      1 C1          6.5900   -5.0900   26.5460 C.3       1 LIG1101     0.0000
      2 C2          9.4640   -3.1570   24.1330 C.3       1 LIG1101     0.0000
      3 C3          9.3590   -1.8720   23.3230 C.3       1 LIG1101     0.0000
      4 C4         10.7550   -1.2710   23.3660 C.ar      1 LIG1101     0.0000
      5 C5         11.0670   -0.2310   24.2330 C.ar      1 LIG1101     0.0000
      6 C6         12.3580    0.2710   24.2540 C.ar      1 LIG1101     0.0000
      7 C7         13.3330   -0.2790   23.4380 C.ar      1 LIG1101     0.0000
      8 C8         13.0180   -1.3270   22.5820 C.ar      1 LIG1101     0.0000
      9 C9         11.7290   -1.8190   22.5550 C.ar      1 LIG1101     0.0000
     10 N1          8.2120   -3.6650   24.6320 N.pl3     1 LIG1101     0.0000
     11 O1          9.2350   -5.5840   26.1220 O.2       1 LIG1101     0.0000
     12 O2          8.8020   -3.6590   27.1680 O.2       1 LIG1101     0.0000
     13 S1          8.2500   -4.4980   26.1180 S.o2      1 LIG1101     0.0000
@<TRIPOS>BOND
     1    1   13 1
     2    2    3 1
     3    2   10 1
     4    3    4 1
     5    4    5 ar
     6    4    9 ar
     7    5    6 ar
     8    6    7 ar
     9    7    8 ar
    10    8    9 ar
    11   10   13 1
    12   11   13 2
    13   12   13 2
