LIG(A-1101)
  -OEChem-04162023143D

 21 22  0     0  0  0  0  0  0999 V2000
    5.8360   -5.3040   24.3480 N   0  0  0  0  0  0  0  0  0  0  0  0
    0.7820   -1.4490   26.1340 C   0  0  0  0  0  0  0  0  0  0  0  0
    4.7890   -6.8340   25.9830 O   0  0  0  0  0  0  0  0  0  0  0  0
    1.8750   -2.4660   26.0680 C   0  0  0  0  0  0  0  0  0  0  0  0
    5.1940   -5.1710   22.0640 C   0  0  0  0  0  0  0  0  0  0  0  0
    5.2440   -6.0810   23.2580 C   0  0  0  0  0  0  0  0  0  0  0  0
    6.8310   -4.3320   20.4750 C   0  0  0  0  0  0  0  0  0  0  0  0
    8.0960   -3.5620   20.2020 C   0  0  0  0  0  0  0  0  0  0  0  0
    3.1780   -2.1230   26.3510 C   0  0  0  0  0  0  0  0  0  0  0  0
    4.1910   -3.0520   26.2930 C   0  0  0  0  0  0  0  0  0  0  0  0
    3.9100   -4.3730   25.9650 C   0  0  0  0  0  0  0  0  0  0  0  0
    2.5940   -4.7580   25.6460 C   0  0  0  0  0  0  0  0  0  0  0  0
    2.1530   -6.1420   25.2540 C   0  0  0  0  0  0  0  0  0  0  0  0
    1.6080   -3.7780   25.7220 C   0  0  0  0  0  0  0  0  0  0  0  0
    7.2490   -5.0210   24.0830 C   0  0  0  0  0  0  0  0  0  0  0  0
    7.2790   -4.0680   22.9180 C   0  0  0  0  0  0  0  0  0  0  0  0
    6.4930   -4.5460   21.7670 N   0  0  0  0  0  0  0  0  0  0  0  0
    6.2920   -5.0250   26.7620 O   0  0  0  0  0  0  0  0  0  0  0  0
    6.1280   -4.7060   19.5450 O   0  0  0  0  0  0  0  0  0  0  0  0
    5.2740   -5.4940   25.8740 S   0  0  0  0  0  0  0  0  0  0  0  0
    8.4950   -3.4500   18.4330 R#  0  0  0  0  0  0  0  0  0  0  0  0
  1  6  1  0  0  0  0
  1 15  1  0  0  0  0
  1 20  1  0  0  0  0
  2  4  1  0  0  0  0
  3 20  2  0  0  0  0
  4  9  2  0  0  0  0
  4 14  1  0  0  0  0
  5  6  1  0  0  0  0
  5 17  1  0  0  0  0
  7  8  1  0  0  0  0
  7 17  1  0  0  0  0
  7 19  2  0  0  0  0
  9 10  1  0  0  0  0
 10 11  2  0  0  0  0
 11 12  1  0  0  0  0
 11 20  1  0  0  0  0
 12 13  1  0  0  0  0
 12 14  2  0  0  0  0
 15 16  1  0  0  0  0
 16 17  1  0  0  0  0
 18 20  2  0  0  0  0
  8 21  1  0  0  0  0
M  RGP  1  21   1
M  END
$$$$
