LIG(A-1101)
  -OEChem-04162023213D

 21 22  0     0  0  0  0  0  0999 V2000
    7.4370   -2.4900   23.7050 N   0  0  0  0  0  0  0  0  0  0  0  0
    6.0340   -5.1920   29.0800 C   0  0  0  0  0  0  0  0  0  0  0  0
    8.5950   -1.0530   25.3590 O   0  0  0  0  0  0  0  0  0  0  0  0
    7.0470   -4.8150   28.0280 C   0  0  0  0  0  0  0  0  0  0  0  0
    6.7140   -4.1990   22.1800 C   0  0  0  0  0  0  0  0  0  0  0  0
    6.2850   -3.3160   23.3190 C   0  0  0  0  0  0  0  0  0  0  0  0
    6.6480   -3.5230   19.8180 C   0  0  0  0  0  0  0  0  0  0  0  0
    7.2240   -2.6780   18.7140 C   0  0  0  0  0  0  0  0  0  0  0  0
    8.1940   -5.5660   27.8410 C   0  0  0  0  0  0  0  0  0  0  0  0
    9.1270   -5.2240   26.8770 C   0  0  0  0  0  0  0  0  0  0  0  0
    8.9420   -4.1120   26.0600 C   0  0  0  0  0  0  0  0  0  0  0  0
    9.9930   -3.8010   25.0290 C   0  0  0  0  0  0  0  0  0  0  0  0
    7.7830   -3.3490   26.2560 C   0  0  0  0  0  0  0  0  0  0  0  0
    6.8490   -3.7050   27.2190 C   0  0  0  0  0  0  0  0  0  0  0  0
    7.8540   -1.5980   22.6120 C   0  0  0  0  0  0  0  0  0  0  0  0
    8.2400   -2.4420   21.4230 C   0  0  0  0  0  0  0  0  0  0  0  0
    7.1710   -3.3790   21.0570 N   0  0  0  0  0  0  0  0  0  0  0  0
    6.1610   -1.4490   25.5430 O   0  0  0  0  0  0  0  0  0  0  0  0
    5.7570   -4.3250   19.5660 O   0  0  0  0  0  0  0  0  0  0  0  0
    7.4740   -1.9320   25.2450 S   0  0  0  0  0  0  0  0  0  0  0  0
    8.8300   -3.3500   18.2020 R#  0  0  0  0  0  0  0  0  0  0  0  0
  1  6  1  0  0  0  0
  1 15  1  0  0  0  0
  1 20  1  0  0  0  0
  2  4  1  0  0  0  0
  3 20  2  0  0  0  0
  4  9  2  0  0  0  0
  4 14  1  0  0  0  0
  5  6  1  0  0  0  0
  5 17  1  0  0  0  0
  7  8  1  0  0  0  0
  7 17  1  0  0  0  0
  7 19  2  0  0  0  0
  9 10  1  0  0  0  0
 10 11  2  0  0  0  0
 11 12  1  0  0  0  0
 11 13  1  0  0  0  0
 13 14  2  0  0  0  0
 13 20  1  0  0  0  0
 15 16  1  0  0  0  0
 16 17  1  0  0  0  0
 18 20  2  0  0  0  0
  8 21  1  0  0  0  0
M  RGP  1  21   1
M  END
$$$$
