@<TRIPOS>MOLECULE
LIG(A-1101)
   13    14     0     0     0
SMALL
NO_CHARGES

@<TRIPOS>ATOM
      1 N1          4.6520    8.1680   10.7410 N.ar      1 LIG1101     0.0000
      2 C1          2.0470   10.0730    9.4640 C.3       1 LIG1101     0.0000
      3 O1          1.6470    9.5220   10.6820 O.3       1 LIG1101     0.0000
      4 C2          3.4080    9.5010    9.0190 C.3       1 LIG1101     0.0000
      5 C3          3.1890    8.1450    8.3320 C.3       1 LIG1101     0.0000
      6 C4          4.3580    9.4080   10.2000 C.ar      1 LIG1101     0.0000
      7 C5          5.5300    8.1420   11.7840 C.ar      1 LIG1101     0.0000
      8 C6          6.1340    9.2960   12.3190 C.ar      1 LIG1101     0.0000
      9 C7          5.8100   10.5320   11.7690 C.ar      1 LIG1101     0.0000
     10 C8          4.9190   10.6000   10.7110 C.ar      1 LIG1101     0.0000
     11 C9          3.9910   10.3470    7.8900 C.3       1 LIG1101     0.0000
     12 C10         3.2260    9.9200    6.6400 C.3       1 LIG1101     0.0000
     13 C11         2.7170    8.5080    6.9150 C.3       1 LIG1101     0.0000
@<TRIPOS>BOND
     1    1    6 ar
     2    1    7 ar
     3    2    3 1
     4    2    4 1
     5    4    5 1
     6    4    6 1
     7    4   11 1
     8    5   13 1
     9    6   10 ar
    10    7    8 ar
    11    8    9 ar
    12    9   10 ar
    13   11   12 1
    14   12   13 1
