LIG(A-1101)
  -OEChem-04162022513D

 11 11  0     0  0  0  0  0  0999 V2000
    8.4730   -0.0980   27.4200 C   0  0  0  0  0  0  0  0  0  0  0  0
    9.0280   -0.6430   26.1230 C   0  0  0  0  0  0  0  0  0  0  0  0
   10.9870   -0.2750   24.6110 C   0  0  0  0  0  0  0  0  0  0  0  0
   10.6330   -1.4060   23.8860 C   0  0  0  0  0  0  0  0  0  0  0  0
   11.4200   -1.8170   22.8290 C   0  0  0  0  0  0  0  0  0  0  0  0
   12.5500   -1.0820   22.5200 C   0  0  0  0  0  0  0  0  0  0  0  0
   13.4420   -1.5190   21.3660 C   0  0  0  0  0  0  0  0  0  0  0  0
   12.8470    0.0410   23.2900 C   0  0  0  0  0  0  0  0  0  0  0  0
   10.1620    0.1630   25.7100 N   0  0  0  0  0  0  0  0  0  0  0  0
   14.1220   -1.8200   20.5080 N   0  0  0  0  0  0  0  0  0  0  0  0
   12.0680    0.4160   24.3030 N   0  0  0  0  0  0  0  0  0  0  0  0
  1  2  1  0  0  0  0
  2  9  1  0  0  0  0
  3  4  2  0  0  0  0
  3  9  1  0  0  0  0
  3 11  1  0  0  0  0
  4  5  1  0  0  0  0
  5  6  2  0  0  0  0
  6  7  1  0  0  0  0
  6  8  1  0  0  0  0
  7 10  3  0  0  0  0
  8 11  2  0  0  0  0
M  END
$$$$
