@<TRIPOS>MOLECULE
LIG(A-1101)
   16    17     0     0     0
SMALL
NO_CHARGES

@<TRIPOS>ATOM
      1 C1          9.0540    6.1740   22.6390 C.3       1 LIG1101     0.0000
      2 C2         10.3350    5.8720   23.4070 C.2       1 LIG1101     0.0000
      3 C3         12.7270    5.0060   23.3690 C.3       1 LIG1101     0.0000
      4 C4         13.1040    3.5780   22.9690 C.3       1 LIG1101     0.0000
      5 C5         12.1160    2.4940   23.4310 C.2       1 LIG1101     0.0000
      6 C6         10.9920    2.6720   24.2210 C.2       1 LIG1101     0.0000
      7 C7         11.0930    0.5210   23.7280 C.ar      1 LIG1101     0.0000
      8 C8         10.8640   -0.8750   23.6040 C.ar      1 LIG1101     0.0000
      9 C9         11.7450   -1.6540   22.8590 C.ar      1 LIG1101     0.0000
     10 C10        12.8490   -1.0610   22.2370 C.ar      1 LIG1101     0.0000
     11 C11        13.0730    0.3090   22.3660 C.ar      1 LIG1101     0.0000
     12 C12        12.1770    1.1110   23.1230 C.ar      1 LIG1101     0.0000
     13 F1         13.7160   -1.8170   21.5060 F         1 LIG1101     0.0000
     14 N1         11.4860    5.3400   22.6970 N.am      1 LIG1101     0.0000
     15 N2         10.4010    1.4960   24.3840 N.pl3     1 LIG1101     0.0000
     16 O1         10.3760    6.0620   24.5710 O.2       1 LIG1101     0.0000
@<TRIPOS>BOND
     1    1    2 1
     2    2   14 am
     3    2   16 2
     4    3    4 1
     5    3   14 1
     6    4    5 1
     7    5    6 2
     8    5   12 1
     9    6   15 1
    10    7    8 ar
    11    7   12 ar
    12    7   15 1
    13    8    9 ar
    14    9   10 ar
    15   10   11 ar
    16   10   13 1
    17   11   12 ar
