@<TRIPOS>MOLECULE
LIG(A-1101)
   14    15     0     0     0
SMALL
NO_CHARGES

@<TRIPOS>ATOM
      1 N1         14.4580  -25.9440    4.4010 N.pl3     1 LIG1101     0.0000
      2 C1         15.8790  -25.6050    7.1280 C.3       1 LIG1101     0.0000
      3 O1         15.0810  -27.8840    7.9180 O.2       1 LIG1101     0.0000
      4 C2         16.0250  -27.5890    5.5390 C.3       1 LIG1101     0.0000
      5 C3         14.7510  -27.1990    4.8460 C.2       1 LIG1101     0.0000
      6 C4         13.1670  -26.0460    3.8460 C.ar      1 LIG1101     0.0000
      7 C5         12.3370  -25.0430    3.2970 C.ar      1 LIG1101     0.0000
      8 C6         11.0730  -25.4160    2.8940 C.ar      1 LIG1101     0.0000
      9 C7         10.6180  -26.7550    3.0070 C.ar      1 LIG1101     0.0000
     10 C8         11.4100  -27.7490    3.5310 C.ar      1 LIG1101     0.0000
     11 C9         12.6970  -27.3830    3.9570 C.ar      1 LIG1101     0.0000
     12 N2         13.7130  -28.1160    4.5880 N.2       1 LIG1101     0.0000
     13 O2         17.4790  -27.4670    7.6170 O.2       1 LIG1101     0.0000
     14 S1         16.1300  -27.2420    7.2220 S.o2      1 LIG1101     0.0000
@<TRIPOS>BOND
     1    1    5 1
     2    1    6 1
     3    2   14 1
     4    3   14 2
     5    4    5 1
     6    4   14 1
     7    5   12 2
     8    6    7 ar
     9    6   11 ar
    10    7    8 ar
    11    8    9 ar
    12    9   10 ar
    13   10   11 ar
    14   11   12 1
    15   13   14 2
