@<TRIPOS>MOLECULE
LIG(A-1101)
   17    18     0     0     0
SMALL
NO_CHARGES

@<TRIPOS>ATOM
      1 N1          6.9510   -2.9280   21.0150 N.am      1 LIG1101     0.0000
      2 C1          7.1400   -2.5550   18.5790 C.3       1 LIG1101     0.0000
      3 O1          5.7500   -4.1840   19.6030 O.2       1 LIG1101     0.0000
      4 C2          6.5590   -3.2800   19.7740 C.2       1 LIG1101     0.0000
      5 C3          8.6740   -5.2950   27.4670 C.2       1 LIG1101     0.0000
      6 C4          6.5240   -3.7460   22.1510 C.3       1 LIG1101     0.0000
      7 C5          7.6930   -4.0520   23.0550 C.3       1 LIG1101     0.0000
      8 C6          8.7820   -1.9950   22.4170 C.3       1 LIG1101     0.0000
      9 C7          7.6940   -1.7170   21.3940 C.3       1 LIG1101     0.0000
     10 C8          8.3930   -2.4950   24.8430 C.2       1 LIG1101     0.0000
     11 C9          8.6840   -3.5860   25.7150 C.2       1 LIG1101     0.0000
     12 C10         9.5790   -4.6070   25.4640 C.2       1 LIG1101     0.0000
     13 C11         9.4490   -5.6380   26.4150 C.2       1 LIG1101     0.0000
     14 N2          8.2500   -2.7870   23.5260 N.am      1 LIG1101     0.0000
     15 O2          8.2890   -1.3540   25.2870 O.2       1 LIG1101     0.0000
     16 S1          7.9130   -3.7950   27.2410 S.3       1 LIG1101     0.0000
     17 Du1         8.7580   -3.2860   18.2660 Du        1 LIG1101     0.0000
@<TRIPOS>BOND
     1    1    4 am
     2    1    6 1
     3    1    9 1
     4    2    4 1
     5    3    4 2
     6    5   13 2
     7    5   16 1
     8    6    7 1
     9    7   14 1
    10    8    9 1
    11    8   14 1
    12   10   11 1
    13   10   14 am
    14   10   15 2
    15   11   12 2
    16   11   16 1
    17   12   13 1
    18    2   17 1
