LIG(A-1101)
  -OEChem-04162023363D

 14 15  0     1  0  0  0  0  0999 V2000
   23.6020   -8.1590    5.5510 C   0  0  0  0  0  0  0  0  0  0  0  0
   24.3630   -6.8860    5.9160 C   0  0  0  0  0  0  0  0  0  0  0  0
   25.7340   -6.8750    5.9130 C   0  0  0  0  0  0  0  0  0  0  0  0
   26.4600   -8.0750    5.5590 C   0  0  0  0  0  0  0  0  0  0  0  0
   25.7220   -9.3240    5.2040 C   0  0  0  0  0  0  0  0  0  0  0  0
   26.5110  -10.5760    4.8470 C   0  0  0  0  0  0  0  0  0  0  0  0
   27.8620  -10.6920    6.6860 C   0  0  0  0  0  0  0  0  0  0  0  0
   28.3350  -11.4820    7.8940 C   0  0  0  0  0  0  0  0  0  0  0  0
   27.4260  -13.4380    6.8560 C   0  0  0  0  0  0  0  0  0  0  0  0
   27.2110  -12.6010    5.6070 C   0  0  0  0  0  0  0  0  0  0  0  0
   24.3120   -9.3370    5.2050 C   0  0  0  0  0  0  0  0  0  0  0  0
   26.8660  -11.2690    5.9440 N   0  0  2  0  0  0  0  0  0  0  0  0
   28.2930  -12.9030    7.7660 O   0  0  0  0  0  0  0  0  0  0  0  0
   21.8170   -8.1260    5.5810 Cl  0  0  0  0  0  0  0  0  0  0  0  0
  1  2  2  0  0  0  0
  1 11  1  0  0  0  0
  1 14  1  0  0  0  0
  2  3  1  0  0  0  0
  3  4  2  0  0  0  0
  4  5  1  0  0  0  0
  5  6  1  0  0  0  0
  5 11  2  0  0  0  0
  6 12  1  0  0  0  0
  7  8  2  0  0  0  0
  7 12  1  0  0  0  0
  8 13  1  0  0  0  0
  9 10  1  0  0  0  0
  9 13  1  0  0  0  0
 10 12  1  0  0  0  0
M  END
$$$$
