LIG(A-1101)
  -OEChem-04032019333D

 18 19  0     0  0  0  0  0  0999 V2000
    6.3990   -5.0700   21.6550 N   0  0  0  0  0  0  0  0  0  0  0  0
    7.6530   -3.4810   20.2250 C   0  0  0  0  0  0  0  0  0  0  0  0
    5.7180   -4.7100   19.5510 O   0  0  0  0  0  0  0  0  0  0  0  0
    6.5220   -4.4770   20.4470 C   0  0  0  0  0  0  0  0  0  0  0  0
    7.2420   -4.8110   22.8230 C   0  0  0  0  0  0  0  0  0  0  0  0
    6.3960   -4.2950   23.9560 C   0  0  0  0  0  0  0  0  0  0  0  0
    4.5000   -5.5840   23.1000 C   0  0  0  0  0  0  0  0  0  0  0  0
    5.3670   -6.0610   21.9620 C   0  0  0  0  0  0  0  0  0  0  0  0
    3.4450   -3.8280   25.5980 C   0  0  0  0  0  0  0  0  0  0  0  0
    2.1350   -3.9400   25.2010 C   0  0  0  0  0  0  0  0  0  0  0  0
    1.4850   -2.6810   25.2530 C   0  0  0  0  0  0  0  0  0  0  0  0
    2.2720   -1.6970   25.7480 C   0  0  0  0  0  0  0  0  0  0  0  0
    5.3460   -5.2780   24.2680 N   0  0  0  0  0  0  0  0  0  0  0  0
    3.8570   -6.3270   25.9340 O   0  0  0  0  0  0  0  0  0  0  0  0
    5.5990   -4.7340   26.6630 O   0  0  0  0  0  0  0  0  0  0  0  0
    4.6030   -5.1290   25.7160 S   0  0  0  0  0  0  0  0  0  0  0  0
    3.8790   -2.2150   25.9790 S   0  0  0  0  0  0  0  0  0  0  0  0
    8.3320   -3.3970   18.5410 R#  0  0  0  0  0  0  0  0  0  0  0  0
  1  4  1  0  0  0  0
  1  5  1  0  0  0  0
  1  8  1  0  0  0  0
  2  4  1  0  0  0  0
  3  4  2  0  0  0  0
  5  6  1  0  0  0  0
  6 13  1  0  0  0  0
  7  8  1  0  0  0  0
  7 13  1  0  0  0  0
  9 10  2  0  0  0  0
  9 16  1  0  0  0  0
  9 17  1  0  0  0  0
 10 11  1  0  0  0  0
 11 12  2  0  0  0  0
 12 17  1  0  0  0  0
 13 16  1  0  0  0  0
 14 16  2  0  0  0  0
 15 16  2  0  0  0  0
  2 18  1  0  0  0  0
M  RGP  1  18   1
M  END
$$$$
