@<TRIPOS>MOLECULE
LIG(A-701)
   18    19     0     0     0
SMALL
NO_CHARGES

@<TRIPOS>ATOM
      1 C1         13.3960   -1.1050   22.5600 C.3       1 LIG701      0.0000
      2 C2          7.5180    2.7310   29.3150 C.ar      1 LIG701      0.0000
      3 C3          6.3240    2.6450   30.0030 C.ar      1 LIG701      0.0000
      4 C4          5.8490    3.7750   30.8670 C.3       1 LIG701      0.0000
      5 C5          5.5850    1.4830   29.8770 C.ar      1 LIG701      0.0000
      6 C6          6.0160    0.4270   29.0890 C.ar      1 LIG701      0.0000
      7 C7         11.8700   -0.1610   24.1700 C.3       1 LIG701      0.0000
      8 C8         11.1660   -0.4200   25.4800 C.3       1 LIG701      0.0000
      9 C9         10.8450   -2.7490   24.7900 C.3       1 LIG701      0.0000
     10 C10        11.6140   -2.4270   23.5260 C.3       1 LIG701      0.0000
     11 C11         8.9780   -1.5000   25.8560 C.2       1 LIG701      0.0000
     12 C12         8.5660   -0.2370   26.6000 C.3       1 LIG701      0.0000
     13 C13         7.2150    0.5330   28.4000 C.ar      1 LIG701      0.0000
     14 C14         7.9700    1.6950   28.5140 C.ar      1 LIG701      0.0000
     15 N1         12.5890   -1.3610   23.7540 N.4       1 LIG701      0.0000
     16 N2         10.2410   -1.5520   25.3800 N.am      1 LIG701      0.0000
     17 O1          8.1660   -2.4180   25.7270 O.2       1 LIG701      0.0000
     18 O2          7.6280   -0.5210   27.6270 O.3       1 LIG701      0.0000
@<TRIPOS>BOND
     1    1   15 1
     2    2    3 ar
     3    2   14 ar
     4    3    4 1
     5    3    5 ar
     6    5    6 ar
     7    6   13 ar
     8    7    8 1
     9    7   15 1
    10    8   16 1
    11    9   10 1
    12    9   16 1
    13   10   15 1
    14   11   12 1
    15   11   16 am
    16   11   17 2
    17   12   18 1
    18   13   14 ar
    19   13   18 1
