LIG(A-1301)
  -OEChem-04032019313D

 16 17  0     1  0  0  0  0  0999 V2000
    6.9090   -2.5820   20.7850 N   0  0  0  0  0  0  0  0  0  0  0  0
    7.1730   -2.5460   18.3360 C   0  0  0  0  0  0  0  0  0  0  0  0
    5.8820   -4.1460   19.5490 O   0  0  0  0  0  0  0  0  0  0  0  0
    6.5830   -3.1380   19.6020 C   0  0  0  0  0  0  0  0  0  0  0  0
    6.6460   -3.2360   22.0590 C   0  0  0  0  0  0  0  0  0  0  0  0
    7.6290   -1.3290   20.9900 C   0  0  0  0  0  0  0  0  0  0  0  0
    8.9460   -1.6340   21.6600 C   0  0  0  0  0  0  0  0  0  0  0  0
   10.0550   -2.6800   23.5200 C   0  0  0  0  0  0  0  0  0  0  0  0
   11.0250   -1.5460   23.5600 C   0  0  3  0  0  0  0  0  0  0  0  0
   12.1160   -1.3030   22.7170 C   0  0  0  0  0  0  0  0  0  0  0  0
   12.8060   -0.1250   23.0980 C   0  0  0  0  0  0  0  0  0  0  0  0
   12.1310    0.5950   24.0200 C   0  0  0  0  0  0  0  0  0  0  0  0
    7.9620   -3.5390   22.7340 C   0  0  0  0  0  0  0  0  0  0  0  0
    8.7510   -2.3200   22.9410 N   0  3  0  0  0  0  0  0  0  0  0  0
   10.8980   -0.3170   24.7520 S   0  0  0  0  0  0  0  0  0  0  0  0
    8.8220   -3.2440   18.1000 R#  0  0  0  0  0  0  0  0  0  0  0  0
  1  4  1  0  0  0  0
  1  5  1  0  0  0  0
  1  6  1  0  0  0  0
  2  4  1  0  0  0  0
  3  4  2  0  0  0  0
  5 13  1  0  0  0  0
  6  7  1  0  0  0  0
  7 14  1  0  0  0  0
  8  9  1  0  0  0  0
  8 14  1  0  0  0  0
  9 10  1  0  0  0  0
  9 15  1  0  0  0  0
 10 11  1  0  0  0  0
 11 12  1  0  0  0  0
 12 15  1  0  0  0  0
 13 14  1  0  0  0  0
  2 16  1  0  0  0  0
M  CHG  1  14   1
M  RGP  1  16   1
M  END
$$$$
