@<TRIPOS>MOLECULE
LIG(A-1101)
   18    19     0     0     0
SMALL
NO_CHARGES

@<TRIPOS>ATOM
      1 N1          6.7560   -2.7010   20.9930 N.am      1 LIG1101     0.0000
      2 C1          7.0720   -2.6690   18.5570 C.3       1 LIG1101     0.0000
      3 O1          5.7630   -4.2720   19.6960 O.2       1 LIG1101     0.0000
      4 C2          6.4730   -3.2780   19.7990 C.2       1 LIG1101     0.0000
      5 C3         11.7730   -1.8300   22.8390 C.ar      1 LIG1101     0.0000
      6 C4          8.7410   -1.7040   21.9520 C.3       1 LIG1101     0.0000
      7 C5          7.4550   -1.4380   21.2040 C.3       1 LIG1101     0.0000
      8 C6          6.4180   -3.3120   22.2790 C.3       1 LIG1101     0.0000
      9 C7          7.6780   -3.5560   23.0780 C.3       1 LIG1101     0.0000
     10 C8          9.6970   -2.6290   23.9900 C.3       1 LIG1101     0.0000
     11 C9         10.7990   -1.6170   23.7980 C.ar      1 LIG1101     0.0000
     12 C10        10.8630   -0.4650   24.5650 C.ar      1 LIG1101     0.0000
     13 C11        11.8810    0.4520   24.3710 C.ar      1 LIG1101     0.0000
     14 C12        12.8540    0.2330   23.4170 C.ar      1 LIG1101     0.0000
     15 C13        12.7820   -0.9120   22.6560 C.ar      1 LIG1101     0.0000
     16 N2          8.4660   -2.3320   23.2480 N.4       1 LIG1101     0.0000
     17 Cl1        13.9860   -1.2300   21.4400 Cl        1 LIG1101     0.0000
     18 Du1         8.7320   -3.3190   18.2510 Du        1 LIG1101     0.0000
@<TRIPOS>BOND
     1    1    4 am
     2    1    7 1
     3    1    8 1
     4    2    4 1
     5    3    4 2
     6    5   11 ar
     7    5   15 ar
     8    6    7 1
     9    6   16 1
    10    8    9 1
    11    9   16 1
    12   10   11 1
    13   10   16 1
    14   11   12 ar
    15   12   13 ar
    16   13   14 ar
    17   14   15 ar
    18   15   17 1
    19    2   18 1
