LIG(A-1101)
  -OEChem-04032019363D

 15 16  0     1  0  0  0  0  0999 V2000
    7.6390   -0.5590   -4.8740 C   0  0  0  0  0  0  0  0  0  0  0  0
    6.1190   -2.3810   -5.5970 C   0  0  0  0  0  0  0  0  0  0  0  0
    5.2970   -2.6040   -6.6410 C   0  0  0  0  0  0  0  0  0  0  0  0
    5.3850   -1.4810   -7.4760 C   0  0  0  0  0  0  0  0  0  0  0  0
    4.6280   -1.2430   -8.8050 C   0  0  0  0  0  0  0  0  0  0  0  0
    3.1580   -2.0690  -10.7460 C   0  0  0  0  0  0  0  0  0  0  0  0
    4.0330   -2.4710  -11.8940 C   0  0  2  0  0  0  0  0  0  0  0  0
    3.3040   -2.1080  -13.3370 C   0  0  0  0  0  0  0  0  0  0  0  0
    3.7480   -2.9640  -14.1940 C   0  0  0  0  0  0  0  0  0  0  0  0
    4.2590   -4.2040  -13.3660 C   0  0  0  0  0  0  0  0  0  0  0  0
    6.6760   -1.1930   -5.7880 N   0  0  0  0  0  0  0  0  0  0  0  0
    3.8830   -2.3280   -9.4740 N   0  0  0  0  0  0  0  0  0  0  0  0
    6.2130   -0.6480   -6.9380 N   0  0  0  0  0  0  0  0  0  0  0  0
    4.6400   -0.1550   -9.2620 O   0  0  0  0  0  0  0  0  0  0  0  0
    4.2180   -3.7630  -11.8810 O   0  0  0  0  0  0  0  0  0  0  0  0
  1 11  1  0  0  0  0
  2  3  2  0  0  0  0
  2 11  1  0  0  0  0
  3  4  1  0  0  0  0
  4  5  1  0  0  0  0
  4 13  2  0  0  0  0
  5 12  1  0  0  0  0
  5 14  2  0  0  0  0
  6  7  1  0  0  0  0
  6 12  1  0  0  0  0
  7  8  1  0  0  0  0
  7 15  1  0  0  0  0
  8  9  1  0  0  0  0
  9 10  1  0  0  0  0
 10 15  1  0  0  0  0
 11 13  1  0  0  0  0
M  END
$$$$
