@<TRIPOS>MOLECULE
LIG(A-1101)
   18    19     0     0     0
SMALL
NO_CHARGES

@<TRIPOS>ATOM
      1 N1          8.5480    0.6090   24.9100 N.am      1 LIG1101     0.0000
      2 C1          7.8020    1.3710   24.0090 C.2       1 LIG1101     0.0000
      3 O1          8.2740    2.3700   23.4420 O.2       1 LIG1101     0.0000
      4 C2          9.9330    0.9400   25.2340 C.3       1 LIG1101     0.0000
      5 C3          4.1460    0.2620   24.7280 C.3       1 LIG1101     0.0000
      6 C4          4.3140    0.9600   22.4570 C.3       1 LIG1101     0.0000
      7 C5          5.7100    1.5670   22.7000 C.3       1 LIG1101     0.0000
      8 C6         10.8510    0.3180   24.2200 C.ar      1 LIG1101     0.0000
      9 C7         12.0140    0.9790   23.8340 C.ar      1 LIG1101     0.0000
     10 C8         12.8610    0.4010   22.8910 C.ar      1 LIG1101     0.0000
     11 C9         12.5240   -0.8340   22.3280 C.ar      1 LIG1101     0.0000
     12 C10        13.3600   -1.4060   21.3430 C.1       1 LIG1101     0.0000
     13 C11        11.3650   -1.5030   22.7140 C.ar      1 LIG1101     0.0000
     14 C12        10.5300   -0.9260   23.6620 C.ar      1 LIG1101     0.0000
     15 C13         5.5790    0.7590   25.0280 C.3       1 LIG1101     0.0000
     16 N2         14.0610   -1.8410   20.5400 N.1       1 LIG1101     0.0000
     17 N3          6.4320    0.8740   23.8000 N.am      1 LIG1101     0.0000
     18 O2          3.5710    0.9920   23.6590 O.3       1 LIG1101     0.0000
@<TRIPOS>BOND
     1    1    2 am
     2    1    4 1
     3    2    3 2
     4    2   17 am
     5    4    8 1
     6    5   15 1
     7    5   18 1
     8    6    7 1
     9    6   18 1
    10    7   17 1
    11    8    9 ar
    12    8   14 ar
    13    9   10 ar
    14   10   11 ar
    15   11   12 1
    16   11   13 ar
    17   12   16 3
    18   13   14 ar
    19   15   17 1
