LIG(A-801)
  -OEChem-04032019323D

 15 16  0     1  0  0  0  0  0999 V2000
   10.7720   -0.4840   24.6580 C   0  0  0  0  0  0  0  0  0  0  0  0
   12.5050   -1.6780   23.3560 C   0  0  0  0  0  0  0  0  0  0  0  0
   13.4810   -1.5760   22.2220 C   0  0  0  0  0  0  0  0  0  0  0  0
   14.4540   -0.4360   22.4420 C   0  0  0  0  0  0  0  0  0  0  0  0
   13.7000    0.9040   22.7060 C   0  0  0  0  0  0  0  0  0  0  0  0
   14.2540    2.1300   22.2900 C   0  0  0  0  0  0  0  0  0  0  0  0
   13.5650    3.3230   22.5210 C   0  0  0  0  0  0  0  0  0  0  0  0
   12.3140    3.2700   23.1670 C   0  0  0  0  0  0  0  0  0  0  0  0
   11.7610    2.0610   23.5740 C   0  0  0  0  0  0  0  0  0  0  0  0
   12.4550    0.8590   23.3370 C   0  0  0  0  0  0  0  0  0  0  0  0
   11.8950   -0.4430   23.7520 N   0  0  3  0  0  0  0  0  0  0  0  0
   12.3680    6.1430   23.2090 N   0  0  0  0  0  0  0  0  0  0  0  0
   10.9220    4.7010   24.8790 O   0  0  0  0  0  0  0  0  0  0  0  0
   10.1250    4.8350   22.7670 O   0  0  0  0  0  0  0  0  0  0  0  0
   11.3910    4.7800   23.5010 S   0  0  0  0  0  0  0  0  0  0  0  0
  1 11  1  0  0  0  0
  2  3  1  0  0  0  0
  2 11  1  0  0  0  0
  3  4  1  0  0  0  0
  4  5  1  0  0  0  0
  5  6  2  0  0  0  0
  5 10  1  0  0  0  0
  6  7  1  0  0  0  0
  7  8  2  0  0  0  0
  8  9  1  0  0  0  0
  8 15  1  0  0  0  0
  9 10  2  0  0  0  0
 10 11  1  0  0  0  0
 12 15  1  0  0  0  0
 13 15  2  0  0  0  0
 14 15  2  0  0  0  0
M  END
$$$$
