@<TRIPOS>MOLECULE
LIG(A-1101)
   12    12     0     0     0
SMALL
NO_CHARGES

@<TRIPOS>ATOM
      1 N1          7.4120   -3.1090   21.3800 N.am      1 LIG1101     0.0000
      2 C1          8.4550   -2.5550   19.3380 C.3       1 LIG1101     0.0000
      3 O1          6.2720   -3.5380   19.4540 O.2       1 LIG1101     0.0000
      4 C2          7.2570   -3.1290   20.0460 C.2       1 LIG1101     0.0000
      5 C3          6.4170   -3.2140   22.3740 C.ar      1 LIG1101     0.0000
      6 C4          5.9840   -2.1120   23.1080 C.ar      1 LIG1101     0.0000
      7 C5          5.0160   -2.3000   24.0710 C.ar      1 LIG1101     0.0000
      8 C6          4.5250   -3.5720   24.2660 C.ar      1 LIG1101     0.0000
      9 C7          5.8610   -4.4550   22.6520 C.ar      1 LIG1101     0.0000
     10 N2          4.9360   -4.6360   23.5700 N.ar      1 LIG1101     0.0000
     11 Cl1         6.3700   -5.8630   21.7850 Cl        1 LIG1101     0.0000
     12 Du1         9.1150   -3.3760   17.8640 Du        1 LIG1101     0.0000
@<TRIPOS>BOND
     1    1    4 am
     2    1    5 1
     3    2    4 1
     4    3    4 2
     5    5    6 ar
     6    5    9 ar
     7    6    7 ar
     8    7    8 ar
     9    8   10 ar
    10    9   10 ar
    11    9   11 1
    12    2   12 1
