@<TRIPOS>MOLECULE
LIG(A-1101)
   17    18     0     0     0
SMALL
NO_CHARGES

@<TRIPOS>ATOM
      1 N1          6.9010   -2.6410   20.9750 N.am      1 LIG1101     0.0000
      2 C1          7.3120   -2.5040   18.5340 C.3       1 LIG1101     0.0000
      3 O1          5.7870   -3.9990   19.5790 O.2       1 LIG1101     0.0000
      4 C2          6.5980   -3.0940   19.7380 C.2       1 LIG1101     0.0000
      5 C3          6.4330   -3.3050   22.1890 C.3       1 LIG1101     0.0000
      6 C4          7.7770   -1.5190   21.3060 C.3       1 LIG1101     0.0000
      7 C5          8.9550   -2.0120   22.1180 C.3       1 LIG1101     0.0000
      8 C6          9.6800   -3.1640   24.1240 C.3       1 LIG1101     0.0000
      9 C7          9.3510   -4.2460   25.1090 C.2       1 LIG1101     0.0000
     10 C8          9.6570   -5.6030   24.9980 C.2       1 LIG1101     0.0000
     11 C9          9.3350   -6.3400   26.1610 C.2       1 LIG1101     0.0000
     12 C10         8.5510   -5.5710   27.0400 C.2       1 LIG1101     0.0000
     13 C11         7.6200   -3.7970   22.9830 C.3       1 LIG1101     0.0000
     14 N2          8.5170   -2.6920   23.3430 N.4       1 LIG1101     0.0000
     15 S1          8.4850   -3.9240   26.5770 S.3       1 LIG1101     0.0000
     16 Br1         7.6310   -6.1570   28.5620 Br        1 LIG1101     0.0000
     17 Du1         8.8940   -3.3490   18.2510 Du        1 LIG1101     0.0000
@<TRIPOS>BOND
     1    1    4 am
     2    1    5 1
     3    1    6 1
     4    2    4 1
     5    3    4 2
     6    5   13 1
     7    6    7 1
     8    7   14 1
     9    8    9 1
    10    8   14 1
    11    9   10 2
    12    9   15 1
    13   10   11 1
    14   11   12 2
    15   12   15 1
    16   12   16 1
    17   13   14 1
    18    2   17 1
