@<TRIPOS>MOLECULE
LIG(A-1101)
   17    18     0     0     0
SMALL
NO_CHARGES

@<TRIPOS>ATOM
      1 N1          6.6440   -3.6500   21.8090 N.am      1 LIG1101     0.0000
      2 C1          8.2380   -3.2790   20.1020 C.3       1 LIG1101     0.0000
      3 O1          6.0170   -4.0460   19.6510 O.2       1 LIG1101     0.0000
      4 C2          6.8430   -3.7040   20.4810 C.2       1 LIG1101     0.0000
      5 C3          3.2630   -1.9770   27.2700 C.3       1 LIG1101     0.0000
      6 C4          4.2040   -2.4280   26.1870 C.2       1 LIG1101     0.0000
      7 C5          5.6920   -4.3260   22.6030 C.ar      1 LIG1101     0.0000
      8 C6          5.3490   -5.6630   22.4110 C.ar      1 LIG1101     0.0000
      9 C7          4.4170   -6.2480   23.2490 C.ar      1 LIG1101     0.0000
     10 C8          3.8270   -5.5270   24.2730 C.ar      1 LIG1101     0.0000
     11 C9          4.1810   -4.1980   24.4580 C.ar      1 LIG1101     0.0000
     12 C10         5.1130   -3.5900   23.6260 C.ar      1 LIG1101     0.0000
     13 C11         2.1970   -3.6470   25.9270 C.3       1 LIG1101     0.0000
     14 C12         1.8980   -2.4480   26.8020 C.3       1 LIG1101     0.0000
     15 N2          3.5850   -3.4340   25.4980 N.am      1 LIG1101     0.0000
     16 O2          5.3080   -1.9810   25.9390 O.2       1 LIG1101     0.0000
     17 Du1         8.5840   -3.3900   18.3280 Du        1 LIG1101     0.0000
@<TRIPOS>BOND
     1    1    4 am
     2    1    7 1
     3    2    4 1
     4    3    4 2
     5    5    6 1
     6    5   14 1
     7    6   15 am
     8    6   16 2
     9    7    8 ar
    10    7   12 ar
    11    8    9 ar
    12    9   10 ar
    13   10   11 ar
    14   11   12 ar
    15   11   15 1
    16   13   14 1
    17   13   15 1
    18    2   17 1
