@<TRIPOS>MOLECULE
LIG(A-1101)
   13    14     0     0     0
SMALL
NO_CHARGES

@<TRIPOS>ATOM
      1 C1          9.6720    1.8000   22.1790 C.2       1 LIG1101     0.0000
      2 C2          9.2940    1.1390   23.5470 C.3       1 LIG1101     0.0000
      3 C3          7.9700    1.0510   23.7080 C.3       1 LIG1101     0.0000
      4 C4          7.5690   -0.4550   23.2930 C.3       1 LIG1101     0.0000
      5 C5          8.9320   -1.1540   22.9450 C.3       1 LIG1101     0.0000
      6 C6          9.8620   -0.4260   23.6200 C.3       1 LIG1101     0.0000
      7 C7         11.2840   -0.5170   23.0130 C.2       1 LIG1101     0.0000
      8 C8         12.2970    0.4000   23.3860 C.2       1 LIG1101     0.0000
      9 C9         13.5470    0.1850   22.7540 C.2       1 LIG1101     0.0000
     10 C10        11.6510   -1.5120   22.0850 C.2       1 LIG1101     0.0000
     11 N1         10.4680    3.0350   22.1810 N.am      1 LIG1101     0.0000
     12 O1          9.3290    1.3030   21.1260 O.2       1 LIG1101     0.0000
     13 S1         13.3390   -1.2060   21.7110 S.3       1 LIG1101     0.0000
@<TRIPOS>BOND
     1    1    2 1
     2    1   11 am
     3    1   12 2
     4    2    3 1
     5    2    6 1
     6    3    4 1
     7    4    5 1
     8    5    6 1
     9    6    7 1
    10    7    8 1
    11    7   10 2
    12    8    9 2
    13    9   13 1
    14   10   13 1
