@<TRIPOS>MOLECULE
LIG(A-1101)
   15    16     0     0     0
SMALL
NO_CHARGES

@<TRIPOS>ATOM
      1 C1         22.0010   20.1960    4.0200 C.3       1 LIG1101     0.0000
      2 C2         20.7810   19.3500    4.2670 C.3       1 LIG1101     0.0000
      3 C3         21.1850   17.8560    4.2470 C.3       1 LIG1101     0.0000
      4 C4         22.4000   16.3550    5.4930 C.3       1 LIG1101     0.0000
      5 C5         21.9050   15.1130    6.2280 C.ar      1 LIG1101     0.0000
      6 C6         22.5230   13.9140    5.9320 C.ar      1 LIG1101     0.0000
      7 C7         22.1250   12.7520    6.5580 C.ar      1 LIG1101     0.0000
      8 C8         21.1100   12.7760    7.4950 C.ar      1 LIG1101     0.0000
      9 C9         20.4990   13.9550    7.8000 C.ar      1 LIG1101     0.0000
     10 C10        20.8960   15.1310    7.1630 C.ar      1 LIG1101     0.0000
     11 C11        21.7660   18.2470    6.5450 C.3       1 LIG1101     0.0000
     12 C12        20.6070   19.2510    6.6820 C.3       1 LIG1101     0.0000
     13 N1         21.5320   17.3110    5.5280 N.4       1 LIG1101     0.0000
     14 O1         21.8880   21.3810    4.6910 O.3       1 LIG1101     0.0000
     15 O2         20.1250   19.7740    5.4500 O.3       1 LIG1101     0.0000
@<TRIPOS>BOND
     1    1    2 1
     2    1   14 1
     3    2    3 1
     4    2   15 1
     5    3   13 1
     6    4    5 1
     7    4   13 1
     8    5    6 ar
     9    5   10 ar
    10    6    7 ar
    11    7    8 ar
    12    8    9 ar
    13    9   10 ar
    14   11   12 1
    15   11   13 1
    16   12   15 1
