@<TRIPOS>MOLECULE
LIG(A-1101)
   20    21     0     0     0
SMALL
NO_CHARGES

@<TRIPOS>ATOM
      1 N1          6.7180   -5.0630   21.8150 N.am      1 LIG1101     0.0000
      2 C1          7.9510   -3.5980   20.3170 C.3       1 LIG1101     0.0000
      3 O1          5.9070   -4.6580   19.7500 O.2       1 LIG1101     0.0000
      4 C2          6.7710   -4.4870   20.5980 C.2       1 LIG1101     0.0000
      5 C3          1.7320   -3.7790   25.8530 C.ar      1 LIG1101     0.0000
      6 C4          2.7550   -4.7060   25.8010 C.ar      1 LIG1101     0.0000
      7 C5          5.7880   -6.1380   22.1650 C.3       1 LIG1101     0.0000
      8 C6          4.9860   -5.7630   23.3830 C.3       1 LIG1101     0.0000
      9 C7          6.7570   -4.2820   24.1170 C.3       1 LIG1101     0.0000
     10 C8          7.5860   -4.6670   22.9260 C.3       1 LIG1101     0.0000
     11 C9          4.0460   -4.3140   26.0870 C.ar      1 LIG1101     0.0000
     12 C10         4.3340   -3.0030   26.4030 C.ar      1 LIG1101     0.0000
     13 C11         3.3130   -2.0730   26.4540 C.ar      1 LIG1101     0.0000
     14 C12         2.0260   -2.4750   26.1770 C.ar      1 LIG1101     0.0000
     15 N2          5.9240   -5.4370   24.4690 N.pl3     1 LIG1101     0.0000
     16 O2          6.4200   -5.0720   26.8440 O.2       1 LIG1101     0.0000
     17 O3          4.7780   -6.7960   26.1610 O.2       1 LIG1101     0.0000
     18 S1          5.3500   -5.4980   25.9990 S.o2      1 LIG1101     0.0000
     19 Cl1         0.7380   -1.3080   26.2410 Cl        1 LIG1101     0.0000
     20 Du1         8.2590   -3.4380   18.5410 Du        1 LIG1101     0.0000
@<TRIPOS>BOND
     1    1    4 am
     2    1    7 1
     3    1   10 1
     4    2    4 1
     5    3    4 2
     6    5    6 ar
     7    5   14 ar
     8    6   11 ar
     9    7    8 1
    10    8   15 1
    11    9   10 1
    12    9   15 1
    13   11   12 ar
    14   11   18 1
    15   12   13 ar
    16   13   14 ar
    17   14   19 1
    18   15   18 1
    19   16   18 2
    20   17   18 2
    21    2   20 1
