DAR-DIA-842-21
 OpenBabel03242009303D

 31 33  0  0  0  0  0  0  0  0999 V2000
   11.4674    0.1899   22.8581 C   0  0  0  0  0  0  0  0  0  0  0  0
   11.0371   -0.2255   24.1169 C   0  0  0  0  0  0  0  0  0  0  0  0
   10.5036   -2.4246   25.4306 C   0  0  0  0  0  0  0  0  0  0  0  0
   11.7360   -0.7717   21.8932 C   0  0  0  0  0  0  0  0  0  0  0  0
    4.5105   -4.0901   24.9049 C   0  0  0  0  0  0  0  0  0  0  0  0
   10.8983   -1.6050   24.3402 C   0  0  0  0  0  0  0  0  0  0  0  0
   10.5768   -3.7362   25.0135 C   0  0  0  0  0  0  0  0  0  0  0  0
    4.6599   -5.4422   25.0891 C   0  0  0  0  0  0  0  0  0  0  0  0
   11.2020   -2.4585   23.2836 C   0  0  0  0  0  0  0  0  0  0  0  0
    6.5585   -4.4634   25.2040 C   0  0  0  0  0  0  0  0  0  0  0  0
    8.8320   -5.4697   25.6082 C   0  0  0  0  0  0  0  0  0  0  0  0
    3.7464   -6.5886   25.1167 C   0  0  0  0  0  0  0  0  0  0  0  0
   10.2835   -4.9911   25.7311 C   0  0  0  0  0  0  0  0  0  0  0  0
   11.6204   -2.1107   22.0520 N   0  0  0  0  0  0  0  0  0  0  0  0
    5.7305   -3.4681   24.9798 N   0  0  0  0  0  0  0  0  0  0  0  0
   11.0017   -3.7449   23.7102 N   0  0  0  0  0  0  0  0  0  0  0  0
    7.9628   -4.4079   25.3708 N   0  0  0  0  0  0  0  0  0  0  0  0
    8.5422   -6.6568   25.7176 O   0  0  0  0  0  0  0  0  0  0  0  0
    5.9841   -5.6949   25.2838 O   0  0  0  0  0  0  0  0  0  0  0  0
   11.5900    1.2449   22.6384 H   0  0  0  0  0  0  0  0  0  0  0  0
   10.8196    0.4994   24.8948 H   0  0  0  0  0  0  0  0  0  0  0  0
   10.1997   -2.0930   26.4144 H   0  0  0  0  0  0  0  0  0  0  0  0
   12.0728   -0.4655   20.9062 H   0  0  0  0  0  0  0  0  0  0  0  0
    3.6016   -3.5353   24.7244 H   0  0  0  0  0  0  0  0  0  0  0  0
    3.6179   -7.0312   24.1113 H   0  0  0  0  0  0  0  0  0  0  0  0
    4.1001   -7.3963   25.7863 H   0  0  0  0  0  0  0  0  0  0  0  0
    2.7381   -6.3182   25.4859 H   0  0  0  0  0  0  0  0  0  0  0  0
   10.9324   -5.8160   25.3750 H   0  0  0  0  0  0  0  0  0  0  0  0
   10.5079   -4.8934   26.8120 H   0  0  0  0  0  0  0  0  0  0  0  0
   11.1460   -4.5716   23.1467 H   0  0  0  0  0  0  0  0  0  0  0  0
    8.3867   -3.4845   25.3102 H   0  0  0  0  0  0  0  0  0  0  0  0
  1  2  2  0  0  0  0
  1  4  1  0  0  0  0
  1 20  1  0  0  0  0
  2  6  1  0  0  0  0
  2 21  1  0  0  0  0
  3  6  1  0  0  0  0
  3  7  2  0  0  0  0
  3 22  1  0  0  0  0
  4 14  2  0  0  0  0
  4 23  1  0  0  0  0
  5  8  2  0  0  0  0
  5 15  1  0  0  0  0
  5 24  1  0  0  0  0
  6  9  2  0  0  0  0
  7 13  1  0  0  0  0
  7 16  1  0  0  0  0
  8 12  1  0  0  0  0
  8 19  1  0  0  0  0
  9 14  1  0  0  0  0
  9 16  1  0  0  0  0
 10 15  2  0  0  0  0
 10 17  1  0  0  0  0
 10 19  1  0  0  0  0
 11 13  1  0  0  0  0
 11 17  1  0  0  0  0
 11 18  2  0  0  0  0
 12 25  1  0  0  0  0
 12 26  1  0  0  0  0
 12 27  1  0  0  0  0
 13 28  1  0  0  0  0
 13 29  1  0  0  0  0
 16 30  1  0  0  0  0
 17 31  1  0  0  0  0
M  END
>  <Chemgauss4 Score>
-6.06421232223511

>  <Number of Confs>
59

$$$$
