WAR-XCH-eb7-4
 OpenBabel03242009303D

 28 29  0  0  0  0  0  0  0  0999 V2000
   13.1604   -0.7274   22.4253 C   0  0  0  0  0  0  0  0  0  0  0  0
   12.2076   -1.7271   22.5864 C   0  0  0  0  0  0  0  0  0  0  0  0
    8.2480   -4.8173   26.9526 C   0  0  0  0  0  0  0  0  0  0  0  0
    6.6447   -5.2020   25.1867 C   0  0  0  0  0  0  0  0  0  0  0  0
    6.1903   -5.9924   27.4241 C   0  0  0  0  0  0  0  0  0  0  0  0
   13.1071    0.3629   23.2788 C   0  0  0  0  0  0  0  0  0  0  0  0
   11.2769   -0.4782   24.3836 C   0  0  0  0  0  0  0  0  0  0  0  0
   11.2443   -1.6078   23.5818 C   0  0  0  0  0  0  0  0  0  0  0  0
    7.8650   -4.6821   25.6182 C   0  0  0  0  0  0  0  0  0  0  0  0
    7.4106   -5.4725   27.8556 C   0  0  0  0  0  0  0  0  0  0  0  0
    5.8073   -5.8571   26.0896 C   0  0  0  0  0  0  0  0  0  0  0  0
    9.6214   -2.9774   24.9636 C   0  0  0  0  0  0  0  0  0  0  0  0
   12.1866    0.5137   24.2573 N   0  0  0  0  0  0  0  0  0  0  0  0
   10.2617   -2.6085   23.7698 N   0  0  0  0  0  0  0  0  0  0  0  0
    8.7020   -4.0259   24.7154 N   0  0  0  0  0  0  0  0  0  0  0  0
    9.8232   -2.4712   26.0628 O   0  0  0  0  0  0  0  0  0  0  0  0
    7.7841   -5.6042   29.1577 O   0  0  0  0  0  0  0  0  0  0  0  0
    4.3018   -6.4985   25.5578 Cl  0  0  0  0  0  0  0  0  0  0  0  0
   13.9207   -0.7994   21.6560 H   0  0  0  0  0  0  0  0  0  0  0  0
   12.2250   -2.5941   21.9313 H   0  0  0  0  0  0  0  0  0  0  0  0
    9.1985   -4.4138   27.2940 H   0  0  0  0  0  0  0  0  0  0  0  0
    6.3487   -5.0947   24.1453 H   0  0  0  0  0  0  0  0  0  0  0  0
    5.5431   -6.5019   28.1343 H   0  0  0  0  0  0  0  0  0  0  0  0
   13.8273    1.1700   23.1936 H   0  0  0  0  0  0  0  0  0  0  0  0
   10.5514   -0.3285   25.1777 H   0  0  0  0  0  0  0  0  0  0  0  0
    9.9853   -3.1238   22.9379 H   0  0  0  0  0  0  0  0  0  0  0  0
    8.6551   -4.3353   23.7387 H   0  0  0  0  0  0  0  0  0  0  0  0
    8.6517   -5.1939   29.3020 H   0  0  0  0  0  0  0  0  0  0  0  0
  1  2  2  0  0  0  0
  1  6  1  0  0  0  0
  1 19  1  0  0  0  0
  2  8  1  0  0  0  0
  2 20  1  0  0  0  0
  3  9  1  0  0  0  0
  3 10  2  0  0  0  0
  3 21  1  0  0  0  0
  4  9  2  0  0  0  0
  4 11  1  0  0  0  0
  4 22  1  0  0  0  0
  5 10  1  0  0  0  0
  5 11  2  0  0  0  0
  5 23  1  0  0  0  0
  6 13  2  0  0  0  0
  6 24  1  0  0  0  0
  7  8  2  0  0  0  0
  7 13  1  0  0  0  0
  7 25  1  0  0  0  0
  8 14  1  0  0  0  0
  9 15  1  0  0  0  0
 10 17  1  0  0  0  0
 11 18  1  0  0  0  0
 12 14  1  0  0  0  0
 12 15  1  0  0  0  0
 12 16  2  0  0  0  0
 14 26  1  0  0  0  0
 15 27  1  0  0  0  0
 17 28  1  0  0  0  0
M  END
>  <Chemgauss4 Score>
-4.90604734420776

>  <Number of Confs>
12

$$$$
