JOH-MEM-5e3-5
 OpenBabel03242009303D

 48 51  0  0  1  0  0  0  0  0999 V2000
   10.3558   -1.7758   22.7310 C   0  0  0  0  0  0  0  0  0  0  0  0
   10.4339   -1.9221   24.1193 C   0  0  0  0  0  0  0  0  0  0  0  0
    8.3764   -0.6677   24.4337 C   0  0  0  0  0  0  0  0  0  0  0  0
    8.2731   -0.5049   23.0398 C   0  0  0  0  0  0  0  0  0  0  0  0
    7.3596    0.1237   22.1766 C   0  0  0  0  0  0  0  0  0  0  0  0
    9.2683   -1.0641   22.2114 C   0  0  0  0  0  0  0  0  0  0  0  0
    9.4622   -1.3783   24.9578 C   0  0  0  0  0  0  0  0  0  0  0  0
    7.8002   -0.0597   20.9007 C   0  0  0  0  0  0  0  0  0  0  0  0
    9.2437   -5.7576   26.0374 C   0  0  0  0  0  0  0  0  0  0  0  0
    7.2462    0.4479   18.6047 C   0  0  0  0  0  0  0  0  0  0  0  0
    6.0990    0.9056   22.2037 C   0  0  0  0  0  0  0  0  0  0  0  0
    5.8453    1.1702   20.6726 C   0  0  0  0  0  0  0  0  0  0  0  0
    8.3017   -4.9114   26.8728 C   0  0  1  0  0  0  0  0  0  0  0  0
    8.5102   -5.0611   28.3792 C   0  0  1  0  0  0  0  0  0  0  0  0
    9.6984   -4.2478   28.9080 C   0  0  2  0  0  0  0  0  0  0  0  0
    9.7225   -2.8342   28.3219 C   0  0  1  0  0  0  0  0  0  0  0  0
    9.5789   -2.8781   26.8000 C   0  0  1  0  0  0  0  0  0  0  0  0
    6.2234    1.1444   17.7423 C   0  0  0  0  0  0  0  0  0  0  0  0
    8.9469   -0.7708   20.8914 N   0  0  0  0  0  0  0  0  0  0  0  0
    6.9868    0.5125   19.9572 N   0  0  0  0  0  0  0  0  0  0  0  0
   10.0198   -5.3240   25.1989 O   0  0  0  0  0  0  0  0  0  0  0  0
    8.2120   -0.1149   18.0879 O   0  0  0  0  0  0  0  0  0  0  0  0
    8.3792   -3.5550   26.4275 O   0  0  0  0  0  0  0  0  0  0  0  0
    9.1078   -7.0707   26.3448 O   0  0  0  0  0  0  0  0  0  0  0  0
    7.3121   -4.6217   29.0223 O   0  0  0  0  0  0  0  0  0  0  0  0
   10.9039   -4.9249   28.5619 O   0  0  0  0  0  0  0  0  0  0  0  0
    8.6464   -2.0693   28.8645 O   0  0  0  0  0  0  0  0  0  0  0  0
    9.5692   -1.5400   26.3072 O   0  0  0  0  0  0  0  0  0  0  0  0
   11.1147   -2.2008   22.0824 H   0  0  0  0  0  0  0  0  0  0  0  0
   11.2707   -2.4713   24.5450 H   0  0  0  0  0  0  0  0  0  0  0  0
    7.6238   -0.2473   25.0952 H   0  0  0  0  0  0  0  0  0  0  0  0
    5.2779    0.3291   22.6395 H   0  0  0  0  0  0  0  0  0  0  0  0
    6.2225    1.8479   22.7454 H   0  0  0  0  0  0  0  0  0  0  0  0
    4.9050    0.7243   20.3327 H   0  0  0  0  0  0  0  0  0  0  0  0
    5.8444    2.2398   20.4390 H   0  0  0  0  0  0  0  0  0  0  0  0
    7.2460   -5.2987   26.6077 H   0  0  0  0  0  0  0  0  0  0  0  0
    8.6377   -6.1240   28.6481 H   0  0  0  0  0  0  0  0  0  0  0  0
    9.6786   -4.2129   30.0141 H   0  0  0  0  0  0  0  0  0  0  0  0
   10.6541   -2.3428   28.5976 H   0  0  0  0  0  0  0  0  0  0  0  0
   10.4256   -3.3839   26.3594 H   0  0  0  0  0  0  0  0  0  0  0  0
    6.5228    2.1776   17.6016 H   0  0  0  0  0  0  0  0  0  0  0  0
    5.2566    1.1017   18.2334 H   0  0  0  0  0  0  0  0  0  0  0  0
    6.1661    0.6405   16.7829 H   0  0  0  0  0  0  0  0  0  0  0  0
    9.4846   -1.0470   20.0806 H   0  0  0  0  0  0  0  0  0  0  0  0
    9.7081   -7.6356   25.8130 H   0  0  0  0  0  0  0  0  0  0  0  0
    6.6003   -5.1938   28.6975 H   0  0  0  0  0  0  0  0  0  0  0  0
   10.8576   -5.7966   28.9821 H   0  0  0  0  0  0  0  0  0  0  0  0
    8.7791   -2.0453   29.8253 H   0  0  0  0  0  0  0  0  0  0  0  0
  1  2  2  0  0  0  0
  1  6  1  0  0  0  0
  1 29  1  0  0  0  0
  2  7  1  0  0  0  0
  2 30  1  0  0  0  0
  3  4  1  0  0  0  0
  3  7  2  0  0  0  0
  3 31  1  0  0  0  0
  4  5  1  0  0  0  0
  4  6  2  0  0  0  0
  5  8  2  0  0  0  0
  5 11  1  0  0  0  0
  6 19  1  0  0  0  0
  7 28  1  0  0  0  0
  8 19  1  0  0  0  0
  8 20  1  0  0  0  0
  9 13  1  0  0  0  0
  9 21  2  0  0  0  0
  9 24  1  0  0  0  0
 10 18  1  0  0  0  0
 10 20  1  0  0  0  0
 10 22  2  0  0  0  0
 11 12  1  0  0  0  0
 11 32  1  0  0  0  0
 11 33  1  0  0  0  0
 12 20  1  0  0  0  0
 12 34  1  0  0  0  0
 12 35  1  0  0  0  0
 13 14  1  0  0  0  0
 13 23  1  0  0  0  0
 13 36  1  6  0  0  0
 14 15  1  0  0  0  0
 14 25  1  0  0  0  0
 14 37  1  1  0  0  0
 15 16  1  0  0  0  0
 15 26  1  0  0  0  0
 15 38  1  1  0  0  0
 16 17  1  0  0  0  0
 16 27  1  0  0  0  0
 16 39  1  1  0  0  0
 17 23  1  0  0  0  0
 17 28  1  0  0  0  0
 17 40  1  6  0  0  0
 18 41  1  0  0  0  0
 18 42  1  0  0  0  0
 18 43  1  0  0  0  0
 19 44  1  0  0  0  0
 24 45  1  0  0  0  0
 25 46  1  0  0  0  0
 26 47  1  0  0  0  0
 27 48  1  0  0  0  0
M  END
>  <Chemgauss4 Score>
-5.52286624908447

>  <Number of Confs>
75

$$$$
