@<TRIPOS>MOLECULE
LIG(B-501)
   42    46     0     0     0
SMALL
USER_CHARGES

@<TRIPOS>ATOM
      1 O1          8.7474    1.0611   21.0513 O.2       1 LIG501     -0.5487
      2 C1          8.2490    0.0169   21.4271 C.2       1 LIG501      0.6985
      3 C2          8.6238   -0.7606   22.6929 C.3       1 LIG501     -0.0588
      4 C3          7.8721   -0.1194   23.8831 C.3       1 LIG501     -0.1069
      5 C4          8.6609    1.0133   24.4995 C.3       1 LIG501      0.1228
      6 O2          9.9479    0.5589   24.9534 O.3       1 LIG501     -0.3196
      7 C5         10.1406   -0.7765   22.9250 C.ar      1 LIG501     -0.1312
      8 C6         10.7040   -0.0625   23.9898 C.ar      1 LIG501      0.1429
      9 C7         12.0765    0.0316   24.1541 C.ar      1 LIG501     -0.1421
     10 C8         12.9132   -0.6032   23.2569 C.ar      1 LIG501     -0.0850
     11 C9         10.9991   -1.4331   22.0443 C.ar      1 LIG501     -0.0841
     12 C10        12.3683   -1.3298   22.2234 C.ar      1 LIG501     -0.0103
     13 Cl1        13.4319   -2.1250   21.0942 Cl        1 LIG501     -0.0877
     14 N1          7.2292   -0.6897   20.7790 N.am      1 LIG501     -0.4373
     15 C11         6.9866   -1.9366   21.3580 C.2       1 LIG501      0.7058
     16 O3          6.0611   -2.6704   21.0477 O.2       1 LIG501     -0.5630
     17 C12         8.0140   -2.1541   22.4331 C.3       1 LIG501     -0.1563
     18 C13         6.4440   -0.1472   19.6979 C.ar      1 LIG501     -0.0587
     19 C14         5.3982    0.7733   19.9948 C.ar      1 LIG501      0.0026
     20 C15         4.8973    1.0233   21.2988 C.ar      1 LIG501     -0.1263
     21 C16         3.8960    1.9291   21.5050 C.ar      1 LIG501     -0.1045
     22 C17         3.3432    2.6279   20.4411 C.ar      1 LIG501     -0.1314
     23 C18         3.7865    2.4205   19.1660 C.ar      1 LIG501     -0.0953
     24 C19         4.8226    1.4906   18.9054 C.ar      1 LIG501     -0.1581
     25 C20         5.3278    1.2339   17.6066 C.ar      1 LIG501      0.4347
     26 N2          6.3062    0.3769   17.3421 N.ar      1 LIG501     -0.6579
     27 C21         6.8438   -0.2892   18.3752 C.ar      1 LIG501      0.4162
     28 H1          6.9075    0.2710   23.5265 H         1 LIG501      0.0667
     29 H2          7.6956   -0.8888   24.6491 H         1 LIG501      0.0667
     30 H3          8.8032    1.8034   23.7475 H         1 LIG501      0.0734
     31 H4          8.1002    1.4181   25.3550 H         1 LIG501      0.0734
     32 H5         12.4888    0.5967   24.9769 H         1 LIG501      0.1590
     33 H6         13.9852   -0.5299   23.3657 H         1 LIG501      0.1537
     34 H7         10.5994   -2.0178   21.2289 H         1 LIG501      0.1471
     35 H8          8.7881   -2.8569   22.0913 H         1 LIG501      0.0974
     36 H9          7.5410   -2.5451   23.3460 H         1 LIG501      0.0974
     37 H10         5.3137    0.4895   22.1403 H         1 LIG501      0.1304
     38 H11         3.5309    2.1033   22.5063 H         1 LIG501      0.1360
     39 H12         2.5544    3.3428   20.6232 H         1 LIG501      0.1389
     40 H13         3.3431    2.9706   18.3492 H         1 LIG501      0.1391
     41 H14         4.8885    1.7703   16.7785 H         1 LIG501      0.0269
     42 H15         7.6430   -0.9842   18.1637 H         1 LIG501      0.0339
@<TRIPOS>BOND
     1    1    2 2
     2    2    3 1
     3    2   14 am
     4    3    4 1
     5    3    7 1
     6    3   17 1
     7    4    5 1
     8    5    6 1
     9    6    8 1
    10    7    8 ar
    11    7   11 ar
    12    8    9 ar
    13    9   10 ar
    14   10   12 ar
    15   11   12 ar
    16   12   13 1
    17   14   15 am
    18   14   18 1
    19   15   16 2
    20   15   17 1
    21   18   19 ar
    22   18   27 ar
    23   19   20 ar
    24   19   24 ar
    25   20   21 ar
    26   21   22 ar
    27   22   23 ar
    28   23   24 ar
    29   24   25 ar
    30   25   26 ar
    31   26   27 ar
    32    4   28 1
    33    4   29 1
    34    5   30 1
    35    5   31 1
    36    9   32 1
    37   10   33 1
    38   11   34 1
    39   17   35 1
    40   17   36 1
    41   20   37 1
    42   21   38 1
    43   22   39 1
    44   23   40 1
    45   25   41 1
    46   27   42 1
