DAR-DIA-43a-2
 OpenBabel03242009303D

 39 41  0  0  1  0  0  0  0  0999 V2000
    5.3661   -4.8484   26.3469 C   0  0  0  0  0  0  0  0  0  0  0  0
   13.6131   -1.1855   22.0637 C   0  0  0  0  0  0  0  0  0  0  0  0
    6.4958   -4.1169   26.7135 C   0  0  0  0  0  0  0  0  0  0  0  0
   12.2450   -1.2295   22.3079 C   0  0  0  0  0  0  0  0  0  0  0  0
    5.2085   -5.2738   25.0278 C   0  0  0  0  0  0  0  0  0  0  0  0
    7.3100   -4.2359   24.4419 C   0  0  0  0  0  0  0  0  0  0  0  0
   14.4021   -0.4409   22.9256 C   0  0  0  0  0  0  0  0  0  0  0  0
   12.5892    0.1780   24.1939 C   0  0  0  0  0  0  0  0  0  0  0  0
    7.4677   -3.8106   25.7610 C   0  0  0  0  0  0  0  0  0  0  0  0
   11.7152   -0.5374   23.3913 C   0  0  0  0  0  0  0  0  0  0  0  0
    6.1804   -4.9675   24.0753 C   0  0  0  0  0  0  0  0  0  0  0  0
    8.8055   -1.7050   25.4286 C   0  0  0  0  0  0  0  0  0  0  0  0
    9.8452   -1.6794   24.5853 C   0  0  0  0  0  0  0  0  0  0  0  0
   10.0670   -5.1486   25.7456 C   0  0  0  0  0  0  0  0  0  0  0  0
   10.6124   -2.9646   24.6087 C   0  0  0  0  0  0  0  0  0  0  0  0
    8.6950   -3.0156   26.1601 C   0  0  2  0  0  0  0  0  0  0  0  0
   10.0732   -3.6554   25.8672 C   0  0  1  0  0  0  0  0  0  0  0  0
   10.2356   -0.5658   23.6832 C   0  0  0  0  0  0  0  0  0  0  0  0
   13.9237    0.2444   23.9882 N   0  0  0  0  0  0  0  0  0  0  0  0
    9.5966   -5.7942   26.8646 N   0  0  0  0  0  0  0  0  0  0  0  0
   10.4367   -5.7219   24.7238 O   0  0  0  0  0  0  0  0  0  0  0  0
    5.9660   -5.5440   22.2882 Br  0  0  0  0  0  0  0  0  0  0  0  0
    4.6094   -5.0868   27.0886 H   0  0  0  0  0  0  0  0  0  0  0  0
   14.0481   -1.7174   21.2253 H   0  0  0  0  0  0  0  0  0  0  0  0
    6.6101   -3.7898   27.7435 H   0  0  0  0  0  0  0  0  0  0  0  0
   11.6000   -1.8052   21.6497 H   0  0  0  0  0  0  0  0  0  0  0  0
    4.3223   -5.8429   24.7588 H   0  0  0  0  0  0  0  0  0  0  0  0
    8.0721   -3.9933   23.7047 H   0  0  0  0  0  0  0  0  0  0  0  0
   15.4750   -0.3746   22.7778 H   0  0  0  0  0  0  0  0  0  0  0  0
   12.2338    0.7376   25.0536 H   0  0  0  0  0  0  0  0  0  0  0  0
    8.1437   -0.8631   25.6021 H   0  0  0  0  0  0  0  0  0  0  0  0
   10.4425   -3.5529   23.7015 H   0  0  0  0  0  0  0  0  0  0  0  0
   11.6834   -2.7558   24.7016 H   0  0  0  0  0  0  0  0  0  0  0  0
    8.6036   -2.7933   27.2346 H   0  0  0  0  0  0  0  0  0  0  0  0
   10.7653   -3.4351   26.7401 H   0  0  0  0  0  0  0  0  0  0  0  0
    9.9376    0.3932   24.1290 H   0  0  0  0  0  0  0  0  0  0  0  0
    9.6731   -0.6410   22.7429 H   0  0  0  0  0  0  0  0  0  0  0  0
    9.2998   -5.2374   27.6593 H   0  0  0  0  0  0  0  0  0  0  0  0
    9.5344   -6.8051   26.9278 H   0  0  0  0  0  0  0  0  0  0  0  0
  1  3  2  0  0  0  0
  1  5  1  0  0  0  0
  1 23  1  0  0  0  0
  2  4  2  0  0  0  0
  2  7  1  0  0  0  0
  2 24  1  0  0  0  0
  3  9  1  0  0  0  0
  3 25  1  0  0  0  0
  4 10  1  0  0  0  0
  4 26  1  0  0  0  0
  5 11  2  0  0  0  0
  5 27  1  0  0  0  0
  6  9  2  0  0  0  0
  6 11  1  0  0  0  0
  6 28  1  0  0  0  0
  7 19  2  0  0  0  0
  7 29  1  0  0  0  0
  8 10  2  0  0  0  0
  8 19  1  0  0  0  0
  8 30  1  0  0  0  0
  9 16  1  0  0  0  0
 10 18  1  0  0  0  0
 11 22  1  0  0  0  0
 12 13  2  0  0  0  0
 12 16  1  0  0  0  0
 12 31  1  0  0  0  0
 13 15  1  0  0  0  0
 13 18  1  0  0  0  0
 14 17  1  0  0  0  0
 14 20  1  0  0  0  0
 14 21  2  0  0  0  0
 15 17  1  0  0  0  0
 15 32  1  0  0  0  0
 15 33  1  0  0  0  0
 16 17  1  0  0  0  0
 16 34  1  1  0  0  0
 17 35  1  1  0  0  0
 18 36  1  0  0  0  0
 18 37  1  0  0  0  0
 20 38  1  0  0  0  0
 20 39  1  0  0  0  0
M  END
>  <Chemgauss4 Score>
-6.71505546569824

>  <Number of Confs>
200

$$$$
