ALP-POS-d2866bdf-1
  -OEChem-08232013433D

 49 52  0     0  0  0  0  0  0999 V2000
    9.2940   -4.7330   25.5510 N   0  0  0  0  0  0  0  0  0  0  0  0
    9.6550   -5.9590   24.8650 C   0  0  0  0  0  0  0  0  0  0  0  0
    9.2690    1.4140   20.9380 O   0  0  0  0  0  0  0  0  0  0  0  0
    8.3680   -4.9600   26.6520 C   0  0  0  0  0  0  0  0  0  0  0  0
    9.4560    0.1560   22.8130 N   0  0  0  0  0  0  0  0  0  0  0  0
    9.3070   -3.5340   24.8780 C   0  0  0  0  0  0  0  0  0  0  0  0
    7.3170   -0.1610   19.8550 N   0  0  0  0  0  0  0  0  0  0  0  0
    8.9960   -2.3380   25.5320 C   0  0  0  0  0  0  0  0  0  0  0  0
    7.6390   -0.2680   18.5410 N   0  0  0  0  0  0  0  0  0  0  0  0
    9.0720   -1.1280   24.8640 C   0  0  0  0  0  0  0  0  0  0  0  0
    6.7580    0.3810   17.8350 N   0  0  0  0  0  0  0  0  0  0  0  0
    9.3350   -1.0880   23.5010 C   0  0  0  0  0  0  0  0  0  0  0  0
    9.7200   -2.2600   22.8630 C   0  0  0  0  0  0  0  0  0  0  0  0
    9.6730   -3.4710   23.5300 C   0  0  0  0  0  0  0  0  0  0  0  0
    9.8870    1.3260   23.5730 C   0  0  0  0  0  0  0  0  0  0  0  0
   11.3540    1.6190   23.3910 C   0  0  0  0  0  0  0  0  0  0  0  0
   12.3110    0.6640   23.5760 C   0  0  0  0  0  0  0  0  0  0  0  0
   13.2890    2.8040   22.8220 C   0  0  0  0  0  0  0  0  0  0  0  0
   11.9200    2.8550   22.9600 C   0  0  0  0  0  0  0  0  0  0  0  0
    9.0420    0.3700   21.5280 C   0  0  0  0  0  0  0  0  0  0  0  0
    8.1890   -0.7180   20.8700 C   0  0  0  0  0  0  0  0  0  0  0  0
    5.8300    0.9190   18.6970 C   0  0  0  0  0  0  0  0  0  0  0  0
    6.1790    0.5730   19.9990 C   0  0  0  0  0  0  0  0  0  0  0  0
    5.4210    0.9600   21.0930 C   0  0  0  0  0  0  0  0  0  0  0  0
    4.2750    1.7050   20.8490 C   0  0  0  0  0  0  0  0  0  0  0  0
    3.9160    2.0630   19.5520 C   0  0  0  0  0  0  0  0  0  0  0  0
    4.6890    1.6810   18.4640 C   0  0  0  0  0  0  0  0  0  0  0  0
   13.8810    1.2400   23.2310 S   0  0  0  0  0  0  0  0  0  0  0  0
   10.3531   -5.7298   24.0464 H   0  0  0  0  0  0  0  0  0  0  0  0
   10.1360   -6.6482   25.5747 H   0  0  0  0  0  0  0  0  0  0  0  0
    8.7496   -6.4292   24.4538 H   0  0  0  0  0  0  0  0  0  0  0  0
    8.1292   -4.0008   27.1347 H   0  0  0  0  0  0  0  0  0  0  0  0
    7.4444   -5.4160   26.2660 H   0  0  0  0  0  0  0  0  0  0  0  0
    8.8308   -5.6350   27.3870 H   0  0  0  0  0  0  0  0  0  0  0  0
    8.6935   -2.3584   26.5686 H   0  0  0  0  0  0  0  0  0  0  0  0
    8.9254   -0.2065   25.4079 H   0  0  0  0  0  0  0  0  0  0  0  0
   10.0587   -2.2257   21.8381 H   0  0  0  0  0  0  0  0  0  0  0  0
    9.9223   -4.3799   23.0025 H   0  0  0  0  0  0  0  0  0  0  0  0
    9.3078    2.1988   23.2371 H   0  0  0  0  0  0  0  0  0  0  0  0
    9.6923    1.1455   24.6405 H   0  0  0  0  0  0  0  0  0  0  0  0
   12.0992   -0.3430   23.9038 H   0  0  0  0  0  0  0  0  0  0  0  0
   13.9059    3.6305   22.5016 H   0  0  0  0  0  0  0  0  0  0  0  0
   11.3345    3.7407   22.7620 H   0  0  0  0  0  0  0  0  0  0  0  0
    7.5752   -1.2072   21.6407 H   0  0  0  0  0  0  0  0  0  0  0  0
    8.8529   -1.4609   20.4038 H   0  0  0  0  0  0  0  0  0  0  0  0
    5.7111    0.6919   22.0982 H   0  0  0  0  0  0  0  0  0  0  0  0
    3.6530    2.0113   21.6771 H   0  0  0  0  0  0  0  0  0  0  0  0
    3.0221    2.6470   19.3900 H   0  0  0  0  0  0  0  0  0  0  0  0
    4.4115    1.9683   17.4606 H   0  0  0  0  0  0  0  0  0  0  0  0
  1  2  1  0  0  0  0
  1  4  1  0  0  0  0
  1  6  1  0  0  0  0
  3 20  2  0  0  0  0
  5 12  1  0  0  0  0
  5 15  1  0  0  0  0
  5 20  1  0  0  0  0
  6  8  2  0  0  0  0
  6 14  1  0  0  0  0
  7  9  1  0  0  0  0
  7 21  1  0  0  0  0
  7 23  1  0  0  0  0
  8 10  1  0  0  0  0
  9 11  2  0  0  0  0
 10 12  2  0  0  0  0
 11 22  1  0  0  0  0
 12 13  1  0  0  0  0
 13 14  2  0  0  0  0
 15 16  1  0  0  0  0
 16 17  2  0  0  0  0
 16 19  1  0  0  0  0
 17 28  1  0  0  0  0
 18 19  2  0  0  0  0
 18 28  1  0  0  0  0
 20 21  1  0  0  0  0
 22 23  2  0  0  0  0
 22 27  1  0  0  0  0
 23 24  1  0  0  0  0
 24 25  2  0  0  0  0
 25 26  1  0  0  0  0
 26 27  2  0  0  0  0
  2 29  1  0  0  0  0
  2 30  1  0  0  0  0
  2 31  1  0  0  0  0
  4 32  1  0  0  0  0
  4 33  1  0  0  0  0
  4 34  1  0  0  0  0
  8 35  1  0  0  0  0
 10 36  1  0  0  0  0
 13 37  1  0  0  0  0
 14 38  1  0  0  0  0
 15 39  1  0  0  0  0
 15 40  1  0  0  0  0
 17 41  1  0  0  0  0
 18 42  1  0  0  0  0
 19 43  1  0  0  0  0
 21 44  1  0  0  0  0
 21 45  1  0  0  0  0
 24 46  1  0  0  0  0
 25 47  1  0  0  0  0
 26 48  1  0  0  0  0
 27 49  1  0  0  0  0
M  END
> <canonical_CID>
ALP-POS-d2866bdf-1

> <r_inhibition_at_20_uM>

> <r_inhibition_at_50_uM>
90.2864920436047

> <r_avg_IC50>
5.36883150229248

> <f_inhibition_at_20_uM>
84.433275

> <f_inhibition_at_50_uM>
90.45516

> <f_avg_IC50>
1.79372477414291

> <f_avg_pIC50>
5.74624419353312

> <relative_solubility_at_20_uM>
0.92

> <relative_solubility_at_100_uM>
0.48

> <trypsin_IC50>
99.0

> <NMR_std_ratio>

> <acrylamide>
False

> <chloroacetamide>
False

> <series>
3-aminopyridine-like

> <clash_score>
0.0

$$$$
BENZO_1_1
  -OEChem-08232013433D

 51 54  0     0  0  0  0  0  0999 V2000
   14.3764    1.1025   23.4960 C   0  0  0  0  0  0  0  0  0  0  0  0
   13.6698    0.4636   24.5149 C   0  0  0  0  0  0  0  0  0  0  0  0
   13.6899    1.8059   22.5062 C   0  0  0  0  0  0  0  0  0  0  0  0
    3.9160    2.0630   19.5520 C   0  0  0  0  0  0  0  0  0  0  0  0
    4.2750    1.7050   20.8490 C   0  0  0  0  0  0  0  0  0  0  0  0
   12.2767    0.5278   24.5438 C   0  0  0  0  0  0  0  0  0  0  0  0
   12.2969    1.8701   22.5351 C   0  0  0  0  0  0  0  0  0  0  0  0
    4.6890    1.6810   18.4640 C   0  0  0  0  0  0  0  0  0  0  0  0
    5.4210    0.9600   21.0930 C   0  0  0  0  0  0  0  0  0  0  0  0
    9.0720   -1.1280   24.8640 C   0  0  0  0  0  0  0  0  0  0  0  0
    9.7200   -2.2600   22.8630 C   0  0  0  0  0  0  0  0  0  0  0  0
    8.9960   -2.3380   25.5320 C   0  0  0  0  0  0  0  0  0  0  0  0
    9.6730   -3.4710   23.5300 C   0  0  0  0  0  0  0  0  0  0  0  0
   11.5902    1.2311   23.5539 C   0  0  0  0  0  0  0  0  0  0  0  0
    5.8300    0.9190   18.6970 C   0  0  0  0  0  0  0  0  0  0  0  0
    6.1790    0.5730   19.9990 C   0  0  0  0  0  0  0  0  0  0  0  0
    9.3350   -1.0880   23.5010 C   0  0  0  0  0  0  0  0  0  0  0  0
    9.3070   -3.5340   24.8780 C   0  0  0  0  0  0  0  0  0  0  0  0
    9.0420    0.3700   21.5280 C   0  0  0  0  0  0  0  0  0  0  0  0
    8.8742   -4.8064   26.9496 C   0  0  0  0  0  0  0  0  0  0  0  0
    9.5655   -5.9897   24.8591 C   0  0  0  0  0  0  0  0  0  0  0  0
   10.0907    1.3005   23.5844 C   0  0  0  0  0  0  0  0  0  0  0  0
    6.7580    0.3810   17.8350 N   0  0  0  0  0  0  0  0  0  0  0  0
    7.6390   -0.2680   18.5410 N   0  0  0  0  0  0  0  0  0  0  0  0
    7.3170   -0.1610   19.8550 N   0  0  0  0  0  0  0  0  0  0  0  0
    8.1890   -0.7180   20.8700 N   0  0  0  0  0  0  0  0  0  0  0  0
    9.4560    0.1560   22.8130 N   0  0  0  0  0  0  0  0  0  0  0  0
    9.2543   -4.7552   25.5519 N   0  0  0  0  0  0  0  0  0  0  0  0
    9.2690    1.4140   20.9380 O   0  0  0  0  0  0  0  0  0  0  0  0
   15.4612    1.0535   23.4744 H   0  0  0  0  0  0  0  0  0  0  0  0
   14.2042   -0.0832   25.2863 H   0  0  0  0  0  0  0  0  0  0  0  0
   14.2398    2.3044   21.7134 H   0  0  0  0  0  0  0  0  0  0  0  0
    3.0136    2.6526   19.3908 H   0  0  0  0  0  0  0  0  0  0  0  0
    3.6480    2.0140   21.6821 H   0  0  0  0  0  0  0  0  0  0  0  0
   11.7344    0.0268   25.3414 H   0  0  0  0  0  0  0  0  0  0  0  0
   11.7705    2.4203   21.7596 H   0  0  0  0  0  0  0  0  0  0  0  0
    4.4042    1.9741   17.4524 H   0  0  0  0  0  0  0  0  0  0  0  0
    5.7089    0.6919   22.1150 H   0  0  0  0  0  0  0  0  0  0  0  0
    8.9217   -0.1995   25.4232 H   0  0  0  0  0  0  0  0  0  0  0  0
   10.0643   -2.2341   21.8254 H   0  0  0  0  0  0  0  0  0  0  0  0
    8.6893   -2.3540   26.5808 H   0  0  0  0  0  0  0  0  0  0  0  0
    9.9257   -4.3898   22.9921 H   0  0  0  0  0  0  0  0  0  0  0  0
    8.8922   -5.8499   27.2971 H   0  0  0  0  0  0  0  0  0  0  0  0
    9.5819   -4.2099   27.5440 H   0  0  0  0  0  0  0  0  0  0  0  0
    7.8599   -4.3978   27.0688 H   0  0  0  0  0  0  0  0  0  0  0  0
    9.4683   -6.8360   25.5551 H   0  0  0  0  0  0  0  0  0  0  0  0
    8.8685   -6.1243   24.0189 H   0  0  0  0  0  0  0  0  0  0  0  0
   10.5962   -5.9459   24.4771 H   0  0  0  0  0  0  0  0  0  0  0  0
    9.7235    1.2669   24.6159 H   0  0  0  0  0  0  0  0  0  0  0  0
    9.7315    2.2355   23.1416 H   0  0  0  0  0  0  0  0  0  0  0  0
    8.2278   -1.5705   21.0849 H   0  0  0  0  0  0  0  0  0  0  0  0
  1  2  1  0  0  0  0
  1  3  2  0  0  0  0
  2  6  2  0  0  0  0
  3  7  1  0  0  0  0
  4  5  1  0  0  0  0
  4  8  2  0  0  0  0
  5  9  2  0  0  0  0
  6 14  1  0  0  0  0
  7 14  2  0  0  0  0
  8 15  1  0  0  0  0
  9 16  1  0  0  0  0
 10 12  2  0  0  0  0
 10 17  1  0  0  0  0
 11 13  1  0  0  0  0
 11 17  2  0  0  0  0
 12 18  1  0  0  0  0
 13 18  2  0  0  0  0
 14 22  1  0  0  0  0
 15 16  2  0  0  0  0
 15 23  1  0  0  0  0
 16 25  1  0  0  0  0
 17 27  1  0  0  0  0
 18 28  1  0  0  0  0
 19 26  1  0  0  0  0
 19 27  1  0  0  0  0
 19 29  2  0  0  0  0
 20 28  1  0  0  0  0
 21 28  1  0  0  0  0
 22 27  1  0  0  0  0
 23 24  2  0  0  0  0
 24 25  1  0  0  0  0
 25 26  1  0  0  0  0
  1 30  1  0  0  0  0
  2 31  1  0  0  0  0
  3 32  1  0  0  0  0
  4 33  1  0  0  0  0
  5 34  1  0  0  0  0
  6 35  1  0  0  0  0
  7 36  1  0  0  0  0
  8 37  1  0  0  0  0
  9 38  1  0  0  0  0
 10 39  1  0  0  0  0
 11 40  1  0  0  0  0
 12 41  1  0  0  0  0
 13 42  1  0  0  0  0
 20 43  1  0  0  0  0
 20 44  1  0  0  0  0
 20 45  1  0  0  0  0
 21 46  1  0  0  0  0
 21 47  1  0  0  0  0
 21 48  1  0  0  0  0
 22 49  1  0  0  0  0
 22 50  1  0  0  0  0
 26 51  1  0  0  0  0
M  END
> <clash_score>
0

> <docking_score>
-8.897452354431152

> <overlap_score>
0.9840436577796936

$$$$
BENZO_5_1
  -OEChem-08232013433D

 53 56  0     0  0  0  0  0  0999 V2000
   14.3764    1.1025   23.4960 C   0  0  0  0  0  0  0  0  0  0  0  0
   13.6698    0.4636   24.5149 C   0  0  0  0  0  0  0  0  0  0  0  0
   13.6899    1.8059   22.5062 C   0  0  0  0  0  0  0  0  0  0  0  0
    3.9160    2.0630   19.5520 C   0  0  0  0  0  0  0  0  0  0  0  0
    4.2750    1.7050   20.8490 C   0  0  0  0  0  0  0  0  0  0  0  0
   12.2767    0.5278   24.5438 C   0  0  0  0  0  0  0  0  0  0  0  0
   12.2969    1.8701   22.5351 C   0  0  0  0  0  0  0  0  0  0  0  0
    4.6890    1.6810   18.4640 C   0  0  0  0  0  0  0  0  0  0  0  0
    5.4210    0.9600   21.0930 C   0  0  0  0  0  0  0  0  0  0  0  0
    8.9960   -2.3380   25.5320 C   0  0  0  0  0  0  0  0  0  0  0  0
    9.6730   -3.4710   23.5300 C   0  0  0  0  0  0  0  0  0  0  0  0
    9.0720   -1.1280   24.8640 C   0  0  0  0  0  0  0  0  0  0  0  0
    9.7200   -2.2600   22.8630 C   0  0  0  0  0  0  0  0  0  0  0  0
   11.5902    1.2311   23.5539 C   0  0  0  0  0  0  0  0  0  0  0  0
    5.8300    0.9190   18.6970 C   0  0  0  0  0  0  0  0  0  0  0  0
    6.1790    0.5730   19.9990 C   0  0  0  0  0  0  0  0  0  0  0  0
    9.3070   -3.5340   24.8780 C   0  0  0  0  0  0  0  0  0  0  0  0
    9.3350   -1.0880   23.5010 C   0  0  0  0  0  0  0  0  0  0  0  0
    9.5333   -6.0236   25.0414 C   0  0  0  0  0  0  0  0  0  0  0  0
    9.0420    0.3700   21.5280 C   0  0  0  0  0  0  0  0  0  0  0  0
    7.9318   -7.6183   26.1806 C   0  0  0  0  0  0  0  0  0  0  0  0
   10.0907    1.3005   23.5844 C   0  0  0  0  0  0  0  0  0  0  0  0
    9.3522   -7.0865   26.1149 C   0  0  0  0  0  0  0  0  0  0  0  0
    6.7580    0.3810   17.8350 N   0  0  0  0  0  0  0  0  0  0  0  0
    7.6390   -0.2680   18.5410 N   0  0  0  0  0  0  0  0  0  0  0  0
    7.3170   -0.1610   19.8550 N   0  0  0  0  0  0  0  0  0  0  0  0
    9.2546   -4.7422   25.5438 N   0  0  0  0  0  0  0  0  0  0  0  0
    8.1890   -0.7180   20.8700 N   0  0  0  0  0  0  0  0  0  0  0  0
    9.4560    0.1560   22.8130 N   0  0  0  0  0  0  0  0  0  0  0  0
    9.8805   -6.3053   23.8992 O   0  0  0  0  0  0  0  0  0  0  0  0
    9.2690    1.4140   20.9380 O   0  0  0  0  0  0  0  0  0  0  0  0
   15.4612    1.0535   23.4744 H   0  0  0  0  0  0  0  0  0  0  0  0
   14.2042   -0.0832   25.2863 H   0  0  0  0  0  0  0  0  0  0  0  0
   14.2398    2.3044   21.7134 H   0  0  0  0  0  0  0  0  0  0  0  0
    3.0136    2.6526   19.3908 H   0  0  0  0  0  0  0  0  0  0  0  0
    3.6480    2.0140   21.6821 H   0  0  0  0  0  0  0  0  0  0  0  0
   11.7344    0.0268   25.3414 H   0  0  0  0  0  0  0  0  0  0  0  0
   11.7705    2.4203   21.7596 H   0  0  0  0  0  0  0  0  0  0  0  0
    4.4042    1.9741   17.4524 H   0  0  0  0  0  0  0  0  0  0  0  0
    5.7089    0.6919   22.1150 H   0  0  0  0  0  0  0  0  0  0  0  0
    8.6895   -2.3529   26.5807 H   0  0  0  0  0  0  0  0  0  0  0  0
    9.9262   -4.3897   22.9916 H   0  0  0  0  0  0  0  0  0  0  0  0
    8.9224   -0.1998   25.4238 H   0  0  0  0  0  0  0  0  0  0  0  0
   10.0649   -2.2343   21.8258 H   0  0  0  0  0  0  0  0  0  0  0  0
    7.2195   -6.8130   26.3882 H   0  0  0  0  0  0  0  0  0  0  0  0
    7.8416   -8.3674   26.9733 H   0  0  0  0  0  0  0  0  0  0  0  0
    7.6429   -8.0860   25.2335 H   0  0  0  0  0  0  0  0  0  0  0  0
    9.7235    1.2669   24.6159 H   0  0  0  0  0  0  0  0  0  0  0  0
    9.7315    2.2355   23.1416 H   0  0  0  0  0  0  0  0  0  0  0  0
   10.0423   -7.9121   25.9063 H   0  0  0  0  0  0  0  0  0  0  0  0
    9.6252   -6.6522   27.0836 H   0  0  0  0  0  0  0  0  0  0  0  0
    8.9776   -4.7057   26.5317 H   0  0  0  0  0  0  0  0  0  0  0  0
    8.2278   -1.5705   21.0849 H   0  0  0  0  0  0  0  0  0  0  0  0
  1  2  1  0  0  0  0
  1  3  2  0  0  0  0
  2  6  2  0  0  0  0
  3  7  1  0  0  0  0
  4  5  1  0  0  0  0
  4  8  2  0  0  0  0
  5  9  2  0  0  0  0
  6 14  1  0  0  0  0
  7 14  2  0  0  0  0
  8 15  1  0  0  0  0
  9 16  1  0  0  0  0
 10 12  2  0  0  0  0
 10 17  1  0  0  0  0
 11 13  1  0  0  0  0
 11 17  2  0  0  0  0
 12 18  1  0  0  0  0
 13 18  2  0  0  0  0
 14 22  1  0  0  0  0
 15 16  2  0  0  0  0
 15 24  1  0  0  0  0
 16 26  1  0  0  0  0
 17 27  1  0  0  0  0
 18 29  1  0  0  0  0
 19 23  1  0  0  0  0
 19 27  1  0  0  0  0
 19 30  2  0  0  0  0
 20 28  1  0  0  0  0
 20 29  1  0  0  0  0
 20 31  2  0  0  0  0
 21 23  1  0  0  0  0
 22 29  1  0  0  0  0
 24 25  2  0  0  0  0
 25 26  1  0  0  0  0
 26 28  1  0  0  0  0
  1 32  1  0  0  0  0
  2 33  1  0  0  0  0
  3 34  1  0  0  0  0
  4 35  1  0  0  0  0
  5 36  1  0  0  0  0
  6 37  1  0  0  0  0
  7 38  1  0  0  0  0
  8 39  1  0  0  0  0
  9 40  1  0  0  0  0
 10 41  1  0  0  0  0
 11 42  1  0  0  0  0
 12 43  1  0  0  0  0
 13 44  1  0  0  0  0
 21 45  1  0  0  0  0
 21 46  1  0  0  0  0
 21 47  1  0  0  0  0
 22 48  1  0  0  0  0
 22 49  1  0  0  0  0
 23 50  1  0  0  0  0
 23 51  1  0  0  0  0
 27 52  1  0  0  0  0
 28 53  1  0  0  0  0
M  END
> <clash_score>
0.6914437827583062

> <docking_score>
-5.970273971557617

> <overlap_score>
0.980309009552002

$$$$
BENZO_3_1
  -OEChem-08232013433D

 51 54  0     0  0  0  0  0  0999 V2000
    3.9160    2.0630   19.5520 C   0  0  0  0  0  0  0  0  0  0  0  0
    4.2750    1.7050   20.8490 C   0  0  0  0  0  0  0  0  0  0  0  0
    4.6890    1.6810   18.4640 C   0  0  0  0  0  0  0  0  0  0  0  0
    5.4210    0.9600   21.0930 C   0  0  0  0  0  0  0  0  0  0  0  0
    9.0720   -1.1280   24.8640 C   0  0  0  0  0  0  0  0  0  0  0  0
    9.7200   -2.2600   22.8630 C   0  0  0  0  0  0  0  0  0  0  0  0
    8.9960   -2.3380   25.5320 C   0  0  0  0  0  0  0  0  0  0  0  0
    9.6730   -3.4710   23.5300 C   0  0  0  0  0  0  0  0  0  0  0  0
   12.4759    2.0148   22.7903 C   0  0  0  0  0  0  0  0  0  0  0  0
   12.4062    0.3887   24.2687 C   0  0  0  0  0  0  0  0  0  0  0  0
   11.5902    1.2311   23.5539 C   0  0  0  0  0  0  0  0  0  0  0  0
    5.8300    0.9190   18.6970 C   0  0  0  0  0  0  0  0  0  0  0  0
    6.1790    0.5730   19.9990 C   0  0  0  0  0  0  0  0  0  0  0  0
    9.3350   -1.0880   23.5010 C   0  0  0  0  0  0  0  0  0  0  0  0
    9.3070   -3.5340   24.8780 C   0  0  0  0  0  0  0  0  0  0  0  0
    9.0420    0.3700   21.5280 C   0  0  0  0  0  0  0  0  0  0  0  0
   14.8909    0.0887   24.3922 C   0  0  0  0  0  0  0  0  0  0  0  0
    8.0128   -5.2151   26.1416 C   0  0  0  0  0  0  0  0  0  0  0  0
   10.4372   -5.5860   25.6589 C   0  0  0  0  0  0  0  0  0  0  0  0
   10.0907    1.3005   23.5844 C   0  0  0  0  0  0  0  0  0  0  0  0
   13.7565    1.6985   23.0003 N   0  0  0  0  0  0  0  0  0  0  0  0
    6.7580    0.3810   17.8350 N   0  0  0  0  0  0  0  0  0  0  0  0
    7.6390   -0.2680   18.5410 N   0  0  0  0  0  0  0  0  0  0  0  0
   13.6814    0.7068   23.9042 N   0  0  0  0  0  0  0  0  0  0  0  0
    7.3170   -0.1610   19.8550 N   0  0  0  0  0  0  0  0  0  0  0  0
    8.1890   -0.7180   20.8700 N   0  0  0  0  0  0  0  0  0  0  0  0
    9.4560    0.1560   22.8130 N   0  0  0  0  0  0  0  0  0  0  0  0
    9.2543   -4.7552   25.5519 N   0  0  0  0  0  0  0  0  0  0  0  0
    9.2690    1.4140   20.9380 O   0  0  0  0  0  0  0  0  0  0  0  0
    3.0136    2.6526   19.3908 H   0  0  0  0  0  0  0  0  0  0  0  0
    3.6480    2.0140   21.6821 H   0  0  0  0  0  0  0  0  0  0  0  0
    4.4042    1.9741   17.4524 H   0  0  0  0  0  0  0  0  0  0  0  0
    5.7089    0.6919   22.1150 H   0  0  0  0  0  0  0  0  0  0  0  0
    8.9217   -0.1995   25.4232 H   0  0  0  0  0  0  0  0  0  0  0  0
   10.0643   -2.2341   21.8254 H   0  0  0  0  0  0  0  0  0  0  0  0
    8.6893   -2.3540   26.5808 H   0  0  0  0  0  0  0  0  0  0  0  0
    9.9257   -4.3898   22.9921 H   0  0  0  0  0  0  0  0  0  0  0  0
   12.2440    2.8044   22.0895 H   0  0  0  0  0  0  0  0  0  0  0  0
   12.1934   -0.3899   24.9887 H   0  0  0  0  0  0  0  0  0  0  0  0
   15.1275   -0.7534   23.7365 H   0  0  0  0  0  0  0  0  0  0  0  0
   15.7032    0.8207   24.3827 H   0  0  0  0  0  0  0  0  0  0  0  0
   14.7319   -0.2566   25.4175 H   0  0  0  0  0  0  0  0  0  0  0  0
    8.1744   -6.1904   26.6238 H   0  0  0  0  0  0  0  0  0  0  0  0
    7.6718   -4.4870   26.8924 H   0  0  0  0  0  0  0  0  0  0  0  0
    7.2494   -5.3166   25.3561 H   0  0  0  0  0  0  0  0  0  0  0  0
   10.1947   -6.4995   26.2216 H   0  0  0  0  0  0  0  0  0  0  0  0
   10.7865   -5.8577   24.6518 H   0  0  0  0  0  0  0  0  0  0  0  0
   11.2285   -5.0312   26.1842 H   0  0  0  0  0  0  0  0  0  0  0  0
    9.7235    1.2669   24.6159 H   0  0  0  0  0  0  0  0  0  0  0  0
    9.7315    2.2355   23.1416 H   0  0  0  0  0  0  0  0  0  0  0  0
    8.2278   -1.5705   21.0849 H   0  0  0  0  0  0  0  0  0  0  0  0
  1  2  1  0  0  0  0
  1  3  2  0  0  0  0
  2  4  2  0  0  0  0
  3 12  1  0  0  0  0
  4 13  1  0  0  0  0
  5  7  2  0  0  0  0
  5 14  1  0  0  0  0
  6  8  1  0  0  0  0
  6 14  2  0  0  0  0
  7 15  1  0  0  0  0
  8 15  2  0  0  0  0
  9 11  1  0  0  0  0
  9 21  2  0  0  0  0
 10 11  2  0  0  0  0
 10 24  1  0  0  0  0
 11 20  1  0  0  0  0
 12 13  2  0  0  0  0
 12 22  1  0  0  0  0
 13 25  1  0  0  0  0
 14 27  1  0  0  0  0
 15 28  1  0  0  0  0
 16 26  1  0  0  0  0
 16 27  1  0  0  0  0
 16 29  2  0  0  0  0
 17 24  1  0  0  0  0
 18 28  1  0  0  0  0
 19 28  1  0  0  0  0
 20 27  1  0  0  0  0
 21 24  1  0  0  0  0
 22 23  2  0  0  0  0
 23 25  1  0  0  0  0
 25 26  1  0  0  0  0
  1 30  1  0  0  0  0
  2 31  1  0  0  0  0
  3 32  1  0  0  0  0
  4 33  1  0  0  0  0
  5 34  1  0  0  0  0
  6 35  1  0  0  0  0
  7 36  1  0  0  0  0
  8 37  1  0  0  0  0
  9 38  1  0  0  0  0
 10 39  1  0  0  0  0
 17 40  1  0  0  0  0
 17 41  1  0  0  0  0
 17 42  1  0  0  0  0
 18 43  1  0  0  0  0
 18 44  1  0  0  0  0
 18 45  1  0  0  0  0
 19 46  1  0  0  0  0
 19 47  1  0  0  0  0
 19 48  1  0  0  0  0
 20 49  1  0  0  0  0
 20 50  1  0  0  0  0
 26 51  1  0  0  0  0
M  END
> <clash_score>
0

> <docking_score>
-9.05397891998291

> <overlap_score>
0.9809170961380005

$$$$
BENZO_0_1
  -OEChem-08232013433D

 48 51  0     0  0  0  0  0  0999 V2000
    3.9160    2.0630   19.5520 C   0  0  0  0  0  0  0  0  0  0  0  0
    4.2750    1.7050   20.8490 C   0  0  0  0  0  0  0  0  0  0  0  0
    4.6890    1.6810   18.4640 C   0  0  0  0  0  0  0  0  0  0  0  0
    5.4210    0.9600   21.0930 C   0  0  0  0  0  0  0  0  0  0  0  0
    9.0720   -1.1280   24.8640 C   0  0  0  0  0  0  0  0  0  0  0  0
    9.7200   -2.2600   22.8630 C   0  0  0  0  0  0  0  0  0  0  0  0
    8.9960   -2.3380   25.5320 C   0  0  0  0  0  0  0  0  0  0  0  0
    9.6730   -3.4710   23.5300 C   0  0  0  0  0  0  0  0  0  0  0  0
   12.4395    2.3744   23.5961 C   0  0  0  0  0  0  0  0  0  0  0  0
   13.7727    2.0304   23.5542 C   0  0  0  0  0  0  0  0  0  0  0  0
   12.3068    0.0567   23.4811 C   0  0  0  0  0  0  0  0  0  0  0  0
   11.5902    1.2311   23.5539 C   0  0  0  0  0  0  0  0  0  0  0  0
    5.8300    0.9190   18.6970 C   0  0  0  0  0  0  0  0  0  0  0  0
    6.1790    0.5730   19.9990 C   0  0  0  0  0  0  0  0  0  0  0  0
    9.3350   -1.0880   23.5010 C   0  0  0  0  0  0  0  0  0  0  0  0
    9.3070   -3.5340   24.8780 C   0  0  0  0  0  0  0  0  0  0  0  0
    9.0420    0.3700   21.5280 C   0  0  0  0  0  0  0  0  0  0  0  0
    8.0128   -5.2151   26.1416 C   0  0  0  0  0  0  0  0  0  0  0  0
   10.4372   -5.5860   25.6589 C   0  0  0  0  0  0  0  0  0  0  0  0
   10.0907    1.3005   23.5844 C   0  0  0  0  0  0  0  0  0  0  0  0
    6.7580    0.3810   17.8350 N   0  0  0  0  0  0  0  0  0  0  0  0
    7.6390   -0.2680   18.5410 N   0  0  0  0  0  0  0  0  0  0  0  0
    7.3170   -0.1610   19.8550 N   0  0  0  0  0  0  0  0  0  0  0  0
    8.1890   -0.7180   20.8700 N   0  0  0  0  0  0  0  0  0  0  0  0
    9.4560    0.1560   22.8130 N   0  0  0  0  0  0  0  0  0  0  0  0
    9.2543   -4.7552   25.5519 N   0  0  0  0  0  0  0  0  0  0  0  0
    9.2690    1.4140   20.9380 O   0  0  0  0  0  0  0  0  0  0  0  0
   13.9963    0.3350   23.4642 S   0  0  0  0  0  0  0  0  0  0  0  0
    3.0136    2.6526   19.3908 H   0  0  0  0  0  0  0  0  0  0  0  0
    3.6480    2.0140   21.6821 H   0  0  0  0  0  0  0  0  0  0  0  0
    4.4042    1.9741   17.4524 H   0  0  0  0  0  0  0  0  0  0  0  0
    5.7089    0.6919   22.1150 H   0  0  0  0  0  0  0  0  0  0  0  0
    8.9217   -0.1995   25.4232 H   0  0  0  0  0  0  0  0  0  0  0  0
   10.0643   -2.2341   21.8254 H   0  0  0  0  0  0  0  0  0  0  0  0
    8.6893   -2.3540   26.5808 H   0  0  0  0  0  0  0  0  0  0  0  0
    9.9257   -4.3898   22.9921 H   0  0  0  0  0  0  0  0  0  0  0  0
   12.0943    3.3990   23.6539 H   0  0  0  0  0  0  0  0  0  0  0  0
   14.6262    2.6934   23.5714 H   0  0  0  0  0  0  0  0  0  0  0  0
   11.9230   -0.9530   23.4357 H   0  0  0  0  0  0  0  0  0  0  0  0
    8.1744   -6.1904   26.6238 H   0  0  0  0  0  0  0  0  0  0  0  0
    7.6718   -4.4870   26.8924 H   0  0  0  0  0  0  0  0  0  0  0  0
    7.2494   -5.3166   25.3561 H   0  0  0  0  0  0  0  0  0  0  0  0
   10.1947   -6.4995   26.2216 H   0  0  0  0  0  0  0  0  0  0  0  0
   10.7865   -5.8577   24.6518 H   0  0  0  0  0  0  0  0  0  0  0  0
   11.2285   -5.0312   26.1842 H   0  0  0  0  0  0  0  0  0  0  0  0
    9.7235    1.2669   24.6159 H   0  0  0  0  0  0  0  0  0  0  0  0
    9.7315    2.2355   23.1416 H   0  0  0  0  0  0  0  0  0  0  0  0
    8.2278   -1.5705   21.0849 H   0  0  0  0  0  0  0  0  0  0  0  0
  1  2  1  0  0  0  0
  1  3  2  0  0  0  0
  2  4  2  0  0  0  0
  3 13  1  0  0  0  0
  4 14  1  0  0  0  0
  5  7  2  0  0  0  0
  5 15  1  0  0  0  0
  6  8  1  0  0  0  0
  6 15  2  0  0  0  0
  7 16  1  0  0  0  0
  8 16  2  0  0  0  0
  9 10  2  0  0  0  0
  9 12  1  0  0  0  0
 10 28  1  0  0  0  0
 11 12  2  0  0  0  0
 11 28  1  0  0  0  0
 12 20  1  0  0  0  0
 13 14  2  0  0  0  0
 13 21  1  0  0  0  0
 14 23  1  0  0  0  0
 15 25  1  0  0  0  0
 16 26  1  0  0  0  0
 17 24  1  0  0  0  0
 17 25  1  0  0  0  0
 17 27  2  0  0  0  0
 18 26  1  0  0  0  0
 19 26  1  0  0  0  0
 20 25  1  0  0  0  0
 21 22  2  0  0  0  0
 22 23  1  0  0  0  0
 23 24  1  0  0  0  0
  1 29  1  0  0  0  0
  2 30  1  0  0  0  0
  3 31  1  0  0  0  0
  4 32  1  0  0  0  0
  5 33  1  0  0  0  0
  6 34  1  0  0  0  0
  7 35  1  0  0  0  0
  8 36  1  0  0  0  0
  9 37  1  0  0  0  0
 10 38  1  0  0  0  0
 11 39  1  0  0  0  0
 18 40  1  0  0  0  0
 18 41  1  0  0  0  0
 18 42  1  0  0  0  0
 19 43  1  0  0  0  0
 19 44  1  0  0  0  0
 19 45  1  0  0  0  0
 20 46  1  0  0  0  0
 20 47  1  0  0  0  0
 24 48  1  0  0  0  0
M  END
> <clash_score>
0

> <docking_score>
-8.816954612731934

> <overlap_score>
0.9715030789375305

$$$$
BENZO_7_1
  -OEChem-08232013433D

 53 56  0     0  0  0  0  0  0999 V2000
    3.9160    2.0630   19.5520 C   0  0  0  0  0  0  0  0  0  0  0  0
    4.2750    1.7050   20.8490 C   0  0  0  0  0  0  0  0  0  0  0  0
    4.6890    1.6810   18.4640 C   0  0  0  0  0  0  0  0  0  0  0  0
    5.4210    0.9600   21.0930 C   0  0  0  0  0  0  0  0  0  0  0  0
    8.9960   -2.3380   25.5320 C   0  0  0  0  0  0  0  0  0  0  0  0
    9.6730   -3.4710   23.5300 C   0  0  0  0  0  0  0  0  0  0  0  0
    9.0720   -1.1280   24.8640 C   0  0  0  0  0  0  0  0  0  0  0  0
    9.7200   -2.2600   22.8630 C   0  0  0  0  0  0  0  0  0  0  0  0
   12.4759    2.0148   22.7903 C   0  0  0  0  0  0  0  0  0  0  0  0
   12.4062    0.3887   24.2687 C   0  0  0  0  0  0  0  0  0  0  0  0
   11.5902    1.2311   23.5539 C   0  0  0  0  0  0  0  0  0  0  0  0
    5.8300    0.9190   18.6970 C   0  0  0  0  0  0  0  0  0  0  0  0
    6.1790    0.5730   19.9990 C   0  0  0  0  0  0  0  0  0  0  0  0
    9.3070   -3.5340   24.8780 C   0  0  0  0  0  0  0  0  0  0  0  0
    9.3350   -1.0880   23.5010 C   0  0  0  0  0  0  0  0  0  0  0  0
    9.5333   -6.0236   25.0414 C   0  0  0  0  0  0  0  0  0  0  0  0
    9.0420    0.3700   21.5280 C   0  0  0  0  0  0  0  0  0  0  0  0
   10.6330   -7.3746   26.8775 C   0  0  0  0  0  0  0  0  0  0  0  0
   14.8909    0.0887   24.3922 C   0  0  0  0  0  0  0  0  0  0  0  0
   10.0907    1.3005   23.5844 C   0  0  0  0  0  0  0  0  0  0  0  0
    9.3522   -7.0865   26.1149 C   0  0  0  0  0  0  0  0  0  0  0  0
   13.7565    1.6985   23.0003 N   0  0  0  0  0  0  0  0  0  0  0  0
    6.7580    0.3810   17.8350 N   0  0  0  0  0  0  0  0  0  0  0  0
    7.6390   -0.2680   18.5410 N   0  0  0  0  0  0  0  0  0  0  0  0
   13.6814    0.7068   23.9042 N   0  0  0  0  0  0  0  0  0  0  0  0
    7.3170   -0.1610   19.8550 N   0  0  0  0  0  0  0  0  0  0  0  0
    9.2546   -4.7422   25.5438 N   0  0  0  0  0  0  0  0  0  0  0  0
    8.1890   -0.7180   20.8700 N   0  0  0  0  0  0  0  0  0  0  0  0
    9.4560    0.1560   22.8130 N   0  0  0  0  0  0  0  0  0  0  0  0
    9.8805   -6.3053   23.8992 O   0  0  0  0  0  0  0  0  0  0  0  0
    9.2690    1.4140   20.9380 O   0  0  0  0  0  0  0  0  0  0  0  0
    3.0136    2.6526   19.3908 H   0  0  0  0  0  0  0  0  0  0  0  0
    3.6480    2.0140   21.6821 H   0  0  0  0  0  0  0  0  0  0  0  0
    4.4042    1.9741   17.4524 H   0  0  0  0  0  0  0  0  0  0  0  0
    5.7089    0.6919   22.1150 H   0  0  0  0  0  0  0  0  0  0  0  0
    8.6895   -2.3529   26.5807 H   0  0  0  0  0  0  0  0  0  0  0  0
    9.9262   -4.3897   22.9916 H   0  0  0  0  0  0  0  0  0  0  0  0
    8.9224   -0.1998   25.4238 H   0  0  0  0  0  0  0  0  0  0  0  0
   10.0649   -2.2343   21.8258 H   0  0  0  0  0  0  0  0  0  0  0  0
   12.2440    2.8044   22.0895 H   0  0  0  0  0  0  0  0  0  0  0  0
   12.1934   -0.3899   24.9887 H   0  0  0  0  0  0  0  0  0  0  0  0
   11.4241   -7.7171   26.2024 H   0  0  0  0  0  0  0  0  0  0  0  0
   10.4628   -8.1530   27.6277 H   0  0  0  0  0  0  0  0  0  0  0  0
   10.9949   -6.4779   27.3911 H   0  0  0  0  0  0  0  0  0  0  0  0
   15.1275   -0.7534   23.7365 H   0  0  0  0  0  0  0  0  0  0  0  0
   15.7032    0.8207   24.3827 H   0  0  0  0  0  0  0  0  0  0  0  0
   14.7319   -0.2566   25.4175 H   0  0  0  0  0  0  0  0  0  0  0  0
    9.7235    1.2669   24.6159 H   0  0  0  0  0  0  0  0  0  0  0  0
    9.7315    2.2355   23.1416 H   0  0  0  0  0  0  0  0  0  0  0  0
    8.5795   -6.7463   26.8138 H   0  0  0  0  0  0  0  0  0  0  0  0
    8.9965   -8.0064   25.6368 H   0  0  0  0  0  0  0  0  0  0  0  0
    8.9776   -4.7057   26.5317 H   0  0  0  0  0  0  0  0  0  0  0  0
    8.2278   -1.5705   21.0849 H   0  0  0  0  0  0  0  0  0  0  0  0
  1  2  1  0  0  0  0
  1  3  2  0  0  0  0
  2  4  2  0  0  0  0
  3 12  1  0  0  0  0
  4 13  1  0  0  0  0
  5  7  2  0  0  0  0
  5 14  1  0  0  0  0
  6  8  1  0  0  0  0
  6 14  2  0  0  0  0
  7 15  1  0  0  0  0
  8 15  2  0  0  0  0
  9 11  1  0  0  0  0
  9 22  2  0  0  0  0
 10 11  2  0  0  0  0
 10 25  1  0  0  0  0
 11 20  1  0  0  0  0
 12 13  2  0  0  0  0
 12 23  1  0  0  0  0
 13 26  1  0  0  0  0
 14 27  1  0  0  0  0
 15 29  1  0  0  0  0
 16 21  1  0  0  0  0
 16 27  1  0  0  0  0
 16 30  2  0  0  0  0
 17 28  1  0  0  0  0
 17 29  1  0  0  0  0
 17 31  2  0  0  0  0
 18 21  1  0  0  0  0
 19 25  1  0  0  0  0
 20 29  1  0  0  0  0
 22 25  1  0  0  0  0
 23 24  2  0  0  0  0
 24 26  1  0  0  0  0
 26 28  1  0  0  0  0
  1 32  1  0  0  0  0
  2 33  1  0  0  0  0
  3 34  1  0  0  0  0
  4 35  1  0  0  0  0
  5 36  1  0  0  0  0
  6 37  1  0  0  0  0
  7 38  1  0  0  0  0
  8 39  1  0  0  0  0
  9 40  1  0  0  0  0
 10 41  1  0  0  0  0
 18 42  1  0  0  0  0
 18 43  1  0  0  0  0
 18 44  1  0  0  0  0
 19 45  1  0  0  0  0
 19 46  1  0  0  0  0
 19 47  1  0  0  0  0
 20 48  1  0  0  0  0
 20 49  1  0  0  0  0
 21 50  1  0  0  0  0
 21 51  1  0  0  0  0
 27 52  1  0  0  0  0
 28 53  1  0  0  0  0
M  END
> <clash_score>
1.498663752905594

> <docking_score>
-5.859702110290527

> <overlap_score>
0.983124315738678

$$$$
BENZO_2_1
  -OEChem-08232013433D

 51 54  0     0  0  0  0  0  0999 V2000
    3.9160    2.0630   19.5520 C   0  0  0  0  0  0  0  0  0  0  0  0
    4.2750    1.7050   20.8490 C   0  0  0  0  0  0  0  0  0  0  0  0
   13.7042    2.0311   22.7008 C   0  0  0  0  0  0  0  0  0  0  0  0
   12.3111    2.0942   22.7287 C   0  0  0  0  0  0  0  0  0  0  0  0
    4.6890    1.6810   18.4640 C   0  0  0  0  0  0  0  0  0  0  0  0
    5.4210    0.9600   21.0930 C   0  0  0  0  0  0  0  0  0  0  0  0
    9.0720   -1.1280   24.8640 C   0  0  0  0  0  0  0  0  0  0  0  0
    9.7200   -2.2600   22.8630 C   0  0  0  0  0  0  0  0  0  0  0  0
    8.9960   -2.3380   25.5320 C   0  0  0  0  0  0  0  0  0  0  0  0
    9.6730   -3.4710   23.5300 C   0  0  0  0  0  0  0  0  0  0  0  0
   14.3765    1.1047   23.4981 C   0  0  0  0  0  0  0  0  0  0  0  0
   12.2625    0.3048   24.3513 C   0  0  0  0  0  0  0  0  0  0  0  0
   11.5902    1.2311   23.5539 C   0  0  0  0  0  0  0  0  0  0  0  0
    5.8300    0.9190   18.6970 C   0  0  0  0  0  0  0  0  0  0  0  0
    6.1790    0.5730   19.9990 C   0  0  0  0  0  0  0  0  0  0  0  0
    9.3350   -1.0880   23.5010 C   0  0  0  0  0  0  0  0  0  0  0  0
    9.3070   -3.5340   24.8780 C   0  0  0  0  0  0  0  0  0  0  0  0
   13.6556    0.2416   24.3233 C   0  0  0  0  0  0  0  0  0  0  0  0
    9.0420    0.3700   21.5280 C   0  0  0  0  0  0  0  0  0  0  0  0
    8.0128   -5.2151   26.1416 C   0  0  0  0  0  0  0  0  0  0  0  0
   10.4372   -5.5860   25.6589 C   0  0  0  0  0  0  0  0  0  0  0  0
   10.0907    1.3005   23.5844 C   0  0  0  0  0  0  0  0  0  0  0  0
    6.7580    0.3810   17.8350 N   0  0  0  0  0  0  0  0  0  0  0  0
    7.6390   -0.2680   18.5410 N   0  0  0  0  0  0  0  0  0  0  0  0
    7.3170   -0.1610   19.8550 N   0  0  0  0  0  0  0  0  0  0  0  0
    8.1890   -0.7180   20.8700 N   0  0  0  0  0  0  0  0  0  0  0  0
    9.4560    0.1560   22.8130 N   0  0  0  0  0  0  0  0  0  0  0  0
    9.2543   -4.7552   25.5519 N   0  0  0  0  0  0  0  0  0  0  0  0
    9.2690    1.4140   20.9380 O   0  0  0  0  0  0  0  0  0  0  0  0
   14.4857   -0.9003   25.3076 Cl  0  0  0  0  0  0  0  0  0  0  0  0
    3.0136    2.6526   19.3908 H   0  0  0  0  0  0  0  0  0  0  0  0
    3.6480    2.0140   21.6821 H   0  0  0  0  0  0  0  0  0  0  0  0
   14.2652    2.7035   22.0582 H   0  0  0  0  0  0  0  0  0  0  0  0
   11.7956    2.8192   22.1042 H   0  0  0  0  0  0  0  0  0  0  0  0
    4.4042    1.9741   17.4524 H   0  0  0  0  0  0  0  0  0  0  0  0
    5.7089    0.6919   22.1150 H   0  0  0  0  0  0  0  0  0  0  0  0
    8.9217   -0.1995   25.4232 H   0  0  0  0  0  0  0  0  0  0  0  0
   10.0643   -2.2341   21.8254 H   0  0  0  0  0  0  0  0  0  0  0  0
    8.6893   -2.3540   26.5808 H   0  0  0  0  0  0  0  0  0  0  0  0
    9.9257   -4.3898   22.9921 H   0  0  0  0  0  0  0  0  0  0  0  0
   15.4626    1.0670   23.4663 H   0  0  0  0  0  0  0  0  0  0  0  0
   11.6958   -0.3663   24.9926 H   0  0  0  0  0  0  0  0  0  0  0  0
    8.1744   -6.1904   26.6238 H   0  0  0  0  0  0  0  0  0  0  0  0
    7.6718   -4.4870   26.8924 H   0  0  0  0  0  0  0  0  0  0  0  0
    7.2494   -5.3166   25.3561 H   0  0  0  0  0  0  0  0  0  0  0  0
   10.1947   -6.4995   26.2216 H   0  0  0  0  0  0  0  0  0  0  0  0
   10.7865   -5.8577   24.6518 H   0  0  0  0  0  0  0  0  0  0  0  0
   11.2285   -5.0312   26.1842 H   0  0  0  0  0  0  0  0  0  0  0  0
    9.7235    1.2669   24.6159 H   0  0  0  0  0  0  0  0  0  0  0  0
    9.7315    2.2355   23.1416 H   0  0  0  0  0  0  0  0  0  0  0  0
    8.2278   -1.5705   21.0849 H   0  0  0  0  0  0  0  0  0  0  0  0
  1  2  1  0  0  0  0
  1  5  2  0  0  0  0
  2  6  2  0  0  0  0
  3  4  2  0  0  0  0
  3 11  1  0  0  0  0
  4 13  1  0  0  0  0
  5 14  1  0  0  0  0
  6 15  1  0  0  0  0
  7  9  2  0  0  0  0
  7 16  1  0  0  0  0
  8 10  1  0  0  0  0
  8 16  2  0  0  0  0
  9 17  1  0  0  0  0
 10 17  2  0  0  0  0
 11 18  2  0  0  0  0
 12 13  2  0  0  0  0
 12 18  1  0  0  0  0
 13 22  1  0  0  0  0
 14 15  2  0  0  0  0
 14 23  1  0  0  0  0
 15 25  1  0  0  0  0
 16 27  1  0  0  0  0
 17 28  1  0  0  0  0
 18 30  1  0  0  0  0
 19 26  1  0  0  0  0
 19 27  1  0  0  0  0
 19 29  2  0  0  0  0
 20 28  1  0  0  0  0
 21 28  1  0  0  0  0
 22 27  1  0  0  0  0
 23 24  2  0  0  0  0
 24 25  1  0  0  0  0
 25 26  1  0  0  0  0
  1 31  1  0  0  0  0
  2 32  1  0  0  0  0
  3 33  1  0  0  0  0
  4 34  1  0  0  0  0
  5 35  1  0  0  0  0
  6 36  1  0  0  0  0
  7 37  1  0  0  0  0
  8 38  1  0  0  0  0
  9 39  1  0  0  0  0
 10 40  1  0  0  0  0
 11 41  1  0  0  0  0
 12 42  1  0  0  0  0
 20 43  1  0  0  0  0
 20 44  1  0  0  0  0
 20 45  1  0  0  0  0
 21 46  1  0  0  0  0
 21 47  1  0  0  0  0
 21 48  1  0  0  0  0
 22 49  1  0  0  0  0
 22 50  1  0  0  0  0
 26 51  1  0  0  0  0
M  END
> <clash_score>
0.7184887571168097

> <docking_score>
-8.265181541442871

> <overlap_score>
0.9835416674613953

$$$$
BENZO_6_1
  -OEChem-08232013433D

 53 56  0     0  0  0  0  0  0999 V2000
    3.9160    2.0630   19.5520 C   0  0  0  0  0  0  0  0  0  0  0  0
    4.2750    1.7050   20.8490 C   0  0  0  0  0  0  0  0  0  0  0  0
   13.7042    2.0311   22.7008 C   0  0  0  0  0  0  0  0  0  0  0  0
   12.3111    2.0942   22.7287 C   0  0  0  0  0  0  0  0  0  0  0  0
    4.6890    1.6810   18.4640 C   0  0  0  0  0  0  0  0  0  0  0  0
    5.4210    0.9600   21.0930 C   0  0  0  0  0  0  0  0  0  0  0  0
    8.9960   -2.3380   25.5320 C   0  0  0  0  0  0  0  0  0  0  0  0
    9.6730   -3.4710   23.5300 C   0  0  0  0  0  0  0  0  0  0  0  0
    9.0720   -1.1280   24.8640 C   0  0  0  0  0  0  0  0  0  0  0  0
    9.7200   -2.2600   22.8630 C   0  0  0  0  0  0  0  0  0  0  0  0
   14.3765    1.1047   23.4981 C   0  0  0  0  0  0  0  0  0  0  0  0
   12.2625    0.3048   24.3513 C   0  0  0  0  0  0  0  0  0  0  0  0
   11.5902    1.2311   23.5539 C   0  0  0  0  0  0  0  0  0  0  0  0
    5.8300    0.9190   18.6970 C   0  0  0  0  0  0  0  0  0  0  0  0
    6.1790    0.5730   19.9990 C   0  0  0  0  0  0  0  0  0  0  0  0
    9.3070   -3.5340   24.8780 C   0  0  0  0  0  0  0  0  0  0  0  0
    9.3350   -1.0880   23.5010 C   0  0  0  0  0  0  0  0  0  0  0  0
   13.6556    0.2416   24.3233 C   0  0  0  0  0  0  0  0  0  0  0  0
    9.5333   -6.0236   25.0414 C   0  0  0  0  0  0  0  0  0  0  0  0
    9.0420    0.3700   21.5280 C   0  0  0  0  0  0  0  0  0  0  0  0
   10.6330   -7.3746   26.8775 C   0  0  0  0  0  0  0  0  0  0  0  0
   10.0907    1.3005   23.5844 C   0  0  0  0  0  0  0  0  0  0  0  0
    9.3522   -7.0865   26.1149 C   0  0  0  0  0  0  0  0  0  0  0  0
    6.7580    0.3810   17.8350 N   0  0  0  0  0  0  0  0  0  0  0  0
    7.6390   -0.2680   18.5410 N   0  0  0  0  0  0  0  0  0  0  0  0
    7.3170   -0.1610   19.8550 N   0  0  0  0  0  0  0  0  0  0  0  0
    9.2546   -4.7422   25.5438 N   0  0  0  0  0  0  0  0  0  0  0  0
    8.1890   -0.7180   20.8700 N   0  0  0  0  0  0  0  0  0  0  0  0
    9.4560    0.1560   22.8130 N   0  0  0  0  0  0  0  0  0  0  0  0
    9.8805   -6.3053   23.8992 O   0  0  0  0  0  0  0  0  0  0  0  0
    9.2690    1.4140   20.9380 O   0  0  0  0  0  0  0  0  0  0  0  0
   14.4857   -0.9003   25.3076 Cl  0  0  0  0  0  0  0  0  0  0  0  0
    3.0136    2.6526   19.3908 H   0  0  0  0  0  0  0  0  0  0  0  0
    3.6480    2.0140   21.6821 H   0  0  0  0  0  0  0  0  0  0  0  0
   14.2652    2.7035   22.0582 H   0  0  0  0  0  0  0  0  0  0  0  0
   11.7956    2.8192   22.1042 H   0  0  0  0  0  0  0  0  0  0  0  0
    4.4042    1.9741   17.4524 H   0  0  0  0  0  0  0  0  0  0  0  0
    5.7089    0.6919   22.1150 H   0  0  0  0  0  0  0  0  0  0  0  0
    8.6895   -2.3529   26.5807 H   0  0  0  0  0  0  0  0  0  0  0  0
    9.9262   -4.3897   22.9916 H   0  0  0  0  0  0  0  0  0  0  0  0
    8.9224   -0.1998   25.4238 H   0  0  0  0  0  0  0  0  0  0  0  0
   10.0649   -2.2343   21.8258 H   0  0  0  0  0  0  0  0  0  0  0  0
   15.4626    1.0670   23.4663 H   0  0  0  0  0  0  0  0  0  0  0  0
   11.6958   -0.3663   24.9926 H   0  0  0  0  0  0  0  0  0  0  0  0
   11.4241   -7.7171   26.2024 H   0  0  0  0  0  0  0  0  0  0  0  0
   10.4628   -8.1530   27.6277 H   0  0  0  0  0  0  0  0  0  0  0  0
   10.9949   -6.4779   27.3911 H   0  0  0  0  0  0  0  0  0  0  0  0
    9.7235    1.2669   24.6159 H   0  0  0  0  0  0  0  0  0  0  0  0
    9.7315    2.2355   23.1416 H   0  0  0  0  0  0  0  0  0  0  0  0
    8.5795   -6.7463   26.8138 H   0  0  0  0  0  0  0  0  0  0  0  0
    8.9965   -8.0064   25.6368 H   0  0  0  0  0  0  0  0  0  0  0  0
    8.9776   -4.7057   26.5317 H   0  0  0  0  0  0  0  0  0  0  0  0
    8.2278   -1.5705   21.0849 H   0  0  0  0  0  0  0  0  0  0  0  0
  1  2  1  0  0  0  0
  1  5  2  0  0  0  0
  2  6  2  0  0  0  0
  3  4  2  0  0  0  0
  3 11  1  0  0  0  0
  4 13  1  0  0  0  0
  5 14  1  0  0  0  0
  6 15  1  0  0  0  0
  7  9  2  0  0  0  0
  7 16  1  0  0  0  0
  8 10  1  0  0  0  0
  8 16  2  0  0  0  0
  9 17  1  0  0  0  0
 10 17  2  0  0  0  0
 11 18  2  0  0  0  0
 12 13  2  0  0  0  0
 12 18  1  0  0  0  0
 13 22  1  0  0  0  0
 14 15  2  0  0  0  0
 14 24  1  0  0  0  0
 15 26  1  0  0  0  0
 16 27  1  0  0  0  0
 17 29  1  0  0  0  0
 18 32  1  0  0  0  0
 19 23  1  0  0  0  0
 19 27  1  0  0  0  0
 19 30  2  0  0  0  0
 20 28  1  0  0  0  0
 20 29  1  0  0  0  0
 20 31  2  0  0  0  0
 21 23  1  0  0  0  0
 22 29  1  0  0  0  0
 24 25  2  0  0  0  0
 25 26  1  0  0  0  0
 26 28  1  0  0  0  0
  1 33  1  0  0  0  0
  2 34  1  0  0  0  0
  3 35  1  0  0  0  0
  4 36  1  0  0  0  0
  5 37  1  0  0  0  0
  6 38  1  0  0  0  0
  7 39  1  0  0  0  0
  8 40  1  0  0  0  0
  9 41  1  0  0  0  0
 10 42  1  0  0  0  0
 11 43  1  0  0  0  0
 12 44  1  0  0  0  0
 21 45  1  0  0  0  0
 21 46  1  0  0  0  0
 21 47  1  0  0  0  0
 22 48  1  0  0  0  0
 22 49  1  0  0  0  0
 23 50  1  0  0  0  0
 23 51  1  0  0  0  0
 27 52  1  0  0  0  0
 28 53  1  0  0  0  0
M  END
> <clash_score>
2.2171525100224034

> <docking_score>
-5.070903778076172

> <overlap_score>
0.9857378602027893

$$$$
BENZO_4_1
  -OEChem-08232013433D

 50 53  0     0  0  0  0  0  0999 V2000
    3.9160    2.0630   19.5520 C   0  0  0  0  0  0  0  0  0  0  0  0
    4.2750    1.7050   20.8490 C   0  0  0  0  0  0  0  0  0  0  0  0
    4.6890    1.6810   18.4640 C   0  0  0  0  0  0  0  0  0  0  0  0
    5.4210    0.9600   21.0930 C   0  0  0  0  0  0  0  0  0  0  0  0
    8.9960   -2.3380   25.5320 C   0  0  0  0  0  0  0  0  0  0  0  0
    9.6730   -3.4710   23.5300 C   0  0  0  0  0  0  0  0  0  0  0  0
    9.0720   -1.1280   24.8640 C   0  0  0  0  0  0  0  0  0  0  0  0
    9.7200   -2.2600   22.8630 C   0  0  0  0  0  0  0  0  0  0  0  0
   12.4395    2.3744   23.5961 C   0  0  0  0  0  0  0  0  0  0  0  0
   13.7727    2.0304   23.5542 C   0  0  0  0  0  0  0  0  0  0  0  0
   12.3068    0.0567   23.4811 C   0  0  0  0  0  0  0  0  0  0  0  0
   11.5902    1.2311   23.5539 C   0  0  0  0  0  0  0  0  0  0  0  0
    5.8300    0.9190   18.6970 C   0  0  0  0  0  0  0  0  0  0  0  0
    6.1790    0.5730   19.9990 C   0  0  0  0  0  0  0  0  0  0  0  0
    9.3070   -3.5340   24.8780 C   0  0  0  0  0  0  0  0  0  0  0  0
    9.3350   -1.0880   23.5010 C   0  0  0  0  0  0  0  0  0  0  0  0
    9.5333   -6.0236   25.0414 C   0  0  0  0  0  0  0  0  0  0  0  0
    9.0420    0.3700   21.5280 C   0  0  0  0  0  0  0  0  0  0  0  0
   10.6330   -7.3746   26.8775 C   0  0  0  0  0  0  0  0  0  0  0  0
   10.0907    1.3005   23.5844 C   0  0  0  0  0  0  0  0  0  0  0  0
    9.3522   -7.0865   26.1149 C   0  0  0  0  0  0  0  0  0  0  0  0
    6.7580    0.3810   17.8350 N   0  0  0  0  0  0  0  0  0  0  0  0
    7.6390   -0.2680   18.5410 N   0  0  0  0  0  0  0  0  0  0  0  0
    7.3170   -0.1610   19.8550 N   0  0  0  0  0  0  0  0  0  0  0  0
    9.2546   -4.7422   25.5438 N   0  0  0  0  0  0  0  0  0  0  0  0
    8.1890   -0.7180   20.8700 N   0  0  0  0  0  0  0  0  0  0  0  0
    9.4560    0.1560   22.8130 N   0  0  0  0  0  0  0  0  0  0  0  0
    9.8805   -6.3053   23.8992 O   0  0  0  0  0  0  0  0  0  0  0  0
    9.2690    1.4140   20.9380 O   0  0  0  0  0  0  0  0  0  0  0  0
   13.9963    0.3350   23.4642 S   0  0  0  0  0  0  0  0  0  0  0  0
    3.0136    2.6526   19.3908 H   0  0  0  0  0  0  0  0  0  0  0  0
    3.6480    2.0140   21.6821 H   0  0  0  0  0  0  0  0  0  0  0  0
    4.4042    1.9741   17.4524 H   0  0  0  0  0  0  0  0  0  0  0  0
    5.7089    0.6919   22.1150 H   0  0  0  0  0  0  0  0  0  0  0  0
    8.6895   -2.3529   26.5807 H   0  0  0  0  0  0  0  0  0  0  0  0
    9.9262   -4.3897   22.9916 H   0  0  0  0  0  0  0  0  0  0  0  0
    8.9224   -0.1998   25.4238 H   0  0  0  0  0  0  0  0  0  0  0  0
   10.0649   -2.2343   21.8258 H   0  0  0  0  0  0  0  0  0  0  0  0
   12.0943    3.3990   23.6539 H   0  0  0  0  0  0  0  0  0  0  0  0
   14.6262    2.6934   23.5714 H   0  0  0  0  0  0  0  0  0  0  0  0
   11.9230   -0.9530   23.4357 H   0  0  0  0  0  0  0  0  0  0  0  0
   11.4241   -7.7171   26.2024 H   0  0  0  0  0  0  0  0  0  0  0  0
   10.4628   -8.1530   27.6277 H   0  0  0  0  0  0  0  0  0  0  0  0
   10.9949   -6.4779   27.3911 H   0  0  0  0  0  0  0  0  0  0  0  0
    9.7235    1.2669   24.6159 H   0  0  0  0  0  0  0  0  0  0  0  0
    9.7315    2.2355   23.1416 H   0  0  0  0  0  0  0  0  0  0  0  0
    8.5795   -6.7463   26.8138 H   0  0  0  0  0  0  0  0  0  0  0  0
    8.9965   -8.0064   25.6368 H   0  0  0  0  0  0  0  0  0  0  0  0
    8.9776   -4.7057   26.5317 H   0  0  0  0  0  0  0  0  0  0  0  0
    8.2278   -1.5705   21.0849 H   0  0  0  0  0  0  0  0  0  0  0  0
  1  2  1  0  0  0  0
  1  3  2  0  0  0  0
  2  4  2  0  0  0  0
  3 13  1  0  0  0  0
  4 14  1  0  0  0  0
  5  7  2  0  0  0  0
  5 15  1  0  0  0  0
  6  8  1  0  0  0  0
  6 15  2  0  0  0  0
  7 16  1  0  0  0  0
  8 16  2  0  0  0  0
  9 10  2  0  0  0  0
  9 12  1  0  0  0  0
 10 30  1  0  0  0  0
 11 12  2  0  0  0  0
 11 30  1  0  0  0  0
 12 20  1  0  0  0  0
 13 14  2  0  0  0  0
 13 22  1  0  0  0  0
 14 24  1  0  0  0  0
 15 25  1  0  0  0  0
 16 27  1  0  0  0  0
 17 21  1  0  0  0  0
 17 25  1  0  0  0  0
 17 28  2  0  0  0  0
 18 26  1  0  0  0  0
 18 27  1  0  0  0  0
 18 29  2  0  0  0  0
 19 21  1  0  0  0  0
 20 27  1  0  0  0  0
 22 23  2  0  0  0  0
 23 24  1  0  0  0  0
 24 26  1  0  0  0  0
  1 31  1  0  0  0  0
  2 32  1  0  0  0  0
  3 33  1  0  0  0  0
  4 34  1  0  0  0  0
  5 35  1  0  0  0  0
  6 36  1  0  0  0  0
  7 37  1  0  0  0  0
  8 38  1  0  0  0  0
  9 39  1  0  0  0  0
 10 40  1  0  0  0  0
 11 41  1  0  0  0  0
 19 42  1  0  0  0  0
 19 43  1  0  0  0  0
 19 44  1  0  0  0  0
 20 45  1  0  0  0  0
 20 46  1  0  0  0  0
 21 47  1  0  0  0  0
 21 48  1  0  0  0  0
 25 49  1  0  0  0  0
 26 50  1  0  0  0  0
M  END
> <clash_score>
1.498663752905594

> <docking_score>
-5.622674942016602

> <overlap_score>
0.9737477898597717

$$$$
BENZO_9_1
  -OEChem-08232013433D

 58 62  0     0  0  0  0  0  0999 V2000
   14.3702    1.0349   23.4339 C   0  0  0  0  0  0  0  0  0  0  0  0
   13.6627    0.4309   24.4732 C   0  0  0  0  0  0  0  0  0  0  0  0
   13.6866    1.7325   22.4380 C   0  0  0  0  0  0  0  0  0  0  0  0
    3.9160    2.0630   19.5520 C   0  0  0  0  0  0  0  0  0  0  0  0
    4.2750    1.7050   20.8490 C   0  0  0  0  0  0  0  0  0  0  0  0
   12.2717    0.5243   24.5166 C   0  0  0  0  0  0  0  0  0  0  0  0
   12.2956    1.8259   22.4813 C   0  0  0  0  0  0  0  0  0  0  0  0
    4.6890    1.6810   18.4640 C   0  0  0  0  0  0  0  0  0  0  0  0
    5.4210    0.9600   21.0930 C   0  0  0  0  0  0  0  0  0  0  0  0
    8.9960   -2.3380   25.5320 C   0  0  0  0  0  0  0  0  0  0  0  0
    9.6730   -3.4710   23.5300 C   0  0  0  0  0  0  0  0  0  0  0  0
    9.0720   -1.1280   24.8640 C   0  0  0  0  0  0  0  0  0  0  0  0
    9.7200   -2.2600   22.8630 C   0  0  0  0  0  0  0  0  0  0  0  0
   11.5881    1.2218   23.5206 C   0  0  0  0  0  0  0  0  0  0  0  0
    5.8300    0.9190   18.6970 C   0  0  0  0  0  0  0  0  0  0  0  0
    6.1790    0.5730   19.9990 C   0  0  0  0  0  0  0  0  0  0  0  0
    9.3070   -3.5340   24.8780 C   0  0  0  0  0  0  0  0  0  0  0  0
    9.3350   -1.0880   23.5010 C   0  0  0  0  0  0  0  0  0  0  0  0
    9.0420    0.3700   21.5280 C   0  0  0  0  0  0  0  0  0  0  0  0
    7.6075   -7.0890   25.4795 C   0  0  0  0  0  0  0  0  0  0  0  0
    7.1392   -5.7989   26.1565 C   0  0  0  0  0  0  0  0  0  0  0  0
    8.6478   -6.8051   24.3935 C   0  0  0  0  0  0  0  0  0  0  0  0
    8.3303   -4.9793   26.6524 C   0  0  0  0  0  0  0  0  0  0  0  0
    9.8033   -5.9551   24.9309 C   0  0  0  0  0  0  0  0  0  0  0  0
   10.0908    1.3225   23.5666 C   0  0  0  0  0  0  0  0  0  0  0  0
    6.7580    0.3810   17.8350 N   0  0  0  0  0  0  0  0  0  0  0  0
    7.6390   -0.2680   18.5410 N   0  0  0  0  0  0  0  0  0  0  0  0
    7.3170   -0.1610   19.8550 N   0  0  0  0  0  0  0  0  0  0  0  0
    9.2562   -4.7384   25.5422 N   0  0  0  0  0  0  0  0  0  0  0  0
    8.1890   -0.7180   20.8700 N   0  0  0  0  0  0  0  0  0  0  0  0
    9.4560    0.1560   22.8130 N   0  0  0  0  0  0  0  0  0  0  0  0
    9.2690    1.4140   20.9380 O   0  0  0  0  0  0  0  0  0  0  0  0
   15.4534    0.9633   23.4010 H   0  0  0  0  0  0  0  0  0  0  0  0
   14.1949   -0.1113   25.2494 H   0  0  0  0  0  0  0  0  0  0  0  0
   14.2372    2.2039   21.6293 H   0  0  0  0  0  0  0  0  0  0  0  0
    3.0136    2.6526   19.3908 H   0  0  0  0  0  0  0  0  0  0  0  0
    3.6480    2.0140   21.6821 H   0  0  0  0  0  0  0  0  0  0  0  0
   11.7287    0.0503   25.3301 H   0  0  0  0  0  0  0  0  0  0  0  0
   11.7714    2.3713   21.7010 H   0  0  0  0  0  0  0  0  0  0  0  0
    4.4042    1.9741   17.4524 H   0  0  0  0  0  0  0  0  0  0  0  0
    5.7089    0.6919   22.1150 H   0  0  0  0  0  0  0  0  0  0  0  0
    8.6905   -2.3533   26.5810 H   0  0  0  0  0  0  0  0  0  0  0  0
    9.9266   -4.3896   22.9917 H   0  0  0  0  0  0  0  0  0  0  0  0
    8.9233   -0.1992   25.4231 H   0  0  0  0  0  0  0  0  0  0  0  0
   10.0650   -2.2330   21.8256 H   0  0  0  0  0  0  0  0  0  0  0  0
    8.0356   -7.7671   26.2335 H   0  0  0  0  0  0  0  0  0  0  0  0
    6.7454   -7.6111   25.0398 H   0  0  0  0  0  0  0  0  0  0  0  0
    6.5539   -5.2055   25.4489 H   0  0  0  0  0  0  0  0  0  0  0  0
    6.4855   -6.0435   26.9963 H   0  0  0  0  0  0  0  0  0  0  0  0
    9.0392   -7.7512   24.0053 H   0  0  0  0  0  0  0  0  0  0  0  0
    8.1711   -6.2867   23.5535 H   0  0  0  0  0  0  0  0  0  0  0  0
    7.9625   -4.0328   27.0569 H   0  0  0  0  0  0  0  0  0  0  0  0
    8.8427   -5.5180   27.4546 H   0  0  0  0  0  0  0  0  0  0  0  0
   10.3696   -6.5240   25.6692 H   0  0  0  0  0  0  0  0  0  0  0  0
   10.4665   -5.7029   24.1030 H   0  0  0  0  0  0  0  0  0  0  0  0
    9.7347    1.3121   24.6025 H   0  0  0  0  0  0  0  0  0  0  0  0
    9.7457    2.2578   23.1134 H   0  0  0  0  0  0  0  0  0  0  0  0
    8.2565   -1.5523   21.1108 H   0  0  0  0  0  0  0  0  0  0  0  0
  1  2  1  0  0  0  0
  1  3  2  0  0  0  0
  2  6  2  0  0  0  0
  3  7  1  0  0  0  0
  4  5  1  0  0  0  0
  4  8  2  0  0  0  0
  5  9  2  0  0  0  0
  6 14  1  0  0  0  0
  7 14  2  0  0  0  0
  8 15  1  0  0  0  0
  9 16  1  0  0  0  0
 10 12  2  0  0  0  0
 10 17  1  0  0  0  0
 11 13  1  0  0  0  0
 11 17  2  0  0  0  0
 12 18  1  0  0  0  0
 13 18  2  0  0  0  0
 14 25  1  0  0  0  0
 15 16  2  0  0  0  0
 15 26  1  0  0  0  0
 16 28  1  0  0  0  0
 17 29  1  0  0  0  0
 18 31  1  0  0  0  0
 19 30  1  0  0  0  0
 19 31  1  0  0  0  0
 19 32  2  0  0  0  0
 20 21  1  0  0  0  0
 20 22  1  0  0  0  0
 21 23  1  0  0  0  0
 22 24  1  0  0  0  0
 23 29  1  0  0  0  0
 24 29  1  0  0  0  0
 25 31  1  0  0  0  0
 26 27  2  0  0  0  0
 27 28  1  0  0  0  0
 28 30  1  0  0  0  0
  1 33  1  0  0  0  0
  2 34  1  0  0  0  0
  3 35  1  0  0  0  0
  4 36  1  0  0  0  0
  5 37  1  0  0  0  0
  6 38  1  0  0  0  0
  7 39  1  0  0  0  0
  8 40  1  0  0  0  0
  9 41  1  0  0  0  0
 10 42  1  0  0  0  0
 11 43  1  0  0  0  0
 12 44  1  0  0  0  0
 13 45  1  0  0  0  0
 20 46  1  0  0  0  0
 20 47  1  0  0  0  0
 21 48  1  0  0  0  0
 21 49  1  0  0  0  0
 22 50  1  0  0  0  0
 22 51  1  0  0  0  0
 23 52  1  0  0  0  0
 23 53  1  0  0  0  0
 24 54  1  0  0  0  0
 24 55  1  0  0  0  0
 25 56  1  0  0  0  0
 25 57  1  0  0  0  0
 30 58  1  0  0  0  0
M  END
> <clash_score>
0

> <docking_score>
-7.841113090515137

> <overlap_score>
0.998691976070404

$$$$
BENZO_8_1
  -OEChem-08232013433D

 55 59  0     0  0  0  0  0  0999 V2000
    3.9160    2.0630   19.5520 C   0  0  0  0  0  0  0  0  0  0  0  0
    4.2750    1.7050   20.8490 C   0  0  0  0  0  0  0  0  0  0  0  0
    4.6890    1.6810   18.4640 C   0  0  0  0  0  0  0  0  0  0  0  0
    5.4210    0.9600   21.0930 C   0  0  0  0  0  0  0  0  0  0  0  0
    8.9960   -2.3380   25.5320 C   0  0  0  0  0  0  0  0  0  0  0  0
    9.6730   -3.4710   23.5300 C   0  0  0  0  0  0  0  0  0  0  0  0
    9.0720   -1.1280   24.8640 C   0  0  0  0  0  0  0  0  0  0  0  0
    9.7200   -2.2600   22.8630 C   0  0  0  0  0  0  0  0  0  0  0  0
   12.4610    2.3478   23.5358 C   0  0  0  0  0  0  0  0  0  0  0  0
   13.7863    1.9758   23.4845 C   0  0  0  0  0  0  0  0  0  0  0  0
   12.2796    0.0319   23.4580 C   0  0  0  0  0  0  0  0  0  0  0  0
   11.5881    1.2218   23.5206 C   0  0  0  0  0  0  0  0  0  0  0  0
    5.8300    0.9190   18.6970 C   0  0  0  0  0  0  0  0  0  0  0  0
    6.1790    0.5730   19.9990 C   0  0  0  0  0  0  0  0  0  0  0  0
    9.3070   -3.5340   24.8780 C   0  0  0  0  0  0  0  0  0  0  0  0
    9.3350   -1.0880   23.5010 C   0  0  0  0  0  0  0  0  0  0  0  0
    9.0420    0.3700   21.5280 C   0  0  0  0  0  0  0  0  0  0  0  0
    7.3635   -6.1361   27.1888 C   0  0  0  0  0  0  0  0  0  0  0  0
    8.1961   -4.9735   27.7341 C   0  0  0  0  0  0  0  0  0  0  0  0
    7.1942   -6.0394   25.6709 C   0  0  0  0  0  0  0  0  0  0  0  0
    9.5196   -4.8490   26.9797 C   0  0  0  0  0  0  0  0  0  0  0  0
    8.5442   -5.8838   24.9639 C   0  0  0  0  0  0  0  0  0  0  0  0
   10.0908    1.3225   23.5666 C   0  0  0  0  0  0  0  0  0  0  0  0
    6.7580    0.3810   17.8350 N   0  0  0  0  0  0  0  0  0  0  0  0
    7.6390   -0.2680   18.5410 N   0  0  0  0  0  0  0  0  0  0  0  0
    7.3170   -0.1610   19.8550 N   0  0  0  0  0  0  0  0  0  0  0  0
    9.2562   -4.7384   25.5422 N   0  0  0  0  0  0  0  0  0  0  0  0
    8.1890   -0.7180   20.8700 N   0  0  0  0  0  0  0  0  0  0  0  0
    9.4560    0.1560   22.8130 N   0  0  0  0  0  0  0  0  0  0  0  0
    9.2690    1.4140   20.9380 O   0  0  0  0  0  0  0  0  0  0  0  0
   13.9742    0.2750   23.4181 S   0  0  0  0  0  0  0  0  0  0  0  0
    3.0136    2.6526   19.3908 H   0  0  0  0  0  0  0  0  0  0  0  0
    3.6480    2.0140   21.6821 H   0  0  0  0  0  0  0  0  0  0  0  0
    4.4042    1.9741   17.4524 H   0  0  0  0  0  0  0  0  0  0  0  0
    5.7089    0.6919   22.1150 H   0  0  0  0  0  0  0  0  0  0  0  0
    8.6905   -2.3533   26.5810 H   0  0  0  0  0  0  0  0  0  0  0  0
    9.9266   -4.3896   22.9917 H   0  0  0  0  0  0  0  0  0  0  0  0
    8.9233   -0.1992   25.4231 H   0  0  0  0  0  0  0  0  0  0  0  0
   10.0650   -2.2330   21.8256 H   0  0  0  0  0  0  0  0  0  0  0  0
   12.1374    3.3800   23.5817 H   0  0  0  0  0  0  0  0  0  0  0  0
   14.6532    2.6213   23.4820 H   0  0  0  0  0  0  0  0  0  0  0  0
   11.8748   -0.9703   23.4323 H   0  0  0  0  0  0  0  0  0  0  0  0
    7.8482   -7.0901   27.4469 H   0  0  0  0  0  0  0  0  0  0  0  0
    6.3760   -6.1438   27.6724 H   0  0  0  0  0  0  0  0  0  0  0  0
    7.6307   -4.0424   27.6403 H   0  0  0  0  0  0  0  0  0  0  0  0
    8.3915   -5.1310   28.7968 H   0  0  0  0  0  0  0  0  0  0  0  0
    6.6888   -6.9376   25.3010 H   0  0  0  0  0  0  0  0  0  0  0  0
    6.5515   -5.1859   25.4257 H   0  0  0  0  0  0  0  0  0  0  0  0
   10.0492   -3.9640   27.3414 H   0  0  0  0  0  0  0  0  0  0  0  0
   10.1431   -5.7254   27.1778 H   0  0  0  0  0  0  0  0  0  0  0  0
    9.1338   -6.7931   25.0868 H   0  0  0  0  0  0  0  0  0  0  0  0
    8.3656   -5.7264   23.8998 H   0  0  0  0  0  0  0  0  0  0  0  0
    9.7347    1.3121   24.6025 H   0  0  0  0  0  0  0  0  0  0  0  0
    9.7457    2.2578   23.1134 H   0  0  0  0  0  0  0  0  0  0  0  0
    8.2565   -1.5523   21.1108 H   0  0  0  0  0  0  0  0  0  0  0  0
  1  2  1  0  0  0  0
  1  3  2  0  0  0  0
  2  4  2  0  0  0  0
  3 13  1  0  0  0  0
  4 14  1  0  0  0  0
  5  7  2  0  0  0  0
  5 15  1  0  0  0  0
  6  8  1  0  0  0  0
  6 15  2  0  0  0  0
  7 16  1  0  0  0  0
  8 16  2  0  0  0  0
  9 10  2  0  0  0  0
  9 12  1  0  0  0  0
 10 31  1  0  0  0  0
 11 12  2  0  0  0  0
 11 31  1  0  0  0  0
 12 23  1  0  0  0  0
 13 14  2  0  0  0  0
 13 24  1  0  0  0  0
 14 26  1  0  0  0  0
 15 27  1  0  0  0  0
 16 29  1  0  0  0  0
 17 28  1  0  0  0  0
 17 29  1  0  0  0  0
 17 30  2  0  0  0  0
 18 19  1  0  0  0  0
 18 20  1  0  0  0  0
 19 21  1  0  0  0  0
 20 22  1  0  0  0  0
 21 27  1  0  0  0  0
 22 27  1  0  0  0  0
 23 29  1  0  0  0  0
 24 25  2  0  0  0  0
 25 26  1  0  0  0  0
 26 28  1  0  0  0  0
  1 32  1  0  0  0  0
  2 33  1  0  0  0  0
  3 34  1  0  0  0  0
  4 35  1  0  0  0  0
  5 36  1  0  0  0  0
  6 37  1  0  0  0  0
  7 38  1  0  0  0  0
  8 39  1  0  0  0  0
  9 40  1  0  0  0  0
 10 41  1  0  0  0  0
 11 42  1  0  0  0  0
 18 43  1  0  0  0  0
 18 44  1  0  0  0  0
 19 45  1  0  0  0  0
 19 46  1  0  0  0  0
 20 47  1  0  0  0  0
 20 48  1  0  0  0  0
 21 49  1  0  0  0  0
 21 50  1  0  0  0  0
 22 51  1  0  0  0  0
 22 52  1  0  0  0  0
 23 53  1  0  0  0  0
 23 54  1  0  0  0  0
 28 55  1  0  0  0  0
M  END
> <clash_score>
0

> <docking_score>
-8.04007625579834

> <overlap_score>
0.9876247048377991

$$$$
BENZO_13_1
  -OEChem-08232013433D

 46 49  0     0  0  0  0  0  0999 V2000
   14.3763    1.1009   23.4978 C   0  0  0  0  0  0  0  0  0  0  0  0
   13.7377    2.3374   23.5905 C   0  0  0  0  0  0  0  0  0  0  0  0
   13.6219   -0.0706   23.4331 C   0  0  0  0  0  0  0  0  0  0  0  0
    3.9160    2.0630   19.5520 C   0  0  0  0  0  0  0  0  0  0  0  0
    4.2750    1.7050   20.8490 C   0  0  0  0  0  0  0  0  0  0  0  0
   12.3447    2.4026   23.6186 C   0  0  0  0  0  0  0  0  0  0  0  0
   12.2289   -0.0055   23.4612 C   0  0  0  0  0  0  0  0  0  0  0  0
    8.9960   -2.3380   25.5320 C   0  0  0  0  0  0  0  0  0  0  0  0
    9.6730   -3.4710   23.5300 C   0  0  0  0  0  0  0  0  0  0  0  0
    4.6890    1.6810   18.4640 C   0  0  0  0  0  0  0  0  0  0  0  0
    5.4210    0.9600   21.0930 C   0  0  0  0  0  0  0  0  0  0  0  0
    9.0720   -1.1280   24.8640 C   0  0  0  0  0  0  0  0  0  0  0  0
    9.7200   -2.2600   22.8630 C   0  0  0  0  0  0  0  0  0  0  0  0
    9.3070   -3.5340   24.8780 C   0  0  0  0  0  0  0  0  0  0  0  0
   11.5902    1.2311   23.5539 C   0  0  0  0  0  0  0  0  0  0  0  0
    5.8300    0.9190   18.6970 C   0  0  0  0  0  0  0  0  0  0  0  0
    6.1790    0.5730   19.9990 C   0  0  0  0  0  0  0  0  0  0  0  0
    9.3350   -1.0880   23.5010 C   0  0  0  0  0  0  0  0  0  0  0  0
    9.0420    0.3700   21.5280 C   0  0  0  0  0  0  0  0  0  0  0  0
    9.2505   -4.8264   25.5904 C   0  0  0  0  0  0  0  0  0  0  0  0
   10.0907    1.3005   23.5844 C   0  0  0  0  0  0  0  0  0  0  0  0
    6.7580    0.3810   17.8350 N   0  0  0  0  0  0  0  0  0  0  0  0
    7.6390   -0.2680   18.5410 N   0  0  0  0  0  0  0  0  0  0  0  0
    7.3170   -0.1610   19.8550 N   0  0  0  0  0  0  0  0  0  0  0  0
    8.1890   -0.7180   20.8700 N   0  0  0  0  0  0  0  0  0  0  0  0
    9.4560    0.1560   22.8130 N   0  0  0  0  0  0  0  0  0  0  0  0
    9.2690    1.4140   20.9380 O   0  0  0  0  0  0  0  0  0  0  0  0
   15.4610    1.0504   23.4746 H   0  0  0  0  0  0  0  0  0  0  0  0
   14.3250    3.2498   23.6398 H   0  0  0  0  0  0  0  0  0  0  0  0
   14.1187   -1.0335   23.3598 H   0  0  0  0  0  0  0  0  0  0  0  0
    3.0136    2.6526   19.3908 H   0  0  0  0  0  0  0  0  0  0  0  0
    3.6480    2.0140   21.6821 H   0  0  0  0  0  0  0  0  0  0  0  0
   11.8557    3.3705   23.6912 H   0  0  0  0  0  0  0  0  0  0  0  0
   11.6492   -0.9234   23.4104 H   0  0  0  0  0  0  0  0  0  0  0  0
    8.6919   -2.3557   26.5813 H   0  0  0  0  0  0  0  0  0  0  0  0
    9.9267   -4.3907   22.9939 H   0  0  0  0  0  0  0  0  0  0  0  0
    4.4042    1.9741   17.4524 H   0  0  0  0  0  0  0  0  0  0  0  0
    5.7089    0.6919   22.1150 H   0  0  0  0  0  0  0  0  0  0  0  0
    8.9217   -0.1995   25.4231 H   0  0  0  0  0  0  0  0  0  0  0  0
   10.0653   -2.2339   21.8256 H   0  0  0  0  0  0  0  0  0  0  0  0
    8.2503   -5.2678   25.5020 H   0  0  0  0  0  0  0  0  0  0  0  0
    9.9817   -5.5374   25.1845 H   0  0  0  0  0  0  0  0  0  0  0  0
    9.4841   -4.7043   26.6562 H   0  0  0  0  0  0  0  0  0  0  0  0
    9.7235    1.2669   24.6159 H   0  0  0  0  0  0  0  0  0  0  0  0
    9.7315    2.2355   23.1416 H   0  0  0  0  0  0  0  0  0  0  0  0
    8.2278   -1.5705   21.0849 H   0  0  0  0  0  0  0  0  0  0  0  0
  1  2  1  0  0  0  0
  1  3  2  0  0  0  0
  2  6  2  0  0  0  0
  3  7  1  0  0  0  0
  4  5  1  0  0  0  0
  4 10  2  0  0  0  0
  5 11  2  0  0  0  0
  6 15  1  0  0  0  0
  7 15  2  0  0  0  0
  8 12  2  0  0  0  0
  8 14  1  0  0  0  0
  9 13  1  0  0  0  0
  9 14  2  0  0  0  0
 10 16  1  0  0  0  0
 11 17  1  0  0  0  0
 12 18  1  0  0  0  0
 13 18  2  0  0  0  0
 14 20  1  0  0  0  0
 15 21  1  0  0  0  0
 16 17  2  0  0  0  0
 16 22  1  0  0  0  0
 17 24  1  0  0  0  0
 18 26  1  0  0  0  0
 19 25  1  0  0  0  0
 19 26  1  0  0  0  0
 19 27  2  0  0  0  0
 21 26  1  0  0  0  0
 22 23  2  0  0  0  0
 23 24  1  0  0  0  0
 24 25  1  0  0  0  0
  1 28  1  0  0  0  0
  2 29  1  0  0  0  0
  3 30  1  0  0  0  0
  4 31  1  0  0  0  0
  5 32  1  0  0  0  0
  6 33  1  0  0  0  0
  7 34  1  0  0  0  0
  8 35  1  0  0  0  0
  9 36  1  0  0  0  0
 10 37  1  0  0  0  0
 11 38  1  0  0  0  0
 12 39  1  0  0  0  0
 13 40  1  0  0  0  0
 20 41  1  0  0  0  0
 20 42  1  0  0  0  0
 20 43  1  0  0  0  0
 21 44  1  0  0  0  0
 21 45  1  0  0  0  0
 25 46  1  0  0  0  0
M  END
> <clash_score>
0

> <docking_score>
-7.368464469909668

> <overlap_score>
0.9446931481361389

$$$$
BENZO_12_1
  -OEChem-08232013433D

 43 46  0     0  0  0  0  0  0999 V2000
    3.9160    2.0630   19.5520 C   0  0  0  0  0  0  0  0  0  0  0  0
    4.2750    1.7050   20.8490 C   0  0  0  0  0  0  0  0  0  0  0  0
    8.9960   -2.3380   25.5320 C   0  0  0  0  0  0  0  0  0  0  0  0
    9.6730   -3.4710   23.5300 C   0  0  0  0  0  0  0  0  0  0  0  0
    4.6890    1.6810   18.4640 C   0  0  0  0  0  0  0  0  0  0  0  0
    5.4210    0.9600   21.0930 C   0  0  0  0  0  0  0  0  0  0  0  0
    9.0720   -1.1280   24.8640 C   0  0  0  0  0  0  0  0  0  0  0  0
    9.7200   -2.2600   22.8630 C   0  0  0  0  0  0  0  0  0  0  0  0
   12.4395    2.3744   23.5961 C   0  0  0  0  0  0  0  0  0  0  0  0
   13.7727    2.0304   23.5542 C   0  0  0  0  0  0  0  0  0  0  0  0
   12.3068    0.0567   23.4811 C   0  0  0  0  0  0  0  0  0  0  0  0
    9.3070   -3.5340   24.8780 C   0  0  0  0  0  0  0  0  0  0  0  0
   11.5902    1.2311   23.5539 C   0  0  0  0  0  0  0  0  0  0  0  0
    5.8300    0.9190   18.6970 C   0  0  0  0  0  0  0  0  0  0  0  0
    6.1790    0.5730   19.9990 C   0  0  0  0  0  0  0  0  0  0  0  0
    9.3350   -1.0880   23.5010 C   0  0  0  0  0  0  0  0  0  0  0  0
    9.0420    0.3700   21.5280 C   0  0  0  0  0  0  0  0  0  0  0  0
    9.2505   -4.8264   25.5904 C   0  0  0  0  0  0  0  0  0  0  0  0
   10.0907    1.3005   23.5844 C   0  0  0  0  0  0  0  0  0  0  0  0
    6.7580    0.3810   17.8350 N   0  0  0  0  0  0  0  0  0  0  0  0
    7.6390   -0.2680   18.5410 N   0  0  0  0  0  0  0  0  0  0  0  0
    7.3170   -0.1610   19.8550 N   0  0  0  0  0  0  0  0  0  0  0  0
    8.1890   -0.7180   20.8700 N   0  0  0  0  0  0  0  0  0  0  0  0
    9.4560    0.1560   22.8130 N   0  0  0  0  0  0  0  0  0  0  0  0
    9.2690    1.4140   20.9380 O   0  0  0  0  0  0  0  0  0  0  0  0
   13.9963    0.3350   23.4642 S   0  0  0  0  0  0  0  0  0  0  0  0
    3.0136    2.6526   19.3908 H   0  0  0  0  0  0  0  0  0  0  0  0
    3.6480    2.0140   21.6821 H   0  0  0  0  0  0  0  0  0  0  0  0
    8.6919   -2.3557   26.5813 H   0  0  0  0  0  0  0  0  0  0  0  0
    9.9267   -4.3907   22.9939 H   0  0  0  0  0  0  0  0  0  0  0  0
    4.4042    1.9741   17.4524 H   0  0  0  0  0  0  0  0  0  0  0  0
    5.7089    0.6919   22.1150 H   0  0  0  0  0  0  0  0  0  0  0  0
    8.9217   -0.1995   25.4231 H   0  0  0  0  0  0  0  0  0  0  0  0
   10.0653   -2.2339   21.8256 H   0  0  0  0  0  0  0  0  0  0  0  0
   12.0943    3.3990   23.6539 H   0  0  0  0  0  0  0  0  0  0  0  0
   14.6262    2.6934   23.5714 H   0  0  0  0  0  0  0  0  0  0  0  0
   11.9230   -0.9530   23.4357 H   0  0  0  0  0  0  0  0  0  0  0  0
    8.2503   -5.2678   25.5020 H   0  0  0  0  0  0  0  0  0  0  0  0
    9.9817   -5.5374   25.1845 H   0  0  0  0  0  0  0  0  0  0  0  0
    9.4841   -4.7043   26.6562 H   0  0  0  0  0  0  0  0  0  0  0  0
    9.7235    1.2669   24.6159 H   0  0  0  0  0  0  0  0  0  0  0  0
    9.7315    2.2355   23.1416 H   0  0  0  0  0  0  0  0  0  0  0  0
    8.2278   -1.5705   21.0849 H   0  0  0  0  0  0  0  0  0  0  0  0
  1  2  1  0  0  0  0
  1  5  2  0  0  0  0
  2  6  2  0  0  0  0
  3  7  2  0  0  0  0
  3 12  1  0  0  0  0
  4  8  1  0  0  0  0
  4 12  2  0  0  0  0
  5 14  1  0  0  0  0
  6 15  1  0  0  0  0
  7 16  1  0  0  0  0
  8 16  2  0  0  0  0
  9 10  2  0  0  0  0
  9 13  1  0  0  0  0
 10 26  1  0  0  0  0
 11 13  2  0  0  0  0
 11 26  1  0  0  0  0
 12 18  1  0  0  0  0
 13 19  1  0  0  0  0
 14 15  2  0  0  0  0
 14 20  1  0  0  0  0
 15 22  1  0  0  0  0
 16 24  1  0  0  0  0
 17 23  1  0  0  0  0
 17 24  1  0  0  0  0
 17 25  2  0  0  0  0
 19 24  1  0  0  0  0
 20 21  2  0  0  0  0
 21 22  1  0  0  0  0
 22 23  1  0  0  0  0
  1 27  1  0  0  0  0
  2 28  1  0  0  0  0
  3 29  1  0  0  0  0
  4 30  1  0  0  0  0
  5 31  1  0  0  0  0
  6 32  1  0  0  0  0
  7 33  1  0  0  0  0
  8 34  1  0  0  0  0
  9 35  1  0  0  0  0
 10 36  1  0  0  0  0
 11 37  1  0  0  0  0
 18 38  1  0  0  0  0
 18 39  1  0  0  0  0
 18 40  1  0  0  0  0
 19 41  1  0  0  0  0
 19 42  1  0  0  0  0
 23 43  1  0  0  0  0
M  END
> <clash_score>
0

> <docking_score>
-8.15775203704834

> <overlap_score>
0.9328291416168213

$$$$
BENZO_15_1
  -OEChem-08232013433D

 46 49  0     0  0  0  0  0  0999 V2000
    3.9160    2.0630   19.5520 C   0  0  0  0  0  0  0  0  0  0  0  0
    4.2750    1.7050   20.8490 C   0  0  0  0  0  0  0  0  0  0  0  0
    8.9960   -2.3380   25.5320 C   0  0  0  0  0  0  0  0  0  0  0  0
    9.6730   -3.4710   23.5300 C   0  0  0  0  0  0  0  0  0  0  0  0
    4.6890    1.6810   18.4640 C   0  0  0  0  0  0  0  0  0  0  0  0
    5.4210    0.9600   21.0930 C   0  0  0  0  0  0  0  0  0  0  0  0
    9.0720   -1.1280   24.8640 C   0  0  0  0  0  0  0  0  0  0  0  0
    9.7200   -2.2600   22.8630 C   0  0  0  0  0  0  0  0  0  0  0  0
   12.4759    2.0148   22.7903 C   0  0  0  0  0  0  0  0  0  0  0  0
   12.4062    0.3887   24.2687 C   0  0  0  0  0  0  0  0  0  0  0  0
    9.3070   -3.5340   24.8780 C   0  0  0  0  0  0  0  0  0  0  0  0
   11.5902    1.2311   23.5539 C   0  0  0  0  0  0  0  0  0  0  0  0
    5.8300    0.9190   18.6970 C   0  0  0  0  0  0  0  0  0  0  0  0
    6.1790    0.5730   19.9990 C   0  0  0  0  0  0  0  0  0  0  0  0
    9.3350   -1.0880   23.5010 C   0  0  0  0  0  0  0  0  0  0  0  0
    9.0420    0.3700   21.5280 C   0  0  0  0  0  0  0  0  0  0  0  0
    9.2505   -4.8264   25.5904 C   0  0  0  0  0  0  0  0  0  0  0  0
   14.8909    0.0887   24.3922 C   0  0  0  0  0  0  0  0  0  0  0  0
   10.0907    1.3005   23.5844 C   0  0  0  0  0  0  0  0  0  0  0  0
   13.7565    1.6985   23.0003 N   0  0  0  0  0  0  0  0  0  0  0  0
    6.7580    0.3810   17.8350 N   0  0  0  0  0  0  0  0  0  0  0  0
    7.6390   -0.2680   18.5410 N   0  0  0  0  0  0  0  0  0  0  0  0
   13.6814    0.7068   23.9042 N   0  0  0  0  0  0  0  0  0  0  0  0
    7.3170   -0.1610   19.8550 N   0  0  0  0  0  0  0  0  0  0  0  0
    8.1890   -0.7180   20.8700 N   0  0  0  0  0  0  0  0  0  0  0  0
    9.4560    0.1560   22.8130 N   0  0  0  0  0  0  0  0  0  0  0  0
    9.2690    1.4140   20.9380 O   0  0  0  0  0  0  0  0  0  0  0  0
    3.0136    2.6526   19.3908 H   0  0  0  0  0  0  0  0  0  0  0  0
    3.6480    2.0140   21.6821 H   0  0  0  0  0  0  0  0  0  0  0  0
    8.6919   -2.3557   26.5813 H   0  0  0  0  0  0  0  0  0  0  0  0
    9.9267   -4.3907   22.9939 H   0  0  0  0  0  0  0  0  0  0  0  0
    4.4042    1.9741   17.4524 H   0  0  0  0  0  0  0  0  0  0  0  0
    5.7089    0.6919   22.1150 H   0  0  0  0  0  0  0  0  0  0  0  0
    8.9217   -0.1995   25.4231 H   0  0  0  0  0  0  0  0  0  0  0  0
   10.0653   -2.2339   21.8256 H   0  0  0  0  0  0  0  0  0  0  0  0
   12.2440    2.8044   22.0895 H   0  0  0  0  0  0  0  0  0  0  0  0
   12.1934   -0.3899   24.9887 H   0  0  0  0  0  0  0  0  0  0  0  0
    8.2503   -5.2678   25.5020 H   0  0  0  0  0  0  0  0  0  0  0  0
    9.9817   -5.5374   25.1845 H   0  0  0  0  0  0  0  0  0  0  0  0
    9.4841   -4.7043   26.6562 H   0  0  0  0  0  0  0  0  0  0  0  0
   15.1275   -0.7534   23.7365 H   0  0  0  0  0  0  0  0  0  0  0  0
   15.7032    0.8207   24.3827 H   0  0  0  0  0  0  0  0  0  0  0  0
   14.7319   -0.2566   25.4175 H   0  0  0  0  0  0  0  0  0  0  0  0
    9.7235    1.2669   24.6159 H   0  0  0  0  0  0  0  0  0  0  0  0
    9.7315    2.2355   23.1416 H   0  0  0  0  0  0  0  0  0  0  0  0
    8.2278   -1.5705   21.0849 H   0  0  0  0  0  0  0  0  0  0  0  0
  1  2  1  0  0  0  0
  1  5  2  0  0  0  0
  2  6  2  0  0  0  0
  3  7  2  0  0  0  0
  3 11  1  0  0  0  0
  4  8  1  0  0  0  0
  4 11  2  0  0  0  0
  5 13  1  0  0  0  0
  6 14  1  0  0  0  0
  7 15  1  0  0  0  0
  8 15  2  0  0  0  0
  9 12  1  0  0  0  0
  9 20  2  0  0  0  0
 10 12  2  0  0  0  0
 10 23  1  0  0  0  0
 11 17  1  0  0  0  0
 12 19  1  0  0  0  0
 13 14  2  0  0  0  0
 13 21  1  0  0  0  0
 14 24  1  0  0  0  0
 15 26  1  0  0  0  0
 16 25  1  0  0  0  0
 16 26  1  0  0  0  0
 16 27  2  0  0  0  0
 18 23  1  0  0  0  0
 19 26  1  0  0  0  0
 20 23  1  0  0  0  0
 21 22  2  0  0  0  0
 22 24  1  0  0  0  0
 24 25  1  0  0  0  0
  1 28  1  0  0  0  0
  2 29  1  0  0  0  0
  3 30  1  0  0  0  0
  4 31  1  0  0  0  0
  5 32  1  0  0  0  0
  6 33  1  0  0  0  0
  7 34  1  0  0  0  0
  8 35  1  0  0  0  0
  9 36  1  0  0  0  0
 10 37  1  0  0  0  0
 17 38  1  0  0  0  0
 17 39  1  0  0  0  0
 17 40  1  0  0  0  0
 18 41  1  0  0  0  0
 18 42  1  0  0  0  0
 18 43  1  0  0  0  0
 19 44  1  0  0  0  0
 19 45  1  0  0  0  0
 25 46  1  0  0  0  0
M  END
> <clash_score>
0

> <docking_score>
-8.394776344299316

> <overlap_score>
0.9423760175704956

$$$$
BENZO_14_1
  -OEChem-08232013433D

 46 49  0     0  0  0  0  0  0999 V2000
    3.9160    2.0630   19.5520 C   0  0  0  0  0  0  0  0  0  0  0  0
    4.2750    1.7050   20.8490 C   0  0  0  0  0  0  0  0  0  0  0  0
   13.7042    2.0311   22.7008 C   0  0  0  0  0  0  0  0  0  0  0  0
   12.3111    2.0942   22.7287 C   0  0  0  0  0  0  0  0  0  0  0  0
    8.9960   -2.3380   25.5320 C   0  0  0  0  0  0  0  0  0  0  0  0
    9.6730   -3.4710   23.5300 C   0  0  0  0  0  0  0  0  0  0  0  0
    4.6890    1.6810   18.4640 C   0  0  0  0  0  0  0  0  0  0  0  0
    5.4210    0.9600   21.0930 C   0  0  0  0  0  0  0  0  0  0  0  0
    9.0720   -1.1280   24.8640 C   0  0  0  0  0  0  0  0  0  0  0  0
    9.7200   -2.2600   22.8630 C   0  0  0  0  0  0  0  0  0  0  0  0
   14.3765    1.1047   23.4981 C   0  0  0  0  0  0  0  0  0  0  0  0
   12.2625    0.3048   24.3513 C   0  0  0  0  0  0  0  0  0  0  0  0
    9.3070   -3.5340   24.8780 C   0  0  0  0  0  0  0  0  0  0  0  0
   11.5902    1.2311   23.5539 C   0  0  0  0  0  0  0  0  0  0  0  0
    5.8300    0.9190   18.6970 C   0  0  0  0  0  0  0  0  0  0  0  0
    6.1790    0.5730   19.9990 C   0  0  0  0  0  0  0  0  0  0  0  0
    9.3350   -1.0880   23.5010 C   0  0  0  0  0  0  0  0  0  0  0  0
   13.6556    0.2416   24.3233 C   0  0  0  0  0  0  0  0  0  0  0  0
    9.0420    0.3700   21.5280 C   0  0  0  0  0  0  0  0  0  0  0  0
    9.2505   -4.8264   25.5904 C   0  0  0  0  0  0  0  0  0  0  0  0
   10.0907    1.3005   23.5844 C   0  0  0  0  0  0  0  0  0  0  0  0
    6.7580    0.3810   17.8350 N   0  0  0  0  0  0  0  0  0  0  0  0
    7.6390   -0.2680   18.5410 N   0  0  0  0  0  0  0  0  0  0  0  0
    7.3170   -0.1610   19.8550 N   0  0  0  0  0  0  0  0  0  0  0  0
    8.1890   -0.7180   20.8700 N   0  0  0  0  0  0  0  0  0  0  0  0
    9.4560    0.1560   22.8130 N   0  0  0  0  0  0  0  0  0  0  0  0
    9.2690    1.4140   20.9380 O   0  0  0  0  0  0  0  0  0  0  0  0
   14.4857   -0.9003   25.3076 Cl  0  0  0  0  0  0  0  0  0  0  0  0
    3.0136    2.6526   19.3908 H   0  0  0  0  0  0  0  0  0  0  0  0
    3.6480    2.0140   21.6821 H   0  0  0  0  0  0  0  0  0  0  0  0
   14.2652    2.7035   22.0582 H   0  0  0  0  0  0  0  0  0  0  0  0
   11.7956    2.8192   22.1042 H   0  0  0  0  0  0  0  0  0  0  0  0
    8.6919   -2.3557   26.5813 H   0  0  0  0  0  0  0  0  0  0  0  0
    9.9267   -4.3907   22.9939 H   0  0  0  0  0  0  0  0  0  0  0  0
    4.4042    1.9741   17.4524 H   0  0  0  0  0  0  0  0  0  0  0  0
    5.7089    0.6919   22.1150 H   0  0  0  0  0  0  0  0  0  0  0  0
    8.9217   -0.1995   25.4231 H   0  0  0  0  0  0  0  0  0  0  0  0
   10.0653   -2.2339   21.8256 H   0  0  0  0  0  0  0  0  0  0  0  0
   15.4626    1.0670   23.4663 H   0  0  0  0  0  0  0  0  0  0  0  0
   11.6958   -0.3663   24.9926 H   0  0  0  0  0  0  0  0  0  0  0  0
    8.2503   -5.2678   25.5020 H   0  0  0  0  0  0  0  0  0  0  0  0
    9.9817   -5.5374   25.1845 H   0  0  0  0  0  0  0  0  0  0  0  0
    9.4841   -4.7043   26.6562 H   0  0  0  0  0  0  0  0  0  0  0  0
    9.7235    1.2669   24.6159 H   0  0  0  0  0  0  0  0  0  0  0  0
    9.7315    2.2355   23.1416 H   0  0  0  0  0  0  0  0  0  0  0  0
    8.2278   -1.5705   21.0849 H   0  0  0  0  0  0  0  0  0  0  0  0
  1  2  1  0  0  0  0
  1  7  2  0  0  0  0
  2  8  2  0  0  0  0
  3  4  2  0  0  0  0
  3 11  1  0  0  0  0
  4 14  1  0  0  0  0
  5  9  2  0  0  0  0
  5 13  1  0  0  0  0
  6 10  1  0  0  0  0
  6 13  2  0  0  0  0
  7 15  1  0  0  0  0
  8 16  1  0  0  0  0
  9 17  1  0  0  0  0
 10 17  2  0  0  0  0
 11 18  2  0  0  0  0
 12 14  2  0  0  0  0
 12 18  1  0  0  0  0
 13 20  1  0  0  0  0
 14 21  1  0  0  0  0
 15 16  2  0  0  0  0
 15 22  1  0  0  0  0
 16 24  1  0  0  0  0
 17 26  1  0  0  0  0
 18 28  1  0  0  0  0
 19 25  1  0  0  0  0
 19 26  1  0  0  0  0
 19 27  2  0  0  0  0
 21 26  1  0  0  0  0
 22 23  2  0  0  0  0
 23 24  1  0  0  0  0
 24 25  1  0  0  0  0
  1 29  1  0  0  0  0
  2 30  1  0  0  0  0
  3 31  1  0  0  0  0
  4 32  1  0  0  0  0
  5 33  1  0  0  0  0
  6 34  1  0  0  0  0
  7 35  1  0  0  0  0
  8 36  1  0  0  0  0
  9 37  1  0  0  0  0
 10 38  1  0  0  0  0
 11 39  1  0  0  0  0
 12 40  1  0  0  0  0
 20 41  1  0  0  0  0
 20 42  1  0  0  0  0
 20 43  1  0  0  0  0
 21 44  1  0  0  0  0
 21 45  1  0  0  0  0
 25 46  1  0  0  0  0
M  END
> <clash_score>
0.7184887571168097

> <docking_score>
-7.605975151062012

> <overlap_score>
0.9450508952140808

$$$$
BENZO_11_1
  -OEChem-08232013433D

 58 62  0     0  0  0  0  0  0999 V2000
    3.9160    2.0630   19.5520 C   0  0  0  0  0  0  0  0  0  0  0  0
    4.2750    1.7050   20.8490 C   0  0  0  0  0  0  0  0  0  0  0  0
    4.6890    1.6810   18.4640 C   0  0  0  0  0  0  0  0  0  0  0  0
    5.4210    0.9600   21.0930 C   0  0  0  0  0  0  0  0  0  0  0  0
    8.9960   -2.3380   25.5320 C   0  0  0  0  0  0  0  0  0  0  0  0
    9.6730   -3.4710   23.5300 C   0  0  0  0  0  0  0  0  0  0  0  0
    9.0720   -1.1280   24.8640 C   0  0  0  0  0  0  0  0  0  0  0  0
    9.7200   -2.2600   22.8630 C   0  0  0  0  0  0  0  0  0  0  0  0
   12.4808    1.9754   22.7353 C   0  0  0  0  0  0  0  0  0  0  0  0
   12.3948    0.3736   24.2392 C   0  0  0  0  0  0  0  0  0  0  0  0
   11.5881    1.2218   23.5206 C   0  0  0  0  0  0  0  0  0  0  0  0
    5.8300    0.9190   18.6970 C   0  0  0  0  0  0  0  0  0  0  0  0
    6.1790    0.5730   19.9990 C   0  0  0  0  0  0  0  0  0  0  0  0
    9.3070   -3.5340   24.8780 C   0  0  0  0  0  0  0  0  0  0  0  0
    9.3350   -1.0880   23.5010 C   0  0  0  0  0  0  0  0  0  0  0  0
    9.0420    0.3700   21.5280 C   0  0  0  0  0  0  0  0  0  0  0  0
    7.3635   -6.1361   27.1888 C   0  0  0  0  0  0  0  0  0  0  0  0
    8.1961   -4.9735   27.7341 C   0  0  0  0  0  0  0  0  0  0  0  0
    7.1942   -6.0394   25.6709 C   0  0  0  0  0  0  0  0  0  0  0  0
    9.5196   -4.8490   26.9797 C   0  0  0  0  0  0  0  0  0  0  0  0
    8.5442   -5.8838   24.9639 C   0  0  0  0  0  0  0  0  0  0  0  0
   14.8740    0.0245   24.3398 C   0  0  0  0  0  0  0  0  0  0  0  0
   10.0908    1.3225   23.5666 C   0  0  0  0  0  0  0  0  0  0  0  0
   13.7570    1.6360   22.9360 N   0  0  0  0  0  0  0  0  0  0  0  0
    6.7580    0.3810   17.8350 N   0  0  0  0  0  0  0  0  0  0  0  0
    7.6390   -0.2680   18.5410 N   0  0  0  0  0  0  0  0  0  0  0  0
   13.6719    0.6599   23.8557 N   0  0  0  0  0  0  0  0  0  0  0  0
    7.3170   -0.1610   19.8550 N   0  0  0  0  0  0  0  0  0  0  0  0
    9.2562   -4.7384   25.5422 N   0  0  0  0  0  0  0  0  0  0  0  0
    8.1890   -0.7180   20.8700 N   0  0  0  0  0  0  0  0  0  0  0  0
    9.4560    0.1560   22.8130 N   0  0  0  0  0  0  0  0  0  0  0  0
    9.2690    1.4140   20.9380 O   0  0  0  0  0  0  0  0  0  0  0  0
    3.0136    2.6526   19.3908 H   0  0  0  0  0  0  0  0  0  0  0  0
    3.6480    2.0140   21.6821 H   0  0  0  0  0  0  0  0  0  0  0  0
    4.4042    1.9741   17.4524 H   0  0  0  0  0  0  0  0  0  0  0  0
    5.7089    0.6919   22.1150 H   0  0  0  0  0  0  0  0  0  0  0  0
    8.6905   -2.3533   26.5810 H   0  0  0  0  0  0  0  0  0  0  0  0
    9.9266   -4.3896   22.9917 H   0  0  0  0  0  0  0  0  0  0  0  0
    8.9233   -0.1992   25.4231 H   0  0  0  0  0  0  0  0  0  0  0  0
   10.0650   -2.2330   21.8256 H   0  0  0  0  0  0  0  0  0  0  0  0
   12.2572    2.7588   22.0250 H   0  0  0  0  0  0  0  0  0  0  0  0
   12.1744   -0.3894   24.9735 H   0  0  0  0  0  0  0  0  0  0  0  0
    7.8482   -7.0901   27.4469 H   0  0  0  0  0  0  0  0  0  0  0  0
    6.3760   -6.1438   27.6724 H   0  0  0  0  0  0  0  0  0  0  0  0
    7.6307   -4.0424   27.6403 H   0  0  0  0  0  0  0  0  0  0  0  0
    8.3915   -5.1310   28.7968 H   0  0  0  0  0  0  0  0  0  0  0  0
    6.6888   -6.9376   25.3010 H   0  0  0  0  0  0  0  0  0  0  0  0
    6.5515   -5.1859   25.4257 H   0  0  0  0  0  0  0  0  0  0  0  0
   10.0492   -3.9640   27.3414 H   0  0  0  0  0  0  0  0  0  0  0  0
   10.1431   -5.7254   27.1778 H   0  0  0  0  0  0  0  0  0  0  0  0
    9.1338   -6.7931   25.0868 H   0  0  0  0  0  0  0  0  0  0  0  0
    8.3656   -5.7264   23.8998 H   0  0  0  0  0  0  0  0  0  0  0  0
   15.0860   -0.8322   23.6946 H   0  0  0  0  0  0  0  0  0  0  0  0
   15.7010    0.7393   24.3101 H   0  0  0  0  0  0  0  0  0  0  0  0
   14.7197   -0.3019   25.3720 H   0  0  0  0  0  0  0  0  0  0  0  0
    9.7347    1.3121   24.6025 H   0  0  0  0  0  0  0  0  0  0  0  0
    9.7457    2.2578   23.1134 H   0  0  0  0  0  0  0  0  0  0  0  0
    8.2565   -1.5523   21.1108 H   0  0  0  0  0  0  0  0  0  0  0  0
  1  2  1  0  0  0  0
  1  3  2  0  0  0  0
  2  4  2  0  0  0  0
  3 12  1  0  0  0  0
  4 13  1  0  0  0  0
  5  7  2  0  0  0  0
  5 14  1  0  0  0  0
  6  8  1  0  0  0  0
  6 14  2  0  0  0  0
  7 15  1  0  0  0  0
  8 15  2  0  0  0  0
  9 11  1  0  0  0  0
  9 24  2  0  0  0  0
 10 11  2  0  0  0  0
 10 27  1  0  0  0  0
 11 23  1  0  0  0  0
 12 13  2  0  0  0  0
 12 25  1  0  0  0  0
 13 28  1  0  0  0  0
 14 29  1  0  0  0  0
 15 31  1  0  0  0  0
 16 30  1  0  0  0  0
 16 31  1  0  0  0  0
 16 32  2  0  0  0  0
 17 18  1  0  0  0  0
 17 19  1  0  0  0  0
 18 20  1  0  0  0  0
 19 21  1  0  0  0  0
 20 29  1  0  0  0  0
 21 29  1  0  0  0  0
 22 27  1  0  0  0  0
 23 31  1  0  0  0  0
 24 27  1  0  0  0  0
 25 26  2  0  0  0  0
 26 28  1  0  0  0  0
 28 30  1  0  0  0  0
  1 33  1  0  0  0  0
  2 34  1  0  0  0  0
  3 35  1  0  0  0  0
  4 36  1  0  0  0  0
  5 37  1  0  0  0  0
  6 38  1  0  0  0  0
  7 39  1  0  0  0  0
  8 40  1  0  0  0  0
  9 41  1  0  0  0  0
 10 42  1  0  0  0  0
 17 43  1  0  0  0  0
 17 44  1  0  0  0  0
 18 45  1  0  0  0  0
 18 46  1  0  0  0  0
 19 47  1  0  0  0  0
 19 48  1  0  0  0  0
 20 49  1  0  0  0  0
 20 50  1  0  0  0  0
 21 51  1  0  0  0  0
 21 52  1  0  0  0  0
 22 53  1  0  0  0  0
 22 54  1  0  0  0  0
 22 55  1  0  0  0  0
 23 56  1  0  0  0  0
 23 57  1  0  0  0  0
 30 58  1  0  0  0  0
M  END
> <clash_score>
0

> <docking_score>
-8.118073463439941

> <overlap_score>
0.9955458641052246

$$$$
BENZO_10_1
  -OEChem-08232013433D

 58 62  0     0  0  0  0  0  0999 V2000
    3.9160    2.0630   19.5520 C   0  0  0  0  0  0  0  0  0  0  0  0
    4.2750    1.7050   20.8490 C   0  0  0  0  0  0  0  0  0  0  0  0
   13.7081    1.9650   22.6320 C   0  0  0  0  0  0  0  0  0  0  0  0
   12.3170    2.0573   22.6743 C   0  0  0  0  0  0  0  0  0  0  0  0
    4.6890    1.6810   18.4640 C   0  0  0  0  0  0  0  0  0  0  0  0
    5.4210    0.9600   21.0930 C   0  0  0  0  0  0  0  0  0  0  0  0
    8.9960   -2.3380   25.5320 C   0  0  0  0  0  0  0  0  0  0  0  0
    9.6730   -3.4710   23.5300 C   0  0  0  0  0  0  0  0  0  0  0  0
    9.0720   -1.1280   24.8640 C   0  0  0  0  0  0  0  0  0  0  0  0
    9.7200   -2.2600   22.8630 C   0  0  0  0  0  0  0  0  0  0  0  0
   14.3704    1.0372   23.4359 C   0  0  0  0  0  0  0  0  0  0  0  0
   12.2503    0.2940   24.3246 C   0  0  0  0  0  0  0  0  0  0  0  0
   11.5881    1.2218   23.5206 C   0  0  0  0  0  0  0  0  0  0  0  0
    5.8300    0.9190   18.6970 C   0  0  0  0  0  0  0  0  0  0  0  0
    6.1790    0.5730   19.9990 C   0  0  0  0  0  0  0  0  0  0  0  0
    9.3070   -3.5340   24.8780 C   0  0  0  0  0  0  0  0  0  0  0  0
    9.3350   -1.0880   23.5010 C   0  0  0  0  0  0  0  0  0  0  0  0
   13.6415    0.2017   24.2823 C   0  0  0  0  0  0  0  0  0  0  0  0
    9.0420    0.3700   21.5280 C   0  0  0  0  0  0  0  0  0  0  0  0
    7.3635   -6.1361   27.1888 C   0  0  0  0  0  0  0  0  0  0  0  0
    8.1961   -4.9735   27.7341 C   0  0  0  0  0  0  0  0  0  0  0  0
    7.1942   -6.0394   25.6709 C   0  0  0  0  0  0  0  0  0  0  0  0
    9.5196   -4.8490   26.9797 C   0  0  0  0  0  0  0  0  0  0  0  0
    8.5442   -5.8838   24.9639 C   0  0  0  0  0  0  0  0  0  0  0  0
   10.0908    1.3225   23.5666 C   0  0  0  0  0  0  0  0  0  0  0  0
    6.7580    0.3810   17.8350 N   0  0  0  0  0  0  0  0  0  0  0  0
    7.6390   -0.2680   18.5410 N   0  0  0  0  0  0  0  0  0  0  0  0
    7.3170   -0.1610   19.8550 N   0  0  0  0  0  0  0  0  0  0  0  0
    9.2562   -4.7384   25.5422 N   0  0  0  0  0  0  0  0  0  0  0  0
    8.1890   -0.7180   20.8700 N   0  0  0  0  0  0  0  0  0  0  0  0
    9.4560    0.1560   22.8130 N   0  0  0  0  0  0  0  0  0  0  0  0
    9.2690    1.4140   20.9380 O   0  0  0  0  0  0  0  0  0  0  0  0
   14.4592   -0.9420   25.2748 Cl  0  0  0  0  0  0  0  0  0  0  0  0
    3.0136    2.6526   19.3908 H   0  0  0  0  0  0  0  0  0  0  0  0
    3.6480    2.0140   21.6821 H   0  0  0  0  0  0  0  0  0  0  0  0
   14.2754    2.6159   21.9729 H   0  0  0  0  0  0  0  0  0  0  0  0
   11.8093    2.7832   22.0445 H   0  0  0  0  0  0  0  0  0  0  0  0
    4.4042    1.9741   17.4524 H   0  0  0  0  0  0  0  0  0  0  0  0
    5.7089    0.6919   22.1150 H   0  0  0  0  0  0  0  0  0  0  0  0
    8.6905   -2.3533   26.5810 H   0  0  0  0  0  0  0  0  0  0  0  0
    9.9266   -4.3896   22.9917 H   0  0  0  0  0  0  0  0  0  0  0  0
    8.9233   -0.1992   25.4231 H   0  0  0  0  0  0  0  0  0  0  0  0
   10.0650   -2.2330   21.8256 H   0  0  0  0  0  0  0  0  0  0  0  0
   15.4551    0.9766   23.3927 H   0  0  0  0  0  0  0  0  0  0  0  0
   11.6774   -0.3555   24.9825 H   0  0  0  0  0  0  0  0  0  0  0  0
    7.8482   -7.0901   27.4469 H   0  0  0  0  0  0  0  0  0  0  0  0
    6.3760   -6.1438   27.6724 H   0  0  0  0  0  0  0  0  0  0  0  0
    7.6307   -4.0424   27.6403 H   0  0  0  0  0  0  0  0  0  0  0  0
    8.3915   -5.1310   28.7968 H   0  0  0  0  0  0  0  0  0  0  0  0
    6.6888   -6.9376   25.3010 H   0  0  0  0  0  0  0  0  0  0  0  0
    6.5515   -5.1859   25.4257 H   0  0  0  0  0  0  0  0  0  0  0  0
   10.0492   -3.9640   27.3414 H   0  0  0  0  0  0  0  0  0  0  0  0
   10.1431   -5.7254   27.1778 H   0  0  0  0  0  0  0  0  0  0  0  0
    9.1338   -6.7931   25.0868 H   0  0  0  0  0  0  0  0  0  0  0  0
    8.3656   -5.7264   23.8998 H   0  0  0  0  0  0  0  0  0  0  0  0
    9.7347    1.3121   24.6025 H   0  0  0  0  0  0  0  0  0  0  0  0
    9.7457    2.2578   23.1134 H   0  0  0  0  0  0  0  0  0  0  0  0
    8.2565   -1.5523   21.1108 H   0  0  0  0  0  0  0  0  0  0  0  0
  1  2  1  0  0  0  0
  1  5  2  0  0  0  0
  2  6  2  0  0  0  0
  3  4  2  0  0  0  0
  3 11  1  0  0  0  0
  4 13  1  0  0  0  0
  5 14  1  0  0  0  0
  6 15  1  0  0  0  0
  7  9  2  0  0  0  0
  7 16  1  0  0  0  0
  8 10  1  0  0  0  0
  8 16  2  0  0  0  0
  9 17  1  0  0  0  0
 10 17  2  0  0  0  0
 11 18  2  0  0  0  0
 12 13  2  0  0  0  0
 12 18  1  0  0  0  0
 13 25  1  0  0  0  0
 14 15  2  0  0  0  0
 14 26  1  0  0  0  0
 15 28  1  0  0  0  0
 16 29  1  0  0  0  0
 17 31  1  0  0  0  0
 18 33  1  0  0  0  0
 19 30  1  0  0  0  0
 19 31  1  0  0  0  0
 19 32  2  0  0  0  0
 20 21  1  0  0  0  0
 20 22  1  0  0  0  0
 21 23  1  0  0  0  0
 22 24  1  0  0  0  0
 23 29  1  0  0  0  0
 24 29  1  0  0  0  0
 25 31  1  0  0  0  0
 26 27  2  0  0  0  0
 27 28  1  0  0  0  0
 28 30  1  0  0  0  0
  1 34  1  0  0  0  0
  2 35  1  0  0  0  0
  3 36  1  0  0  0  0
  4 37  1  0  0  0  0
  5 38  1  0  0  0  0
  6 39  1  0  0  0  0
  7 40  1  0  0  0  0
  8 41  1  0  0  0  0
  9 42  1  0  0  0  0
 10 43  1  0  0  0  0
 11 44  1  0  0  0  0
 12 45  1  0  0  0  0
 20 46  1  0  0  0  0
 20 47  1  0  0  0  0
 21 48  1  0  0  0  0
 21 49  1  0  0  0  0
 22 50  1  0  0  0  0
 22 51  1  0  0  0  0
 23 52  1  0  0  0  0
 23 53  1  0  0  0  0
 24 54  1  0  0  0  0
 24 55  1  0  0  0  0
 25 56  1  0  0  0  0
 25 57  1  0  0  0  0
 30 58  1  0  0  0  0
M  END
> <clash_score>
0.7352702131893838

> <docking_score>
-7.397939682006836

> <overlap_score>
0.9978117346763611

$$$$
BENZO_17_1
  -OEChem-08232013433D

 47 50  0     0  0  0  0  0  0999 V2000
   14.3763    1.1009   23.4978 C   0  0  0  0  0  0  0  0  0  0  0  0
   13.7377    2.3374   23.5905 C   0  0  0  0  0  0  0  0  0  0  0  0
   13.6219   -0.0706   23.4331 C   0  0  0  0  0  0  0  0  0  0  0  0
    3.9160    2.0630   19.5520 C   0  0  0  0  0  0  0  0  0  0  0  0
    4.2750    1.7050   20.8490 C   0  0  0  0  0  0  0  0  0  0  0  0
   12.3447    2.4026   23.6186 C   0  0  0  0  0  0  0  0  0  0  0  0
   12.2289   -0.0055   23.4612 C   0  0  0  0  0  0  0  0  0  0  0  0
    4.6890    1.6810   18.4640 C   0  0  0  0  0  0  0  0  0  0  0  0
    5.4210    0.9600   21.0930 C   0  0  0  0  0  0  0  0  0  0  0  0
    9.0720   -1.1280   24.8640 C   0  0  0  0  0  0  0  0  0  0  0  0
    9.7200   -2.2600   22.8630 C   0  0  0  0  0  0  0  0  0  0  0  0
    8.9960   -2.3380   25.5320 C   0  0  0  0  0  0  0  0  0  0  0  0
    9.6730   -3.4710   23.5300 C   0  0  0  0  0  0  0  0  0  0  0  0
   11.5902    1.2311   23.5539 C   0  0  0  0  0  0  0  0  0  0  0  0
    5.8300    0.9190   18.6970 C   0  0  0  0  0  0  0  0  0  0  0  0
    6.1790    0.5730   19.9990 C   0  0  0  0  0  0  0  0  0  0  0  0
    9.3350   -1.0880   23.5010 C   0  0  0  0  0  0  0  0  0  0  0  0
    9.3070   -3.5340   24.8780 C   0  0  0  0  0  0  0  0  0  0  0  0
    9.0420    0.3700   21.5280 C   0  0  0  0  0  0  0  0  0  0  0  0
    8.8720   -4.6805   26.9013 C   0  0  0  0  0  0  0  0  0  0  0  0
   10.0907    1.3005   23.5844 C   0  0  0  0  0  0  0  0  0  0  0  0
    6.7580    0.3810   17.8350 N   0  0  0  0  0  0  0  0  0  0  0  0
    7.6390   -0.2680   18.5410 N   0  0  0  0  0  0  0  0  0  0  0  0
    7.3170   -0.1610   19.8550 N   0  0  0  0  0  0  0  0  0  0  0  0
    8.1890   -0.7180   20.8700 N   0  0  0  0  0  0  0  0  0  0  0  0
    9.4560    0.1560   22.8130 N   0  0  0  0  0  0  0  0  0  0  0  0
    9.2690    1.4140   20.9380 O   0  0  0  0  0  0  0  0  0  0  0  0
    9.2555   -4.7124   25.5274 O   0  0  0  0  0  0  0  0  0  0  0  0
   15.4610    1.0504   23.4746 H   0  0  0  0  0  0  0  0  0  0  0  0
   14.3250    3.2498   23.6398 H   0  0  0  0  0  0  0  0  0  0  0  0
   14.1187   -1.0335   23.3598 H   0  0  0  0  0  0  0  0  0  0  0  0
    3.0136    2.6526   19.3908 H   0  0  0  0  0  0  0  0  0  0  0  0
    3.6480    2.0140   21.6821 H   0  0  0  0  0  0  0  0  0  0  0  0
   11.8557    3.3705   23.6912 H   0  0  0  0  0  0  0  0  0  0  0  0
   11.6492   -0.9234   23.4104 H   0  0  0  0  0  0  0  0  0  0  0  0
    4.4042    1.9741   17.4524 H   0  0  0  0  0  0  0  0  0  0  0  0
    5.7089    0.6919   22.1150 H   0  0  0  0  0  0  0  0  0  0  0  0
    8.9221   -0.1995   25.4231 H   0  0  0  0  0  0  0  0  0  0  0  0
   10.0642   -2.2347   21.8253 H   0  0  0  0  0  0  0  0  0  0  0  0
    8.6902   -2.3588   26.5805 H   0  0  0  0  0  0  0  0  0  0  0  0
    9.9254   -4.3921   22.9961 H   0  0  0  0  0  0  0  0  0  0  0  0
    8.8711   -5.6964   27.3038 H   0  0  0  0  0  0  0  0  0  0  0  0
    7.8758   -4.2402   26.9923 H   0  0  0  0  0  0  0  0  0  0  0  0
    9.5894   -4.0716   27.4566 H   0  0  0  0  0  0  0  0  0  0  0  0
    9.7235    1.2669   24.6159 H   0  0  0  0  0  0  0  0  0  0  0  0
    9.7315    2.2355   23.1416 H   0  0  0  0  0  0  0  0  0  0  0  0
    8.2278   -1.5705   21.0849 H   0  0  0  0  0  0  0  0  0  0  0  0
  1  2  1  0  0  0  0
  1  3  2  0  0  0  0
  2  6  2  0  0  0  0
  3  7  1  0  0  0  0
  4  5  1  0  0  0  0
  4  8  2  0  0  0  0
  5  9  2  0  0  0  0
  6 14  1  0  0  0  0
  7 14  2  0  0  0  0
  8 15  1  0  0  0  0
  9 16  1  0  0  0  0
 10 12  2  0  0  0  0
 10 17  1  0  0  0  0
 11 13  1  0  0  0  0
 11 17  2  0  0  0  0
 12 18  1  0  0  0  0
 13 18  2  0  0  0  0
 14 21  1  0  0  0  0
 15 16  2  0  0  0  0
 15 22  1  0  0  0  0
 16 24  1  0  0  0  0
 17 26  1  0  0  0  0
 18 28  1  0  0  0  0
 19 25  1  0  0  0  0
 19 26  1  0  0  0  0
 19 27  2  0  0  0  0
 20 28  1  0  0  0  0
 21 26  1  0  0  0  0
 22 23  2  0  0  0  0
 23 24  1  0  0  0  0
 24 25  1  0  0  0  0
  1 29  1  0  0  0  0
  2 30  1  0  0  0  0
  3 31  1  0  0  0  0
  4 32  1  0  0  0  0
  5 33  1  0  0  0  0
  6 34  1  0  0  0  0
  7 35  1  0  0  0  0
  8 36  1  0  0  0  0
  9 37  1  0  0  0  0
 10 38  1  0  0  0  0
 11 39  1  0  0  0  0
 12 40  1  0  0  0  0
 13 41  1  0  0  0  0
 20 42  1  0  0  0  0
 20 43  1  0  0  0  0
 20 44  1  0  0  0  0
 21 45  1  0  0  0  0
 21 46  1  0  0  0  0
 25 47  1  0  0  0  0
M  END
> <clash_score>
0

> <docking_score>
-7.104768753051758

> <overlap_score>
0.9670417308807373

$$$$
BENZO_16_1
  -OEChem-08232013433D

 44 47  0     0  0  0  0  0  0999 V2000
    3.9160    2.0630   19.5520 C   0  0  0  0  0  0  0  0  0  0  0  0
    4.2750    1.7050   20.8490 C   0  0  0  0  0  0  0  0  0  0  0  0
    4.6890    1.6810   18.4640 C   0  0  0  0  0  0  0  0  0  0  0  0
    5.4210    0.9600   21.0930 C   0  0  0  0  0  0  0  0  0  0  0  0
    9.0720   -1.1280   24.8640 C   0  0  0  0  0  0  0  0  0  0  0  0
    9.7200   -2.2600   22.8630 C   0  0  0  0  0  0  0  0  0  0  0  0
    8.9960   -2.3380   25.5320 C   0  0  0  0  0  0  0  0  0  0  0  0
    9.6730   -3.4710   23.5300 C   0  0  0  0  0  0  0  0  0  0  0  0
   12.4395    2.3744   23.5961 C   0  0  0  0  0  0  0  0  0  0  0  0
   13.7727    2.0304   23.5542 C   0  0  0  0  0  0  0  0  0  0  0  0
   12.3068    0.0567   23.4811 C   0  0  0  0  0  0  0  0  0  0  0  0
   11.5902    1.2311   23.5539 C   0  0  0  0  0  0  0  0  0  0  0  0
    5.8300    0.9190   18.6970 C   0  0  0  0  0  0  0  0  0  0  0  0
    6.1790    0.5730   19.9990 C   0  0  0  0  0  0  0  0  0  0  0  0
    9.3350   -1.0880   23.5010 C   0  0  0  0  0  0  0  0  0  0  0  0
    9.3070   -3.5340   24.8780 C   0  0  0  0  0  0  0  0  0  0  0  0
    9.0420    0.3700   21.5280 C   0  0  0  0  0  0  0  0  0  0  0  0
    8.8720   -4.6805   26.9013 C   0  0  0  0  0  0  0  0  0  0  0  0
   10.0907    1.3005   23.5844 C   0  0  0  0  0  0  0  0  0  0  0  0
    6.7580    0.3810   17.8350 N   0  0  0  0  0  0  0  0  0  0  0  0
    7.6390   -0.2680   18.5410 N   0  0  0  0  0  0  0  0  0  0  0  0
    7.3170   -0.1610   19.8550 N   0  0  0  0  0  0  0  0  0  0  0  0
    8.1890   -0.7180   20.8700 N   0  0  0  0  0  0  0  0  0  0  0  0
    9.4560    0.1560   22.8130 N   0  0  0  0  0  0  0  0  0  0  0  0
    9.2690    1.4140   20.9380 O   0  0  0  0  0  0  0  0  0  0  0  0
    9.2555   -4.7124   25.5274 O   0  0  0  0  0  0  0  0  0  0  0  0
   13.9963    0.3350   23.4642 S   0  0  0  0  0  0  0  0  0  0  0  0
    3.0136    2.6526   19.3908 H   0  0  0  0  0  0  0  0  0  0  0  0
    3.6480    2.0140   21.6821 H   0  0  0  0  0  0  0  0  0  0  0  0
    4.4042    1.9741   17.4524 H   0  0  0  0  0  0  0  0  0  0  0  0
    5.7089    0.6919   22.1150 H   0  0  0  0  0  0  0  0  0  0  0  0
    8.9221   -0.1995   25.4231 H   0  0  0  0  0  0  0  0  0  0  0  0
   10.0642   -2.2347   21.8253 H   0  0  0  0  0  0  0  0  0  0  0  0
    8.6902   -2.3588   26.5805 H   0  0  0  0  0  0  0  0  0  0  0  0
    9.9254   -4.3921   22.9961 H   0  0  0  0  0  0  0  0  0  0  0  0
   12.0943    3.3990   23.6539 H   0  0  0  0  0  0  0  0  0  0  0  0
   14.6262    2.6934   23.5714 H   0  0  0  0  0  0  0  0  0  0  0  0
   11.9230   -0.9530   23.4357 H   0  0  0  0  0  0  0  0  0  0  0  0
    8.8711   -5.6964   27.3038 H   0  0  0  0  0  0  0  0  0  0  0  0
    7.8758   -4.2402   26.9923 H   0  0  0  0  0  0  0  0  0  0  0  0
    9.5894   -4.0716   27.4566 H   0  0  0  0  0  0  0  0  0  0  0  0
    9.7235    1.2669   24.6159 H   0  0  0  0  0  0  0  0  0  0  0  0
    9.7315    2.2355   23.1416 H   0  0  0  0  0  0  0  0  0  0  0  0
    8.2278   -1.5705   21.0849 H   0  0  0  0  0  0  0  0  0  0  0  0
  1  2  1  0  0  0  0
  1  3  2  0  0  0  0
  2  4  2  0  0  0  0
  3 13  1  0  0  0  0
  4 14  1  0  0  0  0
  5  7  2  0  0  0  0
  5 15  1  0  0  0  0
  6  8  1  0  0  0  0
  6 15  2  0  0  0  0
  7 16  1  0  0  0  0
  8 16  2  0  0  0  0
  9 10  2  0  0  0  0
  9 12  1  0  0  0  0
 10 27  1  0  0  0  0
 11 12  2  0  0  0  0
 11 27  1  0  0  0  0
 12 19  1  0  0  0  0
 13 14  2  0  0  0  0
 13 20  1  0  0  0  0
 14 22  1  0  0  0  0
 15 24  1  0  0  0  0
 16 26  1  0  0  0  0
 17 23  1  0  0  0  0
 17 24  1  0  0  0  0
 17 25  2  0  0  0  0
 18 26  1  0  0  0  0
 19 24  1  0  0  0  0
 20 21  2  0  0  0  0
 21 22  1  0  0  0  0
 22 23  1  0  0  0  0
  1 28  1  0  0  0  0
  2 29  1  0  0  0  0
  3 30  1  0  0  0  0
  4 31  1  0  0  0  0
  5 32  1  0  0  0  0
  6 33  1  0  0  0  0
  7 34  1  0  0  0  0
  8 35  1  0  0  0  0
  9 36  1  0  0  0  0
 10 37  1  0  0  0  0
 11 38  1  0  0  0  0
 18 39  1  0  0  0  0
 18 40  1  0  0  0  0
 18 41  1  0  0  0  0
 19 42  1  0  0  0  0
 19 43  1  0  0  0  0
 23 44  1  0  0  0  0
M  END
> <clash_score>
0

> <docking_score>
-7.894054412841797

> <overlap_score>
0.955251932144165

$$$$
BENZO_19_1
  -OEChem-08232013433D

 47 50  0     0  0  0  0  0  0999 V2000
    3.9160    2.0630   19.5520 C   0  0  0  0  0  0  0  0  0  0  0  0
    4.2750    1.7050   20.8490 C   0  0  0  0  0  0  0  0  0  0  0  0
    4.6890    1.6810   18.4640 C   0  0  0  0  0  0  0  0  0  0  0  0
    5.4210    0.9600   21.0930 C   0  0  0  0  0  0  0  0  0  0  0  0
    9.0720   -1.1280   24.8640 C   0  0  0  0  0  0  0  0  0  0  0  0
    9.7200   -2.2600   22.8630 C   0  0  0  0  0  0  0  0  0  0  0  0
    8.9960   -2.3380   25.5320 C   0  0  0  0  0  0  0  0  0  0  0  0
    9.6730   -3.4710   23.5300 C   0  0  0  0  0  0  0  0  0  0  0  0
   12.4759    2.0148   22.7903 C   0  0  0  0  0  0  0  0  0  0  0  0
   12.4062    0.3887   24.2687 C   0  0  0  0  0  0  0  0  0  0  0  0
   11.5902    1.2311   23.5539 C   0  0  0  0  0  0  0  0  0  0  0  0
    5.8300    0.9190   18.6970 C   0  0  0  0  0  0  0  0  0  0  0  0
    6.1790    0.5730   19.9990 C   0  0  0  0  0  0  0  0  0  0  0  0
    9.3350   -1.0880   23.5010 C   0  0  0  0  0  0  0  0  0  0  0  0
    9.3070   -3.5340   24.8780 C   0  0  0  0  0  0  0  0  0  0  0  0
    9.0420    0.3700   21.5280 C   0  0  0  0  0  0  0  0  0  0  0  0
   14.8909    0.0887   24.3922 C   0  0  0  0  0  0  0  0  0  0  0  0
    9.5894   -5.8809   24.7798 C   0  0  0  0  0  0  0  0  0  0  0  0
   10.0907    1.3005   23.5844 C   0  0  0  0  0  0  0  0  0  0  0  0
   13.7565    1.6985   23.0003 N   0  0  0  0  0  0  0  0  0  0  0  0
    6.7580    0.3810   17.8350 N   0  0  0  0  0  0  0  0  0  0  0  0
    7.6390   -0.2680   18.5410 N   0  0  0  0  0  0  0  0  0  0  0  0
   13.6814    0.7068   23.9042 N   0  0  0  0  0  0  0  0  0  0  0  0
    7.3170   -0.1610   19.8550 N   0  0  0  0  0  0  0  0  0  0  0  0
    8.1890   -0.7180   20.8700 N   0  0  0  0  0  0  0  0  0  0  0  0
    9.4560    0.1560   22.8130 N   0  0  0  0  0  0  0  0  0  0  0  0
    9.2690    1.4140   20.9380 O   0  0  0  0  0  0  0  0  0  0  0  0
    9.2555   -4.7124   25.5274 O   0  0  0  0  0  0  0  0  0  0  0  0
    3.0136    2.6526   19.3908 H   0  0  0  0  0  0  0  0  0  0  0  0
    3.6480    2.0140   21.6821 H   0  0  0  0  0  0  0  0  0  0  0  0
    4.4042    1.9741   17.4524 H   0  0  0  0  0  0  0  0  0  0  0  0
    5.7089    0.6919   22.1150 H   0  0  0  0  0  0  0  0  0  0  0  0
    8.9221   -0.1995   25.4231 H   0  0  0  0  0  0  0  0  0  0  0  0
   10.0642   -2.2347   21.8253 H   0  0  0  0  0  0  0  0  0  0  0  0
    8.6902   -2.3588   26.5805 H   0  0  0  0  0  0  0  0  0  0  0  0
    9.9254   -4.3921   22.9961 H   0  0  0  0  0  0  0  0  0  0  0  0
   12.2440    2.8044   22.0895 H   0  0  0  0  0  0  0  0  0  0  0  0
   12.1934   -0.3899   24.9887 H   0  0  0  0  0  0  0  0  0  0  0  0
   15.1275   -0.7534   23.7365 H   0  0  0  0  0  0  0  0  0  0  0  0
   15.7032    0.8207   24.3827 H   0  0  0  0  0  0  0  0  0  0  0  0
   14.7319   -0.2566   25.4175 H   0  0  0  0  0  0  0  0  0  0  0  0
    9.5074   -6.7611   25.4222 H   0  0  0  0  0  0  0  0  0  0  0  0
   10.6088   -5.7902   24.3963 H   0  0  0  0  0  0  0  0  0  0  0  0
    8.8944   -5.9778   23.9424 H   0  0  0  0  0  0  0  0  0  0  0  0
    9.7235    1.2669   24.6159 H   0  0  0  0  0  0  0  0  0  0  0  0
    9.7315    2.2355   23.1416 H   0  0  0  0  0  0  0  0  0  0  0  0
    8.2278   -1.5705   21.0849 H   0  0  0  0  0  0  0  0  0  0  0  0
  1  2  1  0  0  0  0
  1  3  2  0  0  0  0
  2  4  2  0  0  0  0
  3 12  1  0  0  0  0
  4 13  1  0  0  0  0
  5  7  2  0  0  0  0
  5 14  1  0  0  0  0
  6  8  1  0  0  0  0
  6 14  2  0  0  0  0
  7 15  1  0  0  0  0
  8 15  2  0  0  0  0
  9 11  1  0  0  0  0
  9 20  2  0  0  0  0
 10 11  2  0  0  0  0
 10 23  1  0  0  0  0
 11 19  1  0  0  0  0
 12 13  2  0  0  0  0
 12 21  1  0  0  0  0
 13 24  1  0  0  0  0
 14 26  1  0  0  0  0
 15 28  1  0  0  0  0
 16 25  1  0  0  0  0
 16 26  1  0  0  0  0
 16 27  2  0  0  0  0
 17 23  1  0  0  0  0
 18 28  1  0  0  0  0
 19 26  1  0  0  0  0
 20 23  1  0  0  0  0
 21 22  2  0  0  0  0
 22 24  1  0  0  0  0
 24 25  1  0  0  0  0
  1 29  1  0  0  0  0
  2 30  1  0  0  0  0
  3 31  1  0  0  0  0
  4 32  1  0  0  0  0
  5 33  1  0  0  0  0
  6 34  1  0  0  0  0
  7 35  1  0  0  0  0
  8 36  1  0  0  0  0
  9 37  1  0  0  0  0
 10 38  1  0  0  0  0
 17 39  1  0  0  0  0
 17 40  1  0  0  0  0
 17 41  1  0  0  0  0
 18 42  1  0  0  0  0
 18 43  1  0  0  0  0
 18 44  1  0  0  0  0
 19 45  1  0  0  0  0
 19 46  1  0  0  0  0
 25 47  1  0  0  0  0
M  END
> <clash_score>
0

> <docking_score>
-8.100885391235352

> <overlap_score>
0.9671675562858582

$$$$
BENZO_18_1
  -OEChem-08232013433D

 47 50  0     0  0  0  0  0  0999 V2000
    3.9160    2.0630   19.5520 C   0  0  0  0  0  0  0  0  0  0  0  0
    4.2750    1.7050   20.8490 C   0  0  0  0  0  0  0  0  0  0  0  0
   13.7042    2.0311   22.7008 C   0  0  0  0  0  0  0  0  0  0  0  0
   12.3111    2.0942   22.7287 C   0  0  0  0  0  0  0  0  0  0  0  0
    4.6890    1.6810   18.4640 C   0  0  0  0  0  0  0  0  0  0  0  0
    5.4210    0.9600   21.0930 C   0  0  0  0  0  0  0  0  0  0  0  0
    9.0720   -1.1280   24.8640 C   0  0  0  0  0  0  0  0  0  0  0  0
    9.7200   -2.2600   22.8630 C   0  0  0  0  0  0  0  0  0  0  0  0
    8.9960   -2.3380   25.5320 C   0  0  0  0  0  0  0  0  0  0  0  0
    9.6730   -3.4710   23.5300 C   0  0  0  0  0  0  0  0  0  0  0  0
   14.3765    1.1047   23.4981 C   0  0  0  0  0  0  0  0  0  0  0  0
   12.2625    0.3048   24.3513 C   0  0  0  0  0  0  0  0  0  0  0  0
   11.5902    1.2311   23.5539 C   0  0  0  0  0  0  0  0  0  0  0  0
    5.8300    0.9190   18.6970 C   0  0  0  0  0  0  0  0  0  0  0  0
    6.1790    0.5730   19.9990 C   0  0  0  0  0  0  0  0  0  0  0  0
    9.3350   -1.0880   23.5010 C   0  0  0  0  0  0  0  0  0  0  0  0
    9.3070   -3.5340   24.8780 C   0  0  0  0  0  0  0  0  0  0  0  0
   13.6556    0.2416   24.3233 C   0  0  0  0  0  0  0  0  0  0  0  0
    9.0420    0.3700   21.5280 C   0  0  0  0  0  0  0  0  0  0  0  0
    9.5894   -5.8809   24.7798 C   0  0  0  0  0  0  0  0  0  0  0  0
   10.0907    1.3005   23.5844 C   0  0  0  0  0  0  0  0  0  0  0  0
    6.7580    0.3810   17.8350 N   0  0  0  0  0  0  0  0  0  0  0  0
    7.6390   -0.2680   18.5410 N   0  0  0  0  0  0  0  0  0  0  0  0
    7.3170   -0.1610   19.8550 N   0  0  0  0  0  0  0  0  0  0  0  0
    8.1890   -0.7180   20.8700 N   0  0  0  0  0  0  0  0  0  0  0  0
    9.4560    0.1560   22.8130 N   0  0  0  0  0  0  0  0  0  0  0  0
    9.2690    1.4140   20.9380 O   0  0  0  0  0  0  0  0  0  0  0  0
    9.2555   -4.7124   25.5274 O   0  0  0  0  0  0  0  0  0  0  0  0
   14.4857   -0.9003   25.3076 Cl  0  0  0  0  0  0  0  0  0  0  0  0
    3.0136    2.6526   19.3908 H   0  0  0  0  0  0  0  0  0  0  0  0
    3.6480    2.0140   21.6821 H   0  0  0  0  0  0  0  0  0  0  0  0
   14.2652    2.7035   22.0582 H   0  0  0  0  0  0  0  0  0  0  0  0
   11.7956    2.8192   22.1042 H   0  0  0  0  0  0  0  0  0  0  0  0
    4.4042    1.9741   17.4524 H   0  0  0  0  0  0  0  0  0  0  0  0
    5.7089    0.6919   22.1150 H   0  0  0  0  0  0  0  0  0  0  0  0
    8.9221   -0.1995   25.4231 H   0  0  0  0  0  0  0  0  0  0  0  0
   10.0642   -2.2347   21.8253 H   0  0  0  0  0  0  0  0  0  0  0  0
    8.6902   -2.3588   26.5805 H   0  0  0  0  0  0  0  0  0  0  0  0
    9.9254   -4.3921   22.9961 H   0  0  0  0  0  0  0  0  0  0  0  0
   15.4626    1.0670   23.4663 H   0  0  0  0  0  0  0  0  0  0  0  0
   11.6958   -0.3663   24.9926 H   0  0  0  0  0  0  0  0  0  0  0  0
    9.5074   -6.7611   25.4222 H   0  0  0  0  0  0  0  0  0  0  0  0
   10.6088   -5.7902   24.3963 H   0  0  0  0  0  0  0  0  0  0  0  0
    8.8944   -5.9778   23.9424 H   0  0  0  0  0  0  0  0  0  0  0  0
    9.7235    1.2669   24.6159 H   0  0  0  0  0  0  0  0  0  0  0  0
    9.7315    2.2355   23.1416 H   0  0  0  0  0  0  0  0  0  0  0  0
    8.2278   -1.5705   21.0849 H   0  0  0  0  0  0  0  0  0  0  0  0
  1  2  1  0  0  0  0
  1  5  2  0  0  0  0
  2  6  2  0  0  0  0
  3  4  2  0  0  0  0
  3 11  1  0  0  0  0
  4 13  1  0  0  0  0
  5 14  1  0  0  0  0
  6 15  1  0  0  0  0
  7  9  2  0  0  0  0
  7 16  1  0  0  0  0
  8 10  1  0  0  0  0
  8 16  2  0  0  0  0
  9 17  1  0  0  0  0
 10 17  2  0  0  0  0
 11 18  2  0  0  0  0
 12 13  2  0  0  0  0
 12 18  1  0  0  0  0
 13 21  1  0  0  0  0
 14 15  2  0  0  0  0
 14 22  1  0  0  0  0
 15 24  1  0  0  0  0
 16 26  1  0  0  0  0
 17 28  1  0  0  0  0
 18 29  1  0  0  0  0
 19 25  1  0  0  0  0
 19 26  1  0  0  0  0
 19 27  2  0  0  0  0
 20 28  1  0  0  0  0
 21 26  1  0  0  0  0
 22 23  2  0  0  0  0
 23 24  1  0  0  0  0
 24 25  1  0  0  0  0
  1 30  1  0  0  0  0
  2 31  1  0  0  0  0
  3 32  1  0  0  0  0
  4 33  1  0  0  0  0
  5 34  1  0  0  0  0
  6 35  1  0  0  0  0
  7 36  1  0  0  0  0
  8 37  1  0  0  0  0
  9 38  1  0  0  0  0
 10 39  1  0  0  0  0
 11 40  1  0  0  0  0
 12 41  1  0  0  0  0
 20 42  1  0  0  0  0
 20 43  1  0  0  0  0
 20 44  1  0  0  0  0
 21 45  1  0  0  0  0
 21 46  1  0  0  0  0
 25 47  1  0  0  0  0
M  END
> <clash_score>
0.7184887571168097

> <docking_score>
-7.312086582183838

> <overlap_score>
0.9698110818862915

$$$$
BENZO_21_1
  -OEChem-08232013433D

 57 61  0     0  0  0  0  0  0999 V2000
   14.3753    1.0886   23.5202 C   0  0  0  0  0  0  0  0  0  0  0  0
   13.6549    0.4806   24.5483 C   0  0  0  0  0  0  0  0  0  0  0  0
   13.7029    1.7727   22.5074 C   0  0  0  0  0  0  0  0  0  0  0  0
    3.9160    2.0630   19.5520 C   0  0  0  0  0  0  0  0  0  0  0  0
    4.2750    1.7050   20.8490 C   0  0  0  0  0  0  0  0  0  0  0  0
   12.2622    0.5565   24.5636 C   0  0  0  0  0  0  0  0  0  0  0  0
   12.3102    1.8486   22.5227 C   0  0  0  0  0  0  0  0  0  0  0  0
    4.6890    1.6810   18.4640 C   0  0  0  0  0  0  0  0  0  0  0  0
    5.4210    0.9600   21.0930 C   0  0  0  0  0  0  0  0  0  0  0  0
    8.9960   -2.3380   25.5320 C   0  0  0  0  0  0  0  0  0  0  0  0
    9.6730   -3.4710   23.5300 C   0  0  0  0  0  0  0  0  0  0  0  0
    9.0720   -1.1280   24.8640 C   0  0  0  0  0  0  0  0  0  0  0  0
    9.7200   -2.2600   22.8630 C   0  0  0  0  0  0  0  0  0  0  0  0
   11.5898    1.2405   23.5508 C   0  0  0  0  0  0  0  0  0  0  0  0
    5.8300    0.9190   18.6970 C   0  0  0  0  0  0  0  0  0  0  0  0
    6.1790    0.5730   19.9990 C   0  0  0  0  0  0  0  0  0  0  0  0
    9.3070   -3.5340   24.8780 C   0  0  0  0  0  0  0  0  0  0  0  0
    9.3350   -1.0880   23.5010 C   0  0  0  0  0  0  0  0  0  0  0  0
    8.3597   -5.0073   26.6307 C   0  0  0  0  0  0  0  0  0  0  0  0
    9.0420    0.3700   21.5280 C   0  0  0  0  0  0  0  0  0  0  0  0
    8.4720   -6.3981   27.2296 C   0  0  0  0  0  0  0  0  0  0  0  0
    9.9252   -6.7605   27.4803 C   0  0  0  0  0  0  0  0  0  0  0  0
   10.7833   -6.6094   26.2282 C   0  0  0  0  0  0  0  0  0  0  0  0
   10.0539   -5.9099   25.0823 C   0  0  0  0  0  0  0  0  0  0  0  0
   10.0908    1.3225   23.5666 C   0  0  0  0  0  0  0  0  0  0  0  0
    6.7580    0.3810   17.8350 N   0  0  0  0  0  0  0  0  0  0  0  0
    7.6390   -0.2680   18.5410 N   0  0  0  0  0  0  0  0  0  0  0  0
    7.3170   -0.1610   19.8550 N   0  0  0  0  0  0  0  0  0  0  0  0
    9.2530   -4.7797   25.5644 N   0  0  0  0  0  0  0  0  0  0  0  0
    8.1890   -0.7180   20.8700 N   0  0  0  0  0  0  0  0  0  0  0  0
    9.4560    0.1560   22.8130 N   0  0  0  0  0  0  0  0  0  0  0  0
    7.4954   -4.2356   27.0450 O   0  0  0  0  0  0  0  0  0  0  0  0
    9.2690    1.4140   20.9380 O   0  0  0  0  0  0  0  0  0  0  0  0
   15.4598    1.0305   23.5091 H   0  0  0  0  0  0  0  0  0  0  0  0
   14.1783   -0.0512   25.3375 H   0  0  0  0  0  0  0  0  0  0  0  0
   14.2635    2.2471   21.7074 H   0  0  0  0  0  0  0  0  0  0  0  0
    3.0136    2.6526   19.3908 H   0  0  0  0  0  0  0  0  0  0  0  0
    3.6480    2.0140   21.6821 H   0  0  0  0  0  0  0  0  0  0  0  0
   11.7092    0.0795   25.3685 H   0  0  0  0  0  0  0  0  0  0  0  0
   11.7948    2.3836   21.7294 H   0  0  0  0  0  0  0  0  0  0  0  0
    4.4042    1.9741   17.4524 H   0  0  0  0  0  0  0  0  0  0  0  0
    5.7089    0.6919   22.1150 H   0  0  0  0  0  0  0  0  0  0  0  0
    8.6895   -2.3529   26.5807 H   0  0  0  0  0  0  0  0  0  0  0  0
    9.9262   -4.3897   22.9916 H   0  0  0  0  0  0  0  0  0  0  0  0
    8.9224   -0.1998   25.4238 H   0  0  0  0  0  0  0  0  0  0  0  0
   10.0649   -2.2343   21.8258 H   0  0  0  0  0  0  0  0  0  0  0  0
    7.9325   -6.4148   28.1641 H   0  0  0  0  0  0  0  0  0  0  0  0
    8.0254   -7.0920   26.5333 H   0  0  0  0  0  0  0  0  0  0  0  0
   10.3387   -6.1267   28.2923 H   0  0  0  0  0  0  0  0  0  0  0  0
    9.9904   -7.8023   27.8537 H   0  0  0  0  0  0  0  0  0  0  0  0
   11.7037   -6.0404   26.4771 H   0  0  0  0  0  0  0  0  0  0  0  0
   11.1411   -7.6068   25.8918 H   0  0  0  0  0  0  0  0  0  0  0  0
   10.7782   -5.5162   24.3756 H   0  0  0  0  0  0  0  0  0  0  0  0
    9.4042   -6.6189   24.5807 H   0  0  0  0  0  0  0  0  0  0  0  0
    9.7125    1.2790   24.5938 H   0  0  0  0  0  0  0  0  0  0  0  0
    9.7442    2.2660   23.1320 H   0  0  0  0  0  0  0  0  0  0  0  0
    8.2565   -1.5523   21.1108 H   0  0  0  0  0  0  0  0  0  0  0  0
  1  2  1  0  0  0  0
  1  3  2  0  0  0  0
  2  6  2  0  0  0  0
  3  7  1  0  0  0  0
  4  5  1  0  0  0  0
  4  8  2  0  0  0  0
  5  9  2  0  0  0  0
  6 14  1  0  0  0  0
  7 14  2  0  0  0  0
  8 15  1  0  0  0  0
  9 16  1  0  0  0  0
 10 12  2  0  0  0  0
 10 17  1  0  0  0  0
 11 13  1  0  0  0  0
 11 17  2  0  0  0  0
 12 18  1  0  0  0  0
 13 18  2  0  0  0  0
 14 25  1  0  0  0  0
 15 16  2  0  0  0  0
 15 26  1  0  0  0  0
 16 28  1  0  0  0  0
 17 29  1  0  0  0  0
 18 31  1  0  0  0  0
 19 21  1  0  0  0  0
 19 29  1  0  0  0  0
 19 32  2  0  0  0  0
 20 30  1  0  0  0  0
 20 31  1  0  0  0  0
 20 33  2  0  0  0  0
 21 22  1  0  0  0  0
 22 23  1  0  0  0  0
 23 24  1  0  0  0  0
 24 29  1  0  0  0  0
 25 31  1  0  0  0  0
 26 27  2  0  0  0  0
 27 28  1  0  0  0  0
 28 30  1  0  0  0  0
  1 34  1  0  0  0  0
  2 35  1  0  0  0  0
  3 36  1  0  0  0  0
  4 37  1  0  0  0  0
  5 38  1  0  0  0  0
  6 39  1  0  0  0  0
  7 40  1  0  0  0  0
  8 41  1  0  0  0  0
  9 42  1  0  0  0  0
 10 43  1  0  0  0  0
 11 44  1  0  0  0  0
 12 45  1  0  0  0  0
 13 46  1  0  0  0  0
 21 47  1  0  0  0  0
 21 48  1  0  0  0  0
 22 49  1  0  0  0  0
 22 50  1  0  0  0  0
 23 51  1  0  0  0  0
 23 52  1  0  0  0  0
 24 53  1  0  0  0  0
 24 54  1  0  0  0  0
 25 55  1  0  0  0  0
 25 56  1  0  0  0  0
 30 57  1  0  0  0  0
M  END
> <clash_score>
0.7790763812073098

> <docking_score>
-7.648222923278809

> <overlap_score>
1.0029655694961548

$$$$
BENZO_20_1
  -OEChem-08232013433D

 54 58  0     0  0  0  0  0  0999 V2000
    3.9160    2.0630   19.5520 C   0  0  0  0  0  0  0  0  0  0  0  0
    4.2750    1.7050   20.8490 C   0  0  0  0  0  0  0  0  0  0  0  0
    4.6890    1.6810   18.4640 C   0  0  0  0  0  0  0  0  0  0  0  0
    5.4210    0.9600   21.0930 C   0  0  0  0  0  0  0  0  0  0  0  0
    8.9960   -2.3380   25.5320 C   0  0  0  0  0  0  0  0  0  0  0  0
    9.6730   -3.4710   23.5300 C   0  0  0  0  0  0  0  0  0  0  0  0
    9.0720   -1.1280   24.8640 C   0  0  0  0  0  0  0  0  0  0  0  0
    9.7200   -2.2600   22.8630 C   0  0  0  0  0  0  0  0  0  0  0  0
   12.3748    1.2716   22.3621 C   0  0  0  0  0  0  0  0  0  0  0  0
   13.7230    1.1795   22.6298 C   0  0  0  0  0  0  0  0  0  0  0  0
   12.3680    1.1257   24.6818 C   0  0  0  0  0  0  0  0  0  0  0  0
   11.5898    1.2405   23.5508 C   0  0  0  0  0  0  0  0  0  0  0  0
    5.8300    0.9190   18.6970 C   0  0  0  0  0  0  0  0  0  0  0  0
    6.1790    0.5730   19.9990 C   0  0  0  0  0  0  0  0  0  0  0  0
    9.3070   -3.5340   24.8780 C   0  0  0  0  0  0  0  0  0  0  0  0
    9.3350   -1.0880   23.5010 C   0  0  0  0  0  0  0  0  0  0  0  0
    8.3596   -5.0074   26.6308 C   0  0  0  0  0  0  0  0  0  0  0  0
    9.0420    0.3700   21.5280 C   0  0  0  0  0  0  0  0  0  0  0  0
    8.4579   -6.4047   27.2169 C   0  0  0  0  0  0  0  0  0  0  0  0
    8.4717   -7.4504   26.1159 C   0  0  0  0  0  0  0  0  0  0  0  0
    9.5645   -7.1893   25.0842 C   0  0  0  0  0  0  0  0  0  0  0  0
   10.2327   -5.8252   25.2501 C   0  0  0  0  0  0  0  0  0  0  0  0
   10.0908    1.3225   23.5666 C   0  0  0  0  0  0  0  0  0  0  0  0
    6.7580    0.3810   17.8350 N   0  0  0  0  0  0  0  0  0  0  0  0
    7.6390   -0.2680   18.5410 N   0  0  0  0  0  0  0  0  0  0  0  0
    7.3170   -0.1610   19.8550 N   0  0  0  0  0  0  0  0  0  0  0  0
    9.2529   -4.7798   25.5645 N   0  0  0  0  0  0  0  0  0  0  0  0
    8.1890   -0.7180   20.8700 N   0  0  0  0  0  0  0  0  0  0  0  0
    9.4560    0.1560   22.8130 N   0  0  0  0  0  0  0  0  0  0  0  0
    7.5990   -4.1865   27.1424 O   0  0  0  0  0  0  0  0  0  0  0  0
    9.2690    1.4140   20.9380 O   0  0  0  0  0  0  0  0  0  0  0  0
   14.0378    1.0562   24.3085 S   0  0  0  0  0  0  0  0  0  0  0  0
    3.0136    2.6526   19.3908 H   0  0  0  0  0  0  0  0  0  0  0  0
    3.6480    2.0140   21.6821 H   0  0  0  0  0  0  0  0  0  0  0  0
    4.4042    1.9741   17.4524 H   0  0  0  0  0  0  0  0  0  0  0  0
    5.7089    0.6919   22.1150 H   0  0  0  0  0  0  0  0  0  0  0  0
    8.6895   -2.3529   26.5807 H   0  0  0  0  0  0  0  0  0  0  0  0
    9.9262   -4.3897   22.9916 H   0  0  0  0  0  0  0  0  0  0  0  0
    8.9224   -0.1998   25.4238 H   0  0  0  0  0  0  0  0  0  0  0  0
   10.0649   -2.2343   21.8258 H   0  0  0  0  0  0  0  0  0  0  0  0
   11.9750    1.3566   21.3595 H   0  0  0  0  0  0  0  0  0  0  0  0
   14.5380    1.1781   21.9199 H   0  0  0  0  0  0  0  0  0  0  0  0
   12.0400    1.0778   25.7110 H   0  0  0  0  0  0  0  0  0  0  0  0
    9.3706   -6.4745   27.7885 H   0  0  0  0  0  0  0  0  0  0  0  0
    7.6055   -6.5497   27.8636 H   0  0  0  0  0  0  0  0  0  0  0  0
    8.6095   -8.4604   26.5550 H   0  0  0  0  0  0  0  0  0  0  0  0
    7.4835   -7.4763   25.6142 H   0  0  0  0  0  0  0  0  0  0  0  0
   10.3359   -7.9850   25.1531 H   0  0  0  0  0  0  0  0  0  0  0  0
    9.1458   -7.2796   24.0582 H   0  0  0  0  0  0  0  0  0  0  0  0
   10.9408   -5.8640   26.0725 H   0  0  0  0  0  0  0  0  0  0  0  0
   10.7521   -5.5631   24.3347 H   0  0  0  0  0  0  0  0  0  0  0  0
    9.7125    1.2790   24.5937 H   0  0  0  0  0  0  0  0  0  0  0  0
    9.7442    2.2660   23.1320 H   0  0  0  0  0  0  0  0  0  0  0  0
    8.2565   -1.5523   21.1108 H   0  0  0  0  0  0  0  0  0  0  0  0
  1  2  1  0  0  0  0
  1  3  2  0  0  0  0
  2  4  2  0  0  0  0
  3 13  1  0  0  0  0
  4 14  1  0  0  0  0
  5  7  2  0  0  0  0
  5 15  1  0  0  0  0
  6  8  1  0  0  0  0
  6 15  2  0  0  0  0
  7 16  1  0  0  0  0
  8 16  2  0  0  0  0
  9 10  2  0  0  0  0
  9 12  1  0  0  0  0
 10 32  1  0  0  0  0
 11 12  2  0  0  0  0
 11 32  1  0  0  0  0
 12 23  1  0  0  0  0
 13 14  2  0  0  0  0
 13 24  1  0  0  0  0
 14 26  1  0  0  0  0
 15 27  1  0  0  0  0
 16 29  1  0  0  0  0
 17 19  1  0  0  0  0
 17 27  1  0  0  0  0
 17 30  2  0  0  0  0
 18 28  1  0  0  0  0
 18 29  1  0  0  0  0
 18 31  2  0  0  0  0
 19 20  1  0  0  0  0
 20 21  1  0  0  0  0
 21 22  1  0  0  0  0
 22 27  1  0  0  0  0
 23 29  1  0  0  0  0
 24 25  2  0  0  0  0
 25 26  1  0  0  0  0
 26 28  1  0  0  0  0
  1 33  1  0  0  0  0
  2 34  1  0  0  0  0
  3 35  1  0  0  0  0
  4 36  1  0  0  0  0
  5 37  1  0  0  0  0
  6 38  1  0  0  0  0
  7 39  1  0  0  0  0
  8 40  1  0  0  0  0
  9 41  1  0  0  0  0
 10 42  1  0  0  0  0
 11 43  1  0  0  0  0
 19 44  1  0  0  0  0
 19 45  1  0  0  0  0
 20 46  1  0  0  0  0
 20 47  1  0  0  0  0
 21 48  1  0  0  0  0
 21 49  1  0  0  0  0
 22 50  1  0  0  0  0
 22 51  1  0  0  0  0
 23 52  1  0  0  0  0
 23 53  1  0  0  0  0
 28 54  1  0  0  0  0
M  END
> <clash_score>
0.6354463265328341

> <docking_score>
-7.596972942352295

> <overlap_score>
0.9856769442558289

$$$$
BENZO_23_1
  -OEChem-08232013433D

 57 61  0     0  0  0  0  0  0999 V2000
    3.9160    2.0630   19.5520 C   0  0  0  0  0  0  0  0  0  0  0  0
    4.2750    1.7050   20.8490 C   0  0  0  0  0  0  0  0  0  0  0  0
    4.6890    1.6810   18.4640 C   0  0  0  0  0  0  0  0  0  0  0  0
    5.4210    0.9600   21.0930 C   0  0  0  0  0  0  0  0  0  0  0  0
    8.9960   -2.3380   25.5320 C   0  0  0  0  0  0  0  0  0  0  0  0
    9.6730   -3.4710   23.5300 C   0  0  0  0  0  0  0  0  0  0  0  0
    9.0720   -1.1280   24.8640 C   0  0  0  0  0  0  0  0  0  0  0  0
    9.7200   -2.2600   22.8630 C   0  0  0  0  0  0  0  0  0  0  0  0
   12.5012    1.9272   24.3753 C   0  0  0  0  0  0  0  0  0  0  0  0
   12.3801    0.4750   22.7286 C   0  0  0  0  0  0  0  0  0  0  0  0
   11.5898    1.2405   23.5508 C   0  0  0  0  0  0  0  0  0  0  0  0
    5.8300    0.9190   18.6970 C   0  0  0  0  0  0  0  0  0  0  0  0
    6.1790    0.5730   19.9990 C   0  0  0  0  0  0  0  0  0  0  0  0
    9.3070   -3.5340   24.8780 C   0  0  0  0  0  0  0  0  0  0  0  0
    9.3350   -1.0880   23.5010 C   0  0  0  0  0  0  0  0  0  0  0  0
    8.3510   -4.9867   26.6296 C   0  0  0  0  0  0  0  0  0  0  0  0
    9.0420    0.3700   21.5280 C   0  0  0  0  0  0  0  0  0  0  0  0
    8.1551   -6.4206   27.0914 C   0  0  0  0  0  0  0  0  0  0  0  0
    9.3910   -7.2881   26.9937 C   0  0  0  0  0  0  0  0  0  0  0  0
    9.9314   -7.2074   25.5832 C   0  0  0  0  0  0  0  0  0  0  0  0
   10.3114   -5.7687   25.2760 C   0  0  0  0  0  0  0  0  0  0  0  0
   14.8577    0.1678   22.5155 C   0  0  0  0  0  0  0  0  0  0  0  0
   10.0908    1.3225   23.5666 C   0  0  0  0  0  0  0  0  0  0  0  0
   13.7730    1.6245   24.1019 N   0  0  0  0  0  0  0  0  0  0  0  0
    6.7580    0.3810   17.8350 N   0  0  0  0  0  0  0  0  0  0  0  0
    7.6390   -0.2680   18.5410 N   0  0  0  0  0  0  0  0  0  0  0  0
   13.6666    0.7392   23.0965 N   0  0  0  0  0  0  0  0  0  0  0  0
    7.3170   -0.1610   19.8550 N   0  0  0  0  0  0  0  0  0  0  0  0
    9.2526   -4.7874   25.5686 N   0  0  0  0  0  0  0  0  0  0  0  0
    8.1890   -0.7180   20.8700 N   0  0  0  0  0  0  0  0  0  0  0  0
    9.4560    0.1560   22.8130 N   0  0  0  0  0  0  0  0  0  0  0  0
    7.6724   -4.1074   27.1673 O   0  0  0  0  0  0  0  0  0  0  0  0
    9.2690    1.4140   20.9380 O   0  0  0  0  0  0  0  0  0  0  0  0
    3.0136    2.6526   19.3908 H   0  0  0  0  0  0  0  0  0  0  0  0
    3.6480    2.0140   21.6821 H   0  0  0  0  0  0  0  0  0  0  0  0
    4.4042    1.9741   17.4524 H   0  0  0  0  0  0  0  0  0  0  0  0
    5.7089    0.6919   22.1150 H   0  0  0  0  0  0  0  0  0  0  0  0
    8.6895   -2.3529   26.5807 H   0  0  0  0  0  0  0  0  0  0  0  0
    9.9262   -4.3897   22.9916 H   0  0  0  0  0  0  0  0  0  0  0  0
    8.9224   -0.1998   25.4238 H   0  0  0  0  0  0  0  0  0  0  0  0
   10.0649   -2.2343   21.8258 H   0  0  0  0  0  0  0  0  0  0  0  0
   12.2939    2.6353   25.1651 H   0  0  0  0  0  0  0  0  0  0  0  0
   12.1424   -0.2189   21.9338 H   0  0  0  0  0  0  0  0  0  0  0  0
    7.8133   -6.3988   28.1326 H   0  0  0  0  0  0  0  0  0  0  0  0
    7.3452   -6.8473   26.4874 H   0  0  0  0  0  0  0  0  0  0  0  0
   10.1502   -6.9497   27.7092 H   0  0  0  0  0  0  0  0  0  0  0  0
    9.1415   -8.3244   27.2461 H   0  0  0  0  0  0  0  0  0  0  0  0
   10.8120   -7.8512   25.4807 H   0  0  0  0  0  0  0  0  0  0  0  0
    9.1844   -7.5636   24.8636 H   0  0  0  0  0  0  0  0  0  0  0  0
   11.1846   -5.4813   25.8755 H   0  0  0  0  0  0  0  0  0  0  0  0
   10.5857   -5.6807   24.2179 H   0  0  0  0  0  0  0  0  0  0  0  0
   15.1733    0.8124   21.6908 H   0  0  0  0  0  0  0  0  0  0  0  0
   15.6414    0.1085   23.2759 H   0  0  0  0  0  0  0  0  0  0  0  0
   14.6351   -0.8391   22.1515 H   0  0  0  0  0  0  0  0  0  0  0  0
    9.7125    1.2790   24.5937 H   0  0  0  0  0  0  0  0  0  0  0  0
    9.7442    2.2660   23.1320 H   0  0  0  0  0  0  0  0  0  0  0  0
    8.2565   -1.5523   21.1108 H   0  0  0  0  0  0  0  0  0  0  0  0
  1  2  1  0  0  0  0
  1  3  2  0  0  0  0
  2  4  2  0  0  0  0
  3 12  1  0  0  0  0
  4 13  1  0  0  0  0
  5  7  2  0  0  0  0
  5 14  1  0  0  0  0
  6  8  1  0  0  0  0
  6 14  2  0  0  0  0
  7 15  1  0  0  0  0
  8 15  2  0  0  0  0
  9 11  1  0  0  0  0
  9 24  2  0  0  0  0
 10 11  2  0  0  0  0
 10 27  1  0  0  0  0
 11 23  1  0  0  0  0
 12 13  2  0  0  0  0
 12 25  1  0  0  0  0
 13 28  1  0  0  0  0
 14 29  1  0  0  0  0
 15 31  1  0  0  0  0
 16 18  1  0  0  0  0
 16 29  1  0  0  0  0
 16 32  2  0  0  0  0
 17 30  1  0  0  0  0
 17 31  1  0  0  0  0
 17 33  2  0  0  0  0
 18 19  1  0  0  0  0
 19 20  1  0  0  0  0
 20 21  1  0  0  0  0
 21 29  1  0  0  0  0
 22 27  1  0  0  0  0
 23 31  1  0  0  0  0
 24 27  1  0  0  0  0
 25 26  2  0  0  0  0
 26 28  1  0  0  0  0
 28 30  1  0  0  0  0
  1 34  1  0  0  0  0
  2 35  1  0  0  0  0
  3 36  1  0  0  0  0
  4 37  1  0  0  0  0
  5 38  1  0  0  0  0
  6 39  1  0  0  0  0
  7 40  1  0  0  0  0
  8 41  1  0  0  0  0
  9 42  1  0  0  0  0
 10 43  1  0  0  0  0
 18 44  1  0  0  0  0
 18 45  1  0  0  0  0
 19 46  1  0  0  0  0
 19 47  1  0  0  0  0
 20 48  1  0  0  0  0
 20 49  1  0  0  0  0
 21 50  1  0  0  0  0
 21 51  1  0  0  0  0
 22 52  1  0  0  0  0
 22 53  1  0  0  0  0
 22 54  1  0  0  0  0
 23 55  1  0  0  0  0
 23 56  1  0  0  0  0
 30 57  1  0  0  0  0
M  END
> <clash_score>
0.7510927600736075

> <docking_score>
-7.756772994995117

> <overlap_score>
0.9936839938163757

$$$$
BENZO_22_1
  -OEChem-08232013433D

 57 61  0     0  0  0  0  0  0999 V2000
    3.9160    2.0630   19.5520 C   0  0  0  0  0  0  0  0  0  0  0  0
    4.2750    1.7050   20.8490 C   0  0  0  0  0  0  0  0  0  0  0  0
   13.7194    2.0329   22.7299 C   0  0  0  0  0  0  0  0  0  0  0  0
   12.3266    2.1077   22.7441 C   0  0  0  0  0  0  0  0  0  0  0  0
    4.6890    1.6810   18.4640 C   0  0  0  0  0  0  0  0  0  0  0  0
    5.4210    0.9600   21.0930 C   0  0  0  0  0  0  0  0  0  0  0  0
    8.9960   -2.3380   25.5320 C   0  0  0  0  0  0  0  0  0  0  0  0
    9.6730   -3.4710   23.5300 C   0  0  0  0  0  0  0  0  0  0  0  0
    9.0720   -1.1280   24.8640 C   0  0  0  0  0  0  0  0  0  0  0  0
    9.7200   -2.2600   22.8630 C   0  0  0  0  0  0  0  0  0  0  0  0
   14.3754    1.0908   23.5223 C   0  0  0  0  0  0  0  0  0  0  0  0
   12.2458    0.2985   24.3433 C   0  0  0  0  0  0  0  0  0  0  0  0
   11.5898    1.2405   23.5508 C   0  0  0  0  0  0  0  0  0  0  0  0
    5.8300    0.9190   18.6970 C   0  0  0  0  0  0  0  0  0  0  0  0
    6.1790    0.5730   19.9990 C   0  0  0  0  0  0  0  0  0  0  0  0
    9.3070   -3.5340   24.8780 C   0  0  0  0  0  0  0  0  0  0  0  0
    9.3350   -1.0880   23.5010 C   0  0  0  0  0  0  0  0  0  0  0  0
   13.6386    0.2236   24.3290 C   0  0  0  0  0  0  0  0  0  0  0  0
    8.3597   -5.0073   26.6307 C   0  0  0  0  0  0  0  0  0  0  0  0
    9.0420    0.3700   21.5280 C   0  0  0  0  0  0  0  0  0  0  0  0
    8.4720   -6.3981   27.2296 C   0  0  0  0  0  0  0  0  0  0  0  0
    9.9252   -6.7605   27.4803 C   0  0  0  0  0  0  0  0  0  0  0  0
   10.7833   -6.6094   26.2282 C   0  0  0  0  0  0  0  0  0  0  0  0
   10.0539   -5.9099   25.0823 C   0  0  0  0  0  0  0  0  0  0  0  0
   10.0908    1.3225   23.5666 C   0  0  0  0  0  0  0  0  0  0  0  0
    6.7580    0.3810   17.8350 N   0  0  0  0  0  0  0  0  0  0  0  0
    7.6390   -0.2680   18.5410 N   0  0  0  0  0  0  0  0  0  0  0  0
    7.3170   -0.1610   19.8550 N   0  0  0  0  0  0  0  0  0  0  0  0
    9.2530   -4.7797   25.5644 N   0  0  0  0  0  0  0  0  0  0  0  0
    8.1890   -0.7180   20.8700 N   0  0  0  0  0  0  0  0  0  0  0  0
    9.4560    0.1560   22.8130 N   0  0  0  0  0  0  0  0  0  0  0  0
    7.4954   -4.2356   27.0450 O   0  0  0  0  0  0  0  0  0  0  0  0
    9.2690    1.4140   20.9380 O   0  0  0  0  0  0  0  0  0  0  0  0
   14.4486   -0.9377   25.3072 Cl  0  0  0  0  0  0  0  0  0  0  0  0
    3.0136    2.6526   19.3908 H   0  0  0  0  0  0  0  0  0  0  0  0
    3.6480    2.0140   21.6821 H   0  0  0  0  0  0  0  0  0  0  0  0
   14.2928    2.7085   22.1017 H   0  0  0  0  0  0  0  0  0  0  0  0
   11.8239    2.8450   22.1236 H   0  0  0  0  0  0  0  0  0  0  0  0
    4.4042    1.9741   17.4524 H   0  0  0  0  0  0  0  0  0  0  0  0
    5.7089    0.6919   22.1150 H   0  0  0  0  0  0  0  0  0  0  0  0
    8.6895   -2.3529   26.5807 H   0  0  0  0  0  0  0  0  0  0  0  0
    9.9262   -4.3897   22.9916 H   0  0  0  0  0  0  0  0  0  0  0  0
    8.9224   -0.1998   25.4238 H   0  0  0  0  0  0  0  0  0  0  0  0
   10.0649   -2.2343   21.8258 H   0  0  0  0  0  0  0  0  0  0  0  0
   15.4614    1.0441   23.5013 H   0  0  0  0  0  0  0  0  0  0  0  0
   11.6668   -0.3758   24.9701 H   0  0  0  0  0  0  0  0  0  0  0  0
    7.9325   -6.4148   28.1641 H   0  0  0  0  0  0  0  0  0  0  0  0
    8.0254   -7.0920   26.5333 H   0  0  0  0  0  0  0  0  0  0  0  0
   10.3387   -6.1267   28.2923 H   0  0  0  0  0  0  0  0  0  0  0  0
    9.9904   -7.8023   27.8537 H   0  0  0  0  0  0  0  0  0  0  0  0
   11.7037   -6.0404   26.4771 H   0  0  0  0  0  0  0  0  0  0  0  0
   11.1411   -7.6068   25.8918 H   0  0  0  0  0  0  0  0  0  0  0  0
   10.7782   -5.5162   24.3756 H   0  0  0  0  0  0  0  0  0  0  0  0
    9.4042   -6.6189   24.5807 H   0  0  0  0  0  0  0  0  0  0  0  0
    9.7125    1.2790   24.5938 H   0  0  0  0  0  0  0  0  0  0  0  0
    9.7442    2.2660   23.1320 H   0  0  0  0  0  0  0  0  0  0  0  0
    8.2565   -1.5523   21.1108 H   0  0  0  0  0  0  0  0  0  0  0  0
  1  2  1  0  0  0  0
  1  5  2  0  0  0  0
  2  6  2  0  0  0  0
  3  4  2  0  0  0  0
  3 11  1  0  0  0  0
  4 13  1  0  0  0  0
  5 14  1  0  0  0  0
  6 15  1  0  0  0  0
  7  9  2  0  0  0  0
  7 16  1  0  0  0  0
  8 10  1  0  0  0  0
  8 16  2  0  0  0  0
  9 17  1  0  0  0  0
 10 17  2  0  0  0  0
 11 18  2  0  0  0  0
 12 13  2  0  0  0  0
 12 18  1  0  0  0  0
 13 25  1  0  0  0  0
 14 15  2  0  0  0  0
 14 26  1  0  0  0  0
 15 28  1  0  0  0  0
 16 29  1  0  0  0  0
 17 31  1  0  0  0  0
 18 34  1  0  0  0  0
 19 21  1  0  0  0  0
 19 29  1  0  0  0  0
 19 32  2  0  0  0  0
 20 30  1  0  0  0  0
 20 31  1  0  0  0  0
 20 33  2  0  0  0  0
 21 22  1  0  0  0  0
 22 23  1  0  0  0  0
 23 24  1  0  0  0  0
 24 29  1  0  0  0  0
 25 31  1  0  0  0  0
 26 27  2  0  0  0  0
 27 28  1  0  0  0  0
 28 30  1  0  0  0  0
  1 35  1  0  0  0  0
  2 36  1  0  0  0  0
  3 37  1  0  0  0  0
  4 38  1  0  0  0  0
  5 39  1  0  0  0  0
  6 40  1  0  0  0  0
  7 41  1  0  0  0  0
  8 42  1  0  0  0  0
  9 43  1  0  0  0  0
 10 44  1  0  0  0  0
 11 45  1  0  0  0  0
 12 46  1  0  0  0  0
 21 47  1  0  0  0  0
 21 48  1  0  0  0  0
 22 49  1  0  0  0  0
 22 50  1  0  0  0  0
 23 51  1  0  0  0  0
 23 52  1  0  0  0  0
 24 53  1  0  0  0  0
 24 54  1  0  0  0  0
 25 55  1  0  0  0  0
 25 56  1  0  0  0  0
 30 57  1  0  0  0  0
M  END
> <clash_score>
1.5099846449520946

> <docking_score>
-6.694123268127441

> <overlap_score>
1.0096696615219116

$$$$
BENZO_25_1
  -OEChem-08232013433D

 56 60  0     0  0  0  0  0  0999 V2000
   14.3761    1.1563   23.4181 C   0  0  0  0  0  0  0  0  0  0  0  0
   13.7288    2.3887   23.5060 C   0  0  0  0  0  0  0  0  0  0  0  0
   13.6304   -0.0219   23.3783 C   0  0  0  0  0  0  0  0  0  0  0  0
    3.9160    2.0630   19.5520 C   0  0  0  0  0  0  0  0  0  0  0  0
    4.2750    1.7050   20.8490 C   0  0  0  0  0  0  0  0  0  0  0  0
   12.3358    2.4430   23.5542 C   0  0  0  0  0  0  0  0  0  0  0  0
   12.2375    0.0323   23.4265 C   0  0  0  0  0  0  0  0  0  0  0  0
    4.6890    1.6810   18.4640 C   0  0  0  0  0  0  0  0  0  0  0  0
    5.4210    0.9600   21.0930 C   0  0  0  0  0  0  0  0  0  0  0  0
    8.9960   -2.3380   25.5320 C   0  0  0  0  0  0  0  0  0  0  0  0
    9.6730   -3.4710   23.5300 C   0  0  0  0  0  0  0  0  0  0  0  0
    9.0720   -1.1280   24.8640 C   0  0  0  0  0  0  0  0  0  0  0  0
    9.7200   -2.2600   22.8630 C   0  0  0  0  0  0  0  0  0  0  0  0
   11.5901    1.2648   23.5145 C   0  0  0  0  0  0  0  0  0  0  0  0
    5.8300    0.9190   18.6970 C   0  0  0  0  0  0  0  0  0  0  0  0
    6.1790    0.5730   19.9990 C   0  0  0  0  0  0  0  0  0  0  0  0
    9.3070   -3.5340   24.8780 C   0  0  0  0  0  0  0  0  0  0  0  0
    9.3350   -1.0880   23.5010 C   0  0  0  0  0  0  0  0  0  0  0  0
    9.0420    0.3700   21.5280 C   0  0  0  0  0  0  0  0  0  0  0  0
   10.0771   -5.0255   26.7193 C   0  0  0  0  0  0  0  0  0  0  0  0
    8.0926   -5.6195   25.4071 C   0  0  0  0  0  0  0  0  0  0  0  0
    9.1933   -4.9427   27.9592 C   0  0  0  0  0  0  0  0  0  0  0  0
    7.2756   -5.5290   26.6967 C   0  0  0  0  0  0  0  0  0  0  0  0
   10.0908    1.3225   23.5666 C   0  0  0  0  0  0  0  0  0  0  0  0
    6.7580    0.3810   17.8350 N   0  0  0  0  0  0  0  0  0  0  0  0
    7.6390   -0.2680   18.5410 N   0  0  0  0  0  0  0  0  0  0  0  0
    7.3170   -0.1610   19.8550 N   0  0  0  0  0  0  0  0  0  0  0  0
    9.2563   -4.7368   25.5413 N   0  0  0  0  0  0  0  0  0  0  0  0
    8.1890   -0.7180   20.8700 N   0  0  0  0  0  0  0  0  0  0  0  0
    9.4560    0.1560   22.8130 N   0  0  0  0  0  0  0  0  0  0  0  0
    9.2690    1.4140   20.9380 O   0  0  0  0  0  0  0  0  0  0  0  0
    8.0883   -5.8459   27.8325 O   0  0  0  0  0  0  0  0  0  0  0  0
   15.4607    1.1142   23.3792 H   0  0  0  0  0  0  0  0  0  0  0  0
   14.3092    3.3062   23.5359 H   0  0  0  0  0  0  0  0  0  0  0  0
   14.1340   -0.9816   23.3088 H   0  0  0  0  0  0  0  0  0  0  0  0
    3.0136    2.6526   19.3908 H   0  0  0  0  0  0  0  0  0  0  0  0
    3.6480    2.0140   21.6821 H   0  0  0  0  0  0  0  0  0  0  0  0
   11.8401    3.4077   23.6229 H   0  0  0  0  0  0  0  0  0  0  0  0
   11.6647   -0.8908   23.3951 H   0  0  0  0  0  0  0  0  0  0  0  0
    4.4042    1.9741   17.4524 H   0  0  0  0  0  0  0  0  0  0  0  0
    5.7089    0.6919   22.1150 H   0  0  0  0  0  0  0  0  0  0  0  0
    8.6905   -2.3533   26.5810 H   0  0  0  0  0  0  0  0  0  0  0  0
    9.9266   -4.3896   22.9917 H   0  0  0  0  0  0  0  0  0  0  0  0
    8.9233   -0.1992   25.4232 H   0  0  0  0  0  0  0  0  0  0  0  0
   10.0650   -2.2330   21.8256 H   0  0  0  0  0  0  0  0  0  0  0  0
   10.8985   -4.3115   26.8085 H   0  0  0  0  0  0  0  0  0  0  0  0
   10.4915   -6.0334   26.6323 H   0  0  0  0  0  0  0  0  0  0  0  0
    8.4327   -6.6456   25.2620 H   0  0  0  0  0  0  0  0  0  0  0  0
    7.4725   -5.3241   24.5619 H   0  0  0  0  0  0  0  0  0  0  0  0
    9.7636   -5.2398   28.8419 H   0  0  0  0  0  0  0  0  0  0  0  0
    8.8236   -3.9268   28.1248 H   0  0  0  0  0  0  0  0  0  0  0  0
    6.8339   -4.5337   26.8232 H   0  0  0  0  0  0  0  0  0  0  0  0
    6.4550   -6.2521   26.6643 H   0  0  0  0  0  0  0  0  0  0  0  0
    9.7401    1.3200   24.6044 H   0  0  0  0  0  0  0  0  0  0  0  0
    9.7163    2.2391   23.0989 H   0  0  0  0  0  0  0  0  0  0  0  0
    8.2565   -1.5523   21.1108 H   0  0  0  0  0  0  0  0  0  0  0  0
  1  2  1  0  0  0  0
  1  3  2  0  0  0  0
  2  6  2  0  0  0  0
  3  7  1  0  0  0  0
  4  5  1  0  0  0  0
  4  8  2  0  0  0  0
  5  9  2  0  0  0  0
  6 14  1  0  0  0  0
  7 14  2  0  0  0  0
  8 15  1  0  0  0  0
  9 16  1  0  0  0  0
 10 12  2  0  0  0  0
 10 17  1  0  0  0  0
 11 13  1  0  0  0  0
 11 17  2  0  0  0  0
 12 18  1  0  0  0  0
 13 18  2  0  0  0  0
 14 24  1  0  0  0  0
 15 16  2  0  0  0  0
 15 25  1  0  0  0  0
 16 27  1  0  0  0  0
 17 28  1  0  0  0  0
 18 30  1  0  0  0  0
 19 29  1  0  0  0  0
 19 30  1  0  0  0  0
 19 31  2  0  0  0  0
 20 22  1  0  0  0  0
 20 28  1  0  0  0  0
 21 23  1  0  0  0  0
 21 28  1  0  0  0  0
 22 32  1  0  0  0  0
 23 32  1  0  0  0  0
 24 30  1  0  0  0  0
 25 26  2  0  0  0  0
 26 27  1  0  0  0  0
 27 29  1  0  0  0  0
  1 33  1  0  0  0  0
  2 34  1  0  0  0  0
  3 35  1  0  0  0  0
  4 36  1  0  0  0  0
  5 37  1  0  0  0  0
  6 38  1  0  0  0  0
  7 39  1  0  0  0  0
  8 40  1  0  0  0  0
  9 41  1  0  0  0  0
 10 42  1  0  0  0  0
 11 43  1  0  0  0  0
 12 44  1  0  0  0  0
 13 45  1  0  0  0  0
 20 46  1  0  0  0  0
 20 47  1  0  0  0  0
 21 48  1  0  0  0  0
 21 49  1  0  0  0  0
 22 50  1  0  0  0  0
 22 51  1  0  0  0  0
 23 52  1  0  0  0  0
 23 53  1  0  0  0  0
 24 54  1  0  0  0  0
 24 55  1  0  0  0  0
 29 56  1  0  0  0  0
M  END
> <clash_score>
0

> <docking_score>
-7.630833625793457

> <overlap_score>
0.9988275766372681

$$$$
BENZO_29_1
  -OEChem-08232013433D

 52 55  0     0  0  0  0  0  0999 V2000
   14.3782    1.1355   23.5170 C   0  0  0  0  0  0  0  0  0  0  0  0
   13.6715    0.4911   24.5323 C   0  0  0  0  0  0  0  0  0  0  0  0
   13.6912    1.8336   22.5238 C   0  0  0  0  0  0  0  0  0  0  0  0
    3.9160    2.0630   19.5520 C   0  0  0  0  0  0  0  0  0  0  0  0
    4.2750    1.7050   20.8490 C   0  0  0  0  0  0  0  0  0  0  0  0
   12.2779    0.5447   24.5545 C   0  0  0  0  0  0  0  0  0  0  0  0
   12.2975    1.8871   22.5459 C   0  0  0  0  0  0  0  0  0  0  0  0
    4.6890    1.6810   18.4640 C   0  0  0  0  0  0  0  0  0  0  0  0
    5.4210    0.9600   21.0930 C   0  0  0  0  0  0  0  0  0  0  0  0
    9.0720   -1.1280   24.8640 C   0  0  0  0  0  0  0  0  0  0  0  0
    9.7200   -2.2600   22.8630 C   0  0  0  0  0  0  0  0  0  0  0  0
    8.9960   -2.3380   25.5320 C   0  0  0  0  0  0  0  0  0  0  0  0
    9.6730   -3.4710   23.5300 C   0  0  0  0  0  0  0  0  0  0  0  0
    7.6390   -0.2680   18.5410 C   0  0  0  0  0  0  0  0  0  0  0  0
   11.5908    1.2427   23.5613 C   0  0  0  0  0  0  0  0  0  0  0  0
    5.8300    0.9190   18.6970 C   0  0  0  0  0  0  0  0  0  0  0  0
    6.1790    0.5730   19.9990 C   0  0  0  0  0  0  0  0  0  0  0  0
    9.3350   -1.0880   23.5010 C   0  0  0  0  0  0  0  0  0  0  0  0
    9.3070   -3.5340   24.8780 C   0  0  0  0  0  0  0  0  0  0  0  0
    9.0420    0.3700   21.5280 C   0  0  0  0  0  0  0  0  0  0  0  0
    8.8742   -4.8064   26.9496 C   0  0  0  0  0  0  0  0  0  0  0  0
    9.5655   -5.9897   24.8591 C   0  0  0  0  0  0  0  0  0  0  0  0
   10.0907    1.3005   23.5844 C   0  0  0  0  0  0  0  0  0  0  0  0
    6.7580    0.3810   17.8350 N   0  0  0  0  0  0  0  0  0  0  0  0
    7.3170   -0.1610   19.8550 N   0  0  0  0  0  0  0  0  0  0  0  0
    8.1890   -0.7180   20.8700 N   0  0  0  0  0  0  0  0  0  0  0  0
    9.4560    0.1560   22.8130 N   0  0  0  0  0  0  0  0  0  0  0  0
    9.2543   -4.7552   25.5519 N   0  0  0  0  0  0  0  0  0  0  0  0
    9.2690    1.4140   20.9380 O   0  0  0  0  0  0  0  0  0  0  0  0
   15.4634    1.0948   23.5006 H   0  0  0  0  0  0  0  0  0  0  0  0
   14.2063   -0.0516   25.3064 H   0  0  0  0  0  0  0  0  0  0  0  0
   14.2410    2.3363   21.7337 H   0  0  0  0  0  0  0  0  0  0  0  0
    3.0134    2.6521   19.3911 H   0  0  0  0  0  0  0  0  0  0  0  0
    3.6460    2.0127   21.6812 H   0  0  0  0  0  0  0  0  0  0  0  0
   11.7356    0.0394   25.3494 H   0  0  0  0  0  0  0  0  0  0  0  0
   11.7707    2.4333   21.7679 H   0  0  0  0  0  0  0  0  0  0  0  0
    4.4037    1.9731   17.4543 H   0  0  0  0  0  0  0  0  0  0  0  0
    5.7084    0.6923   22.1132 H   0  0  0  0  0  0  0  0  0  0  0  0
    8.9217   -0.1995   25.4232 H   0  0  0  0  0  0  0  0  0  0  0  0
   10.0643   -2.2341   21.8254 H   0  0  0  0  0  0  0  0  0  0  0  0
    8.6893   -2.3540   26.5808 H   0  0  0  0  0  0  0  0  0  0  0  0
    9.9257   -4.3898   22.9921 H   0  0  0  0  0  0  0  0  0  0  0  0
    8.4862   -0.8060   18.1787 H   0  0  0  0  0  0  0  0  0  0  0  0
    8.8922   -5.8499   27.2971 H   0  0  0  0  0  0  0  0  0  0  0  0
    9.5819   -4.2098   27.5440 H   0  0  0  0  0  0  0  0  0  0  0  0
    7.8599   -4.3978   27.0688 H   0  0  0  0  0  0  0  0  0  0  0  0
    9.4683   -6.8360   25.5551 H   0  0  0  0  0  0  0  0  0  0  0  0
    8.8685   -6.1243   24.0189 H   0  0  0  0  0  0  0  0  0  0  0  0
   10.5961   -5.9459   24.4772 H   0  0  0  0  0  0  0  0  0  0  0  0
    9.7186    1.2597   24.6139 H   0  0  0  0  0  0  0  0  0  0  0  0
    9.7267    2.2346   23.1437 H   0  0  0  0  0  0  0  0  0  0  0  0
    8.2233   -1.5737   21.0809 H   0  0  0  0  0  0  0  0  0  0  0  0
  1  2  1  0  0  0  0
  1  3  2  0  0  0  0
  2  6  2  0  0  0  0
  3  7  1  0  0  0  0
  4  5  1  0  0  0  0
  4  8  2  0  0  0  0
  5  9  2  0  0  0  0
  6 15  1  0  0  0  0
  7 15  2  0  0  0  0
  8 16  1  0  0  0  0
  9 17  1  0  0  0  0
 10 12  2  0  0  0  0
 10 18  1  0  0  0  0
 11 13  1  0  0  0  0
 11 18  2  0  0  0  0
 12 19  1  0  0  0  0
 13 19  2  0  0  0  0
 14 24  2  0  0  0  0
 14 25  1  0  0  0  0
 15 23  1  0  0  0  0
 16 17  2  0  0  0  0
 16 24  1  0  0  0  0
 17 25  1  0  0  0  0
 18 27  1  0  0  0  0
 19 28  1  0  0  0  0
 20 26  1  0  0  0  0
 20 27  1  0  0  0  0
 20 29  2  0  0  0  0
 21 28  1  0  0  0  0
 22 28  1  0  0  0  0
 23 27  1  0  0  0  0
 25 26  1  0  0  0  0
  1 30  1  0  0  0  0
  2 31  1  0  0  0  0
  3 32  1  0  0  0  0
  4 33  1  0  0  0  0
  5 34  1  0  0  0  0
  6 35  1  0  0  0  0
  7 36  1  0  0  0  0
  8 37  1  0  0  0  0
  9 38  1  0  0  0  0
 10 39  1  0  0  0  0
 11 40  1  0  0  0  0
 12 41  1  0  0  0  0
 13 42  1  0  0  0  0
 14 43  1  0  0  0  0
 21 44  1  0  0  0  0
 21 45  1  0  0  0  0
 21 46  1  0  0  0  0
 22 47  1  0  0  0  0
 22 48  1  0  0  0  0
 22 49  1  0  0  0  0
 23 50  1  0  0  0  0
 23 51  1  0  0  0  0
 26 52  1  0  0  0  0
M  END
> <clash_score>
0

> <docking_score>
-9.15427303314209

> <overlap_score>
0.9845007658004761

$$$$
BENZO_24_1
  -OEChem-08232013433D

 53 57  0     0  0  0  0  0  0999 V2000
    3.9160    2.0630   19.5520 C   0  0  0  0  0  0  0  0  0  0  0  0
    4.2750    1.7050   20.8490 C   0  0  0  0  0  0  0  0  0  0  0  0
    4.6890    1.6810   18.4640 C   0  0  0  0  0  0  0  0  0  0  0  0
    5.4210    0.9600   21.0930 C   0  0  0  0  0  0  0  0  0  0  0  0
    8.9960   -2.3380   25.5320 C   0  0  0  0  0  0  0  0  0  0  0  0
    9.6730   -3.4710   23.5300 C   0  0  0  0  0  0  0  0  0  0  0  0
    9.0720   -1.1280   24.8640 C   0  0  0  0  0  0  0  0  0  0  0  0
    9.7200   -2.2600   22.8630 C   0  0  0  0  0  0  0  0  0  0  0  0
   12.4297    2.4159   23.5053 C   0  0  0  0  0  0  0  0  0  0  0  0
   13.7652    2.0820   23.4534 C   0  0  0  0  0  0  0  0  0  0  0  0
   12.3160    0.0947   23.4691 C   0  0  0  0  0  0  0  0  0  0  0  0
   11.5901    1.2648   23.5145 C   0  0  0  0  0  0  0  0  0  0  0  0
    5.8300    0.9190   18.6970 C   0  0  0  0  0  0  0  0  0  0  0  0
    6.1790    0.5730   19.9990 C   0  0  0  0  0  0  0  0  0  0  0  0
    9.3070   -3.5340   24.8780 C   0  0  0  0  0  0  0  0  0  0  0  0
    9.3350   -1.0880   23.5010 C   0  0  0  0  0  0  0  0  0  0  0  0
    9.0420    0.3700   21.5280 C   0  0  0  0  0  0  0  0  0  0  0  0
   10.0771   -5.0255   26.7193 C   0  0  0  0  0  0  0  0  0  0  0  0
    8.0926   -5.6195   25.4071 C   0  0  0  0  0  0  0  0  0  0  0  0
    9.1933   -4.9427   27.9592 C   0  0  0  0  0  0  0  0  0  0  0  0
    7.2756   -5.5290   26.6967 C   0  0  0  0  0  0  0  0  0  0  0  0
   10.0908    1.3225   23.5666 C   0  0  0  0  0  0  0  0  0  0  0  0
    6.7580    0.3810   17.8350 N   0  0  0  0  0  0  0  0  0  0  0  0
    7.6390   -0.2680   18.5410 N   0  0  0  0  0  0  0  0  0  0  0  0
    7.3170   -0.1610   19.8550 N   0  0  0  0  0  0  0  0  0  0  0  0
    9.2563   -4.7368   25.5413 N   0  0  0  0  0  0  0  0  0  0  0  0
    8.1890   -0.7180   20.8700 N   0  0  0  0  0  0  0  0  0  0  0  0
    9.4560    0.1560   22.8130 N   0  0  0  0  0  0  0  0  0  0  0  0
    9.2690    1.4140   20.9380 O   0  0  0  0  0  0  0  0  0  0  0  0
    8.0883   -5.8459   27.8325 O   0  0  0  0  0  0  0  0  0  0  0  0
   14.0025    0.3865   23.4159 S   0  0  0  0  0  0  0  0  0  0  0  0
    3.0136    2.6526   19.3908 H   0  0  0  0  0  0  0  0  0  0  0  0
    3.6480    2.0140   21.6821 H   0  0  0  0  0  0  0  0  0  0  0  0
    4.4042    1.9741   17.4524 H   0  0  0  0  0  0  0  0  0  0  0  0
    5.7089    0.6919   22.1150 H   0  0  0  0  0  0  0  0  0  0  0  0
    8.6905   -2.3533   26.5810 H   0  0  0  0  0  0  0  0  0  0  0  0
    9.9266   -4.3896   22.9917 H   0  0  0  0  0  0  0  0  0  0  0  0
    8.9233   -0.1992   25.4232 H   0  0  0  0  0  0  0  0  0  0  0  0
   10.0650   -2.2330   21.8256 H   0  0  0  0  0  0  0  0  0  0  0  0
   12.0763    3.4389   23.5346 H   0  0  0  0  0  0  0  0  0  0  0  0
   14.6127    2.7524   23.4350 H   0  0  0  0  0  0  0  0  0  0  0  0
   11.9406   -0.9192   23.4632 H   0  0  0  0  0  0  0  0  0  0  0  0
   10.8985   -4.3115   26.8085 H   0  0  0  0  0  0  0  0  0  0  0  0
   10.4915   -6.0334   26.6323 H   0  0  0  0  0  0  0  0  0  0  0  0
    8.4327   -6.6456   25.2620 H   0  0  0  0  0  0  0  0  0  0  0  0
    7.4725   -5.3241   24.5619 H   0  0  0  0  0  0  0  0  0  0  0  0
    9.7636   -5.2398   28.8419 H   0  0  0  0  0  0  0  0  0  0  0  0
    8.8236   -3.9268   28.1248 H   0  0  0  0  0  0  0  0  0  0  0  0
    6.8339   -4.5337   26.8232 H   0  0  0  0  0  0  0  0  0  0  0  0
    6.4550   -6.2521   26.6643 H   0  0  0  0  0  0  0  0  0  0  0  0
    9.7401    1.3200   24.6044 H   0  0  0  0  0  0  0  0  0  0  0  0
    9.7163    2.2391   23.0989 H   0  0  0  0  0  0  0  0  0  0  0  0
    8.2565   -1.5523   21.1108 H   0  0  0  0  0  0  0  0  0  0  0  0
  1  2  1  0  0  0  0
  1  3  2  0  0  0  0
  2  4  2  0  0  0  0
  3 13  1  0  0  0  0
  4 14  1  0  0  0  0
  5  7  2  0  0  0  0
  5 15  1  0  0  0  0
  6  8  1  0  0  0  0
  6 15  2  0  0  0  0
  7 16  1  0  0  0  0
  8 16  2  0  0  0  0
  9 10  2  0  0  0  0
  9 12  1  0  0  0  0
 10 31  1  0  0  0  0
 11 12  2  0  0  0  0
 11 31  1  0  0  0  0
 12 22  1  0  0  0  0
 13 14  2  0  0  0  0
 13 23  1  0  0  0  0
 14 25  1  0  0  0  0
 15 26  1  0  0  0  0
 16 28  1  0  0  0  0
 17 27  1  0  0  0  0
 17 28  1  0  0  0  0
 17 29  2  0  0  0  0
 18 20  1  0  0  0  0
 18 26  1  0  0  0  0
 19 21  1  0  0  0  0
 19 26  1  0  0  0  0
 20 30  1  0  0  0  0
 21 30  1  0  0  0  0
 22 28  1  0  0  0  0
 23 24  2  0  0  0  0
 24 25  1  0  0  0  0
 25 27  1  0  0  0  0
  1 32  1  0  0  0  0
  2 33  1  0  0  0  0
  3 34  1  0  0  0  0
  4 35  1  0  0  0  0
  5 36  1  0  0  0  0
  6 37  1  0  0  0  0
  7 38  1  0  0  0  0
  8 39  1  0  0  0  0
  9 40  1  0  0  0  0
 10 41  1  0  0  0  0
 11 42  1  0  0  0  0
 18 43  1  0  0  0  0
 18 44  1  0  0  0  0
 19 45  1  0  0  0  0
 19 46  1  0  0  0  0
 20 47  1  0  0  0  0
 20 48  1  0  0  0  0
 21 49  1  0  0  0  0
 21 50  1  0  0  0  0
 22 51  1  0  0  0  0
 22 52  1  0  0  0  0
 27 53  1  0  0  0  0
M  END
> <clash_score>
0

> <docking_score>
-8.447629928588867

> <overlap_score>
0.9871023297309875

$$$$
BENZO_28_1
  -OEChem-08232013433D

 49 52  0     0  0  0  0  0  0999 V2000
    3.9160    2.0630   19.5520 C   0  0  0  0  0  0  0  0  0  0  0  0
    4.2750    1.7050   20.8490 C   0  0  0  0  0  0  0  0  0  0  0  0
    4.6890    1.6810   18.4640 C   0  0  0  0  0  0  0  0  0  0  0  0
    5.4210    0.9600   21.0930 C   0  0  0  0  0  0  0  0  0  0  0  0
    9.0720   -1.1280   24.8640 C   0  0  0  0  0  0  0  0  0  0  0  0
    9.7200   -2.2600   22.8630 C   0  0  0  0  0  0  0  0  0  0  0  0
    8.9960   -2.3380   25.5320 C   0  0  0  0  0  0  0  0  0  0  0  0
    9.6730   -3.4710   23.5300 C   0  0  0  0  0  0  0  0  0  0  0  0
   12.4312    2.3922   23.6126 C   0  0  0  0  0  0  0  0  0  0  0  0
   13.7672    2.0585   23.5760 C   0  0  0  0  0  0  0  0  0  0  0  0
   12.3167    0.0741   23.4871 C   0  0  0  0  0  0  0  0  0  0  0  0
    7.6390   -0.2680   18.5410 C   0  0  0  0  0  0  0  0  0  0  0  0
   11.5908    1.2427   23.5613 C   0  0  0  0  0  0  0  0  0  0  0  0
    5.8300    0.9190   18.6970 C   0  0  0  0  0  0  0  0  0  0  0  0
    6.1790    0.5730   19.9990 C   0  0  0  0  0  0  0  0  0  0  0  0
    9.3350   -1.0880   23.5010 C   0  0  0  0  0  0  0  0  0  0  0  0
    9.3070   -3.5340   24.8780 C   0  0  0  0  0  0  0  0  0  0  0  0
    9.0420    0.3700   21.5280 C   0  0  0  0  0  0  0  0  0  0  0  0
    8.0128   -5.2151   26.1416 C   0  0  0  0  0  0  0  0  0  0  0  0
   10.4372   -5.5860   25.6589 C   0  0  0  0  0  0  0  0  0  0  0  0
   10.0907    1.3005   23.5844 C   0  0  0  0  0  0  0  0  0  0  0  0
    6.7580    0.3810   17.8350 N   0  0  0  0  0  0  0  0  0  0  0  0
    7.3170   -0.1610   19.8550 N   0  0  0  0  0  0  0  0  0  0  0  0
    8.1890   -0.7180   20.8700 N   0  0  0  0  0  0  0  0  0  0  0  0
    9.4560    0.1560   22.8130 N   0  0  0  0  0  0  0  0  0  0  0  0
    9.2543   -4.7552   25.5519 N   0  0  0  0  0  0  0  0  0  0  0  0
    9.2690    1.4140   20.9380 O   0  0  0  0  0  0  0  0  0  0  0  0
   14.0041    0.3653   23.4799 S   0  0  0  0  0  0  0  0  0  0  0  0
    3.0134    2.6521   19.3911 H   0  0  0  0  0  0  0  0  0  0  0  0
    3.6460    2.0127   21.6812 H   0  0  0  0  0  0  0  0  0  0  0  0
    4.4037    1.9731   17.4543 H   0  0  0  0  0  0  0  0  0  0  0  0
    5.7084    0.6923   22.1132 H   0  0  0  0  0  0  0  0  0  0  0  0
    8.9217   -0.1995   25.4232 H   0  0  0  0  0  0  0  0  0  0  0  0
   10.0643   -2.2341   21.8254 H   0  0  0  0  0  0  0  0  0  0  0  0
    8.6893   -2.3540   26.5808 H   0  0  0  0  0  0  0  0  0  0  0  0
    9.9257   -4.3898   22.9921 H   0  0  0  0  0  0  0  0  0  0  0  0
   12.0779    3.4138   23.6730 H   0  0  0  0  0  0  0  0  0  0  0  0
   14.6154    2.7279   23.6003 H   0  0  0  0  0  0  0  0  0  0  0  0
   11.9408   -0.9384   23.4354 H   0  0  0  0  0  0  0  0  0  0  0  0
    8.4862   -0.8060   18.1787 H   0  0  0  0  0  0  0  0  0  0  0  0
    8.1744   -6.1904   26.6238 H   0  0  0  0  0  0  0  0  0  0  0  0
    7.6718   -4.4870   26.8924 H   0  0  0  0  0  0  0  0  0  0  0  0
    7.2494   -5.3166   25.3561 H   0  0  0  0  0  0  0  0  0  0  0  0
   10.1946   -6.4995   26.2216 H   0  0  0  0  0  0  0  0  0  0  0  0
   10.7865   -5.8578   24.6518 H   0  0  0  0  0  0  0  0  0  0  0  0
   11.2285   -5.0312   26.1842 H   0  0  0  0  0  0  0  0  0  0  0  0
    9.7186    1.2597   24.6139 H   0  0  0  0  0  0  0  0  0  0  0  0
    9.7267    2.2346   23.1437 H   0  0  0  0  0  0  0  0  0  0  0  0
    8.2233   -1.5737   21.0809 H   0  0  0  0  0  0  0  0  0  0  0  0
  1  2  1  0  0  0  0
  1  3  2  0  0  0  0
  2  4  2  0  0  0  0
  3 14  1  0  0  0  0
  4 15  1  0  0  0  0
  5  7  2  0  0  0  0
  5 16  1  0  0  0  0
  6  8  1  0  0  0  0
  6 16  2  0  0  0  0
  7 17  1  0  0  0  0
  8 17  2  0  0  0  0
  9 10  2  0  0  0  0
  9 13  1  0  0  0  0
 10 28  1  0  0  0  0
 11 13  2  0  0  0  0
 11 28  1  0  0  0  0
 12 22  2  0  0  0  0
 12 23  1  0  0  0  0
 13 21  1  0  0  0  0
 14 15  2  0  0  0  0
 14 22  1  0  0  0  0
 15 23  1  0  0  0  0
 16 25  1  0  0  0  0
 17 26  1  0  0  0  0
 18 24  1  0  0  0  0
 18 25  1  0  0  0  0
 18 27  2  0  0  0  0
 19 26  1  0  0  0  0
 20 26  1  0  0  0  0
 21 25  1  0  0  0  0
 23 24  1  0  0  0  0
  1 29  1  0  0  0  0
  2 30  1  0  0  0  0
  3 31  1  0  0  0  0
  4 32  1  0  0  0  0
  5 33  1  0  0  0  0
  6 34  1  0  0  0  0
  7 35  1  0  0  0  0
  8 36  1  0  0  0  0
  9 37  1  0  0  0  0
 10 38  1  0  0  0  0
 11 39  1  0  0  0  0
 12 40  1  0  0  0  0
 19 41  1  0  0  0  0
 19 42  1  0  0  0  0
 19 43  1  0  0  0  0
 20 44  1  0  0  0  0
 20 45  1  0  0  0  0
 20 46  1  0  0  0  0
 21 47  1  0  0  0  0
 21 48  1  0  0  0  0
 24 49  1  0  0  0  0
M  END
> <clash_score>
0

> <docking_score>
-9.053332328796387

> <overlap_score>
0.971435546875

$$$$
BENZO_26_1
  -OEChem-08232013433D

 56 60  0     0  0  0  0  0  0999 V2000
    3.9160    2.0630   19.5520 C   0  0  0  0  0  0  0  0  0  0  0  0
    4.2750    1.7050   20.8490 C   0  0  0  0  0  0  0  0  0  0  0  0
   13.6832    2.0538   22.6017 C   0  0  0  0  0  0  0  0  0  0  0  0
   12.2902    2.1061   22.6497 C   0  0  0  0  0  0  0  0  0  0  0  0
    4.6890    1.6810   18.4640 C   0  0  0  0  0  0  0  0  0  0  0  0
    5.4210    0.9600   21.0930 C   0  0  0  0  0  0  0  0  0  0  0  0
    8.9960   -2.3380   25.5320 C   0  0  0  0  0  0  0  0  0  0  0  0
    9.6730   -3.4710   23.5300 C   0  0  0  0  0  0  0  0  0  0  0  0
    9.0720   -1.1280   24.8640 C   0  0  0  0  0  0  0  0  0  0  0  0
    9.7200   -2.2600   22.8630 C   0  0  0  0  0  0  0  0  0  0  0  0
   14.3762    1.1601   23.4183 C   0  0  0  0  0  0  0  0  0  0  0  0
   12.2831    0.3711   24.3311 C   0  0  0  0  0  0  0  0  0  0  0  0
   11.5901    1.2648   23.5145 C   0  0  0  0  0  0  0  0  0  0  0  0
    5.8300    0.9190   18.6970 C   0  0  0  0  0  0  0  0  0  0  0  0
    6.1790    0.5730   19.9990 C   0  0  0  0  0  0  0  0  0  0  0  0
    9.3070   -3.5340   24.8780 C   0  0  0  0  0  0  0  0  0  0  0  0
    9.3350   -1.0880   23.5010 C   0  0  0  0  0  0  0  0  0  0  0  0
   13.6762    0.3188   24.2830 C   0  0  0  0  0  0  0  0  0  0  0  0
    9.0420    0.3700   21.5280 C   0  0  0  0  0  0  0  0  0  0  0  0
    9.5174   -4.8597   26.9770 C   0  0  0  0  0  0  0  0  0  0  0  0
    8.5165   -5.8725   24.9808 C   0  0  0  0  0  0  0  0  0  0  0  0
    8.1868   -5.0439   27.6987 C   0  0  0  0  0  0  0  0  0  0  0  0
    7.2200   -6.0347   25.7755 C   0  0  0  0  0  0  0  0  0  0  0  0
   10.0908    1.3225   23.5666 C   0  0  0  0  0  0  0  0  0  0  0  0
    6.7580    0.3810   17.8350 N   0  0  0  0  0  0  0  0  0  0  0  0
    7.6390   -0.2680   18.5410 N   0  0  0  0  0  0  0  0  0  0  0  0
    7.3170   -0.1610   19.8550 N   0  0  0  0  0  0  0  0  0  0  0  0
    9.2563   -4.7368   25.5413 N   0  0  0  0  0  0  0  0  0  0  0  0
    8.1890   -0.7180   20.8700 N   0  0  0  0  0  0  0  0  0  0  0  0
    9.4560    0.1560   22.8130 N   0  0  0  0  0  0  0  0  0  0  0  0
    9.2690    1.4140   20.9380 O   0  0  0  0  0  0  0  0  0  0  0  0
    7.4994   -6.1853   27.1719 O   0  0  0  0  0  0  0  0  0  0  0  0
   14.5318   -0.7827   25.2911 Cl  0  0  0  0  0  0  0  0  0  0  0  0
    3.0136    2.6526   19.3908 H   0  0  0  0  0  0  0  0  0  0  0  0
    3.6480    2.0140   21.6821 H   0  0  0  0  0  0  0  0  0  0  0  0
   14.2280    2.7092   21.9282 H   0  0  0  0  0  0  0  0  0  0  0  0
   11.7584    2.8056   22.0100 H   0  0  0  0  0  0  0  0  0  0  0  0
    4.4042    1.9741   17.4524 H   0  0  0  0  0  0  0  0  0  0  0  0
    5.7089    0.6919   22.1150 H   0  0  0  0  0  0  0  0  0  0  0  0
    8.6905   -2.3533   26.5810 H   0  0  0  0  0  0  0  0  0  0  0  0
    9.9266   -4.3896   22.9917 H   0  0  0  0  0  0  0  0  0  0  0  0
    8.9233   -0.1992   25.4232 H   0  0  0  0  0  0  0  0  0  0  0  0
   10.0650   -2.2330   21.8256 H   0  0  0  0  0  0  0  0  0  0  0  0
   15.4620    1.1305   23.3704 H   0  0  0  0  0  0  0  0  0  0  0  0
   11.7327   -0.2831   25.0033 H   0  0  0  0  0  0  0  0  0  0  0  0
   10.0205   -3.9698   27.3609 H   0  0  0  0  0  0  0  0  0  0  0  0
   10.1535   -5.7310   27.1549 H   0  0  0  0  0  0  0  0  0  0  0  0
    9.1181   -6.7773   25.0755 H   0  0  0  0  0  0  0  0  0  0  0  0
    8.2812   -5.7064   23.9304 H   0  0  0  0  0  0  0  0  0  0  0  0
    8.3628   -5.2252   28.7611 H   0  0  0  0  0  0  0  0  0  0  0  0
    7.5530   -4.1570   27.6103 H   0  0  0  0  0  0  0  0  0  0  0  0
    6.5459   -5.1839   25.6221 H   0  0  0  0  0  0  0  0  0  0  0  0
    6.6948   -6.9354   25.4436 H   0  0  0  0  0  0  0  0  0  0  0  0
    9.7401    1.3200   24.6044 H   0  0  0  0  0  0  0  0  0  0  0  0
    9.7163    2.2391   23.0989 H   0  0  0  0  0  0  0  0  0  0  0  0
    8.2565   -1.5523   21.1108 H   0  0  0  0  0  0  0  0  0  0  0  0
  1  2  1  0  0  0  0
  1  5  2  0  0  0  0
  2  6  2  0  0  0  0
  3  4  2  0  0  0  0
  3 11  1  0  0  0  0
  4 13  1  0  0  0  0
  5 14  1  0  0  0  0
  6 15  1  0  0  0  0
  7  9  2  0  0  0  0
  7 16  1  0  0  0  0
  8 10  1  0  0  0  0
  8 16  2  0  0  0  0
  9 17  1  0  0  0  0
 10 17  2  0  0  0  0
 11 18  2  0  0  0  0
 12 13  2  0  0  0  0
 12 18  1  0  0  0  0
 13 24  1  0  0  0  0
 14 15  2  0  0  0  0
 14 25  1  0  0  0  0
 15 27  1  0  0  0  0
 16 28  1  0  0  0  0
 17 30  1  0  0  0  0
 18 33  1  0  0  0  0
 19 29  1  0  0  0  0
 19 30  1  0  0  0  0
 19 31  2  0  0  0  0
 20 22  1  0  0  0  0
 20 28  1  0  0  0  0
 21 23  1  0  0  0  0
 21 28  1  0  0  0  0
 22 32  1  0  0  0  0
 23 32  1  0  0  0  0
 24 30  1  0  0  0  0
 25 26  2  0  0  0  0
 26 27  1  0  0  0  0
 27 29  1  0  0  0  0
  1 34  1  0  0  0  0
  2 35  1  0  0  0  0
  3 36  1  0  0  0  0
  4 37  1  0  0  0  0
  5 38  1  0  0  0  0
  6 39  1  0  0  0  0
  7 40  1  0  0  0  0
  8 41  1  0  0  0  0
  9 42  1  0  0  0  0
 10 43  1  0  0  0  0
 11 44  1  0  0  0  0
 12 45  1  0  0  0  0
 20 46  1  0  0  0  0
 20 47  1  0  0  0  0
 21 48  1  0  0  0  0
 21 49  1  0  0  0  0
 22 50  1  0  0  0  0
 22 51  1  0  0  0  0
 23 52  1  0  0  0  0
 23 53  1  0  0  0  0
 24 54  1  0  0  0  0
 24 55  1  0  0  0  0
 29 56  1  0  0  0  0
M  END
> <clash_score>
0.686935481487884

> <docking_score>
-7.696981906890869

> <overlap_score>
1.000719428062439

$$$$
BENZO_27_1
  -OEChem-08232013433D

 56 60  0     0  0  0  0  0  0999 V2000
    3.9160    2.0630   19.5520 C   0  0  0  0  0  0  0  0  0  0  0  0
    4.2750    1.7050   20.8490 C   0  0  0  0  0  0  0  0  0  0  0  0
    4.6890    1.6810   18.4640 C   0  0  0  0  0  0  0  0  0  0  0  0
    5.4210    0.9600   21.0930 C   0  0  0  0  0  0  0  0  0  0  0  0
    8.9960   -2.3380   25.5320 C   0  0  0  0  0  0  0  0  0  0  0  0
    9.6730   -3.4710   23.5300 C   0  0  0  0  0  0  0  0  0  0  0  0
    9.0720   -1.1280   24.8640 C   0  0  0  0  0  0  0  0  0  0  0  0
    9.7200   -2.2600   22.8630 C   0  0  0  0  0  0  0  0  0  0  0  0
   12.4566    2.0301   22.7113 C   0  0  0  0  0  0  0  0  0  0  0  0
   12.4248    0.4534   24.2435 C   0  0  0  0  0  0  0  0  0  0  0  0
   11.5901    1.2648   23.5145 C   0  0  0  0  0  0  0  0  0  0  0  0
    5.8300    0.9190   18.6970 C   0  0  0  0  0  0  0  0  0  0  0  0
    6.1790    0.5730   19.9990 C   0  0  0  0  0  0  0  0  0  0  0  0
    9.3070   -3.5340   24.8780 C   0  0  0  0  0  0  0  0  0  0  0  0
    9.3350   -1.0880   23.5010 C   0  0  0  0  0  0  0  0  0  0  0  0
    9.0420    0.3700   21.5280 C   0  0  0  0  0  0  0  0  0  0  0  0
   10.0771   -5.0255   26.7193 C   0  0  0  0  0  0  0  0  0  0  0  0
    8.0926   -5.6195   25.4071 C   0  0  0  0  0  0  0  0  0  0  0  0
    9.1933   -4.9427   27.9592 C   0  0  0  0  0  0  0  0  0  0  0  0
    7.2756   -5.5290   26.6967 C   0  0  0  0  0  0  0  0  0  0  0  0
   14.9137    0.1787   24.3371 C   0  0  0  0  0  0  0  0  0  0  0  0
   10.0908    1.3225   23.5666 C   0  0  0  0  0  0  0  0  0  0  0  0
   13.7431    1.7318   22.9111 N   0  0  0  0  0  0  0  0  0  0  0  0
    6.7580    0.3810   17.8350 N   0  0  0  0  0  0  0  0  0  0  0  0
    7.6390   -0.2680   18.5410 N   0  0  0  0  0  0  0  0  0  0  0  0
   13.6912    0.7700   23.8483 N   0  0  0  0  0  0  0  0  0  0  0  0
    7.3170   -0.1610   19.8550 N   0  0  0  0  0  0  0  0  0  0  0  0
    9.2563   -4.7368   25.5413 N   0  0  0  0  0  0  0  0  0  0  0  0
    8.1890   -0.7180   20.8700 N   0  0  0  0  0  0  0  0  0  0  0  0
    9.4560    0.1560   22.8130 N   0  0  0  0  0  0  0  0  0  0  0  0
    9.2690    1.4140   20.9380 O   0  0  0  0  0  0  0  0  0  0  0  0
    8.0883   -5.8459   27.8325 O   0  0  0  0  0  0  0  0  0  0  0  0
    3.0136    2.6526   19.3908 H   0  0  0  0  0  0  0  0  0  0  0  0
    3.6480    2.0140   21.6821 H   0  0  0  0  0  0  0  0  0  0  0  0
    4.4042    1.9741   17.4524 H   0  0  0  0  0  0  0  0  0  0  0  0
    5.7089    0.6919   22.1150 H   0  0  0  0  0  0  0  0  0  0  0  0
    8.6905   -2.3533   26.5810 H   0  0  0  0  0  0  0  0  0  0  0  0
    9.9266   -4.3896   22.9917 H   0  0  0  0  0  0  0  0  0  0  0  0
    8.9233   -0.1992   25.4232 H   0  0  0  0  0  0  0  0  0  0  0  0
   10.0650   -2.2330   21.8256 H   0  0  0  0  0  0  0  0  0  0  0  0
   12.2067    2.7940   21.9886 H   0  0  0  0  0  0  0  0  0  0  0  0
   12.2304   -0.3026   24.9922 H   0  0  0  0  0  0  0  0  0  0  0  0
   10.8985   -4.3115   26.8085 H   0  0  0  0  0  0  0  0  0  0  0  0
   10.4915   -6.0334   26.6323 H   0  0  0  0  0  0  0  0  0  0  0  0
    8.4327   -6.6456   25.2620 H   0  0  0  0  0  0  0  0  0  0  0  0
    7.4725   -5.3241   24.5619 H   0  0  0  0  0  0  0  0  0  0  0  0
    9.7636   -5.2398   28.8419 H   0  0  0  0  0  0  0  0  0  0  0  0
    8.8236   -3.9268   28.1248 H   0  0  0  0  0  0  0  0  0  0  0  0
    6.8339   -4.5337   26.8232 H   0  0  0  0  0  0  0  0  0  0  0  0
    6.4550   -6.2521   26.6643 H   0  0  0  0  0  0  0  0  0  0  0  0
   15.1476   -0.6826   23.7059 H   0  0  0  0  0  0  0  0  0  0  0  0
   15.7192    0.9168   24.2904 H   0  0  0  0  0  0  0  0  0  0  0  0
   14.7739   -0.1337   25.3757 H   0  0  0  0  0  0  0  0  0  0  0  0
    9.7401    1.3200   24.6044 H   0  0  0  0  0  0  0  0  0  0  0  0
    9.7163    2.2391   23.0989 H   0  0  0  0  0  0  0  0  0  0  0  0
    8.2565   -1.5523   21.1108 H   0  0  0  0  0  0  0  0  0  0  0  0
  1  2  1  0  0  0  0
  1  3  2  0  0  0  0
  2  4  2  0  0  0  0
  3 12  1  0  0  0  0
  4 13  1  0  0  0  0
  5  7  2  0  0  0  0
  5 14  1  0  0  0  0
  6  8  1  0  0  0  0
  6 14  2  0  0  0  0
  7 15  1  0  0  0  0
  8 15  2  0  0  0  0
  9 11  1  0  0  0  0
  9 23  2  0  0  0  0
 10 11  2  0  0  0  0
 10 26  1  0  0  0  0
 11 22  1  0  0  0  0
 12 13  2  0  0  0  0
 12 24  1  0  0  0  0
 13 27  1  0  0  0  0
 14 28  1  0  0  0  0
 15 30  1  0  0  0  0
 16 29  1  0  0  0  0
 16 30  1  0  0  0  0
 16 31  2  0  0  0  0
 17 19  1  0  0  0  0
 17 28  1  0  0  0  0
 18 20  1  0  0  0  0
 18 28  1  0  0  0  0
 19 32  1  0  0  0  0
 20 32  1  0  0  0  0
 21 26  1  0  0  0  0
 22 30  1  0  0  0  0
 23 26  1  0  0  0  0
 24 25  2  0  0  0  0
 25 27  1  0  0  0  0
 27 29  1  0  0  0  0
  1 33  1  0  0  0  0
  2 34  1  0  0  0  0
  3 35  1  0  0  0  0
  4 36  1  0  0  0  0
  5 37  1  0  0  0  0
  6 38  1  0  0  0  0
  7 39  1  0  0  0  0
  8 40  1  0  0  0  0
  9 41  1  0  0  0  0
 10 42  1  0  0  0  0
 17 43  1  0  0  0  0
 17 44  1  0  0  0  0
 18 45  1  0  0  0  0
 18 46  1  0  0  0  0
 19 47  1  0  0  0  0
 19 48  1  0  0  0  0
 20 49  1  0  0  0  0
 20 50  1  0  0  0  0
 21 51  1  0  0  0  0
 21 52  1  0  0  0  0
 21 53  1  0  0  0  0
 22 54  1  0  0  0  0
 22 55  1  0  0  0  0
 29 56  1  0  0  0  0
M  END
> <clash_score>
0

> <docking_score>
-8.562670707702637

> <overlap_score>
0.9950060248374939

$$$$
BENZO_31_1
  -OEChem-08232013433D

 52 55  0     0  0  0  0  0  0999 V2000
    3.9160    2.0630   19.5520 C   0  0  0  0  0  0  0  0  0  0  0  0
    4.2750    1.7050   20.8490 C   0  0  0  0  0  0  0  0  0  0  0  0
    4.6890    1.6810   18.4640 C   0  0  0  0  0  0  0  0  0  0  0  0
    5.4210    0.9600   21.0930 C   0  0  0  0  0  0  0  0  0  0  0  0
    9.0720   -1.1280   24.8640 C   0  0  0  0  0  0  0  0  0  0  0  0
    9.7200   -2.2600   22.8630 C   0  0  0  0  0  0  0  0  0  0  0  0
    8.9960   -2.3380   25.5320 C   0  0  0  0  0  0  0  0  0  0  0  0
    9.6730   -3.4710   23.5300 C   0  0  0  0  0  0  0  0  0  0  0  0
   12.4744    2.0364   22.8054 C   0  0  0  0  0  0  0  0  0  0  0  0
   12.4096    0.4034   24.2766 C   0  0  0  0  0  0  0  0  0  0  0  0
    7.6390   -0.2680   18.5410 C   0  0  0  0  0  0  0  0  0  0  0  0
   11.5908    1.2427   23.5613 C   0  0  0  0  0  0  0  0  0  0  0  0
    5.8300    0.9190   18.6970 C   0  0  0  0  0  0  0  0  0  0  0  0
    6.1790    0.5730   19.9990 C   0  0  0  0  0  0  0  0  0  0  0  0
    9.3350   -1.0880   23.5010 C   0  0  0  0  0  0  0  0  0  0  0  0
    9.3070   -3.5340   24.8780 C   0  0  0  0  0  0  0  0  0  0  0  0
    9.0420    0.3700   21.5280 C   0  0  0  0  0  0  0  0  0  0  0  0
   14.8958    0.1218   24.4114 C   0  0  0  0  0  0  0  0  0  0  0  0
    8.0128   -5.2151   26.1416 C   0  0  0  0  0  0  0  0  0  0  0  0
   10.4372   -5.5860   25.6589 C   0  0  0  0  0  0  0  0  0  0  0  0
   10.0907    1.3005   23.5844 C   0  0  0  0  0  0  0  0  0  0  0  0
   13.7562    1.7289   23.0207 N   0  0  0  0  0  0  0  0  0  0  0  0
    6.7580    0.3810   17.8350 N   0  0  0  0  0  0  0  0  0  0  0  0
   13.6841    0.7328   23.9199 N   0  0  0  0  0  0  0  0  0  0  0  0
    7.3170   -0.1610   19.8550 N   0  0  0  0  0  0  0  0  0  0  0  0
    8.1890   -0.7180   20.8700 N   0  0  0  0  0  0  0  0  0  0  0  0
    9.4560    0.1560   22.8130 N   0  0  0  0  0  0  0  0  0  0  0  0
    9.2543   -4.7552   25.5519 N   0  0  0  0  0  0  0  0  0  0  0  0
    9.2690    1.4140   20.9380 O   0  0  0  0  0  0  0  0  0  0  0  0
    3.0134    2.6521   19.3911 H   0  0  0  0  0  0  0  0  0  0  0  0
    3.6460    2.0127   21.6812 H   0  0  0  0  0  0  0  0  0  0  0  0
    4.4037    1.9731   17.4543 H   0  0  0  0  0  0  0  0  0  0  0  0
    5.7084    0.6923   22.1132 H   0  0  0  0  0  0  0  0  0  0  0  0
    8.9217   -0.1995   25.4232 H   0  0  0  0  0  0  0  0  0  0  0  0
   10.0643   -2.2341   21.8254 H   0  0  0  0  0  0  0  0  0  0  0  0
    8.6893   -2.3540   26.5808 H   0  0  0  0  0  0  0  0  0  0  0  0
    9.9257   -4.3898   22.9921 H   0  0  0  0  0  0  0  0  0  0  0  0
   12.2400    2.8271   22.1069 H   0  0  0  0  0  0  0  0  0  0  0  0
   12.1992   -0.3798   24.9922 H   0  0  0  0  0  0  0  0  0  0  0  0
    8.4862   -0.8060   18.1787 H   0  0  0  0  0  0  0  0  0  0  0  0
   15.1422   -0.7157   23.7534 H   0  0  0  0  0  0  0  0  0  0  0  0
   15.7026    0.8600   24.4092 H   0  0  0  0  0  0  0  0  0  0  0  0
   14.7343   -0.2291   25.4345 H   0  0  0  0  0  0  0  0  0  0  0  0
    8.1744   -6.1904   26.6238 H   0  0  0  0  0  0  0  0  0  0  0  0
    7.6718   -4.4870   26.8924 H   0  0  0  0  0  0  0  0  0  0  0  0
    7.2494   -5.3166   25.3561 H   0  0  0  0  0  0  0  0  0  0  0  0
   10.1946   -6.4995   26.2216 H   0  0  0  0  0  0  0  0  0  0  0  0
   10.7865   -5.8578   24.6518 H   0  0  0  0  0  0  0  0  0  0  0  0
   11.2285   -5.0312   26.1842 H   0  0  0  0  0  0  0  0  0  0  0  0
    9.7186    1.2597   24.6139 H   0  0  0  0  0  0  0  0  0  0  0  0
    9.7267    2.2346   23.1437 H   0  0  0  0  0  0  0  0  0  0  0  0
    8.2233   -1.5737   21.0809 H   0  0  0  0  0  0  0  0  0  0  0  0
  1  2  1  0  0  0  0
  1  3  2  0  0  0  0
  2  4  2  0  0  0  0
  3 13  1  0  0  0  0
  4 14  1  0  0  0  0
  5  7  2  0  0  0  0
  5 15  1  0  0  0  0
  6  8  1  0  0  0  0
  6 15  2  0  0  0  0
  7 16  1  0  0  0  0
  8 16  2  0  0  0  0
  9 12  1  0  0  0  0
  9 22  2  0  0  0  0
 10 12  2  0  0  0  0
 10 24  1  0  0  0  0
 11 23  2  0  0  0  0
 11 25  1  0  0  0  0
 12 21  1  0  0  0  0
 13 14  2  0  0  0  0
 13 23  1  0  0  0  0
 14 25  1  0  0  0  0
 15 27  1  0  0  0  0
 16 28  1  0  0  0  0
 17 26  1  0  0  0  0
 17 27  1  0  0  0  0
 17 29  2  0  0  0  0
 18 24  1  0  0  0  0
 19 28  1  0  0  0  0
 20 28  1  0  0  0  0
 21 27  1  0  0  0  0
 22 24  1  0  0  0  0
 25 26  1  0  0  0  0
  1 30  1  0  0  0  0
  2 31  1  0  0  0  0
  3 32  1  0  0  0  0
  4 33  1  0  0  0  0
  5 34  1  0  0  0  0
  6 35  1  0  0  0  0
  7 36  1  0  0  0  0
  8 37  1  0  0  0  0
  9 38  1  0  0  0  0
 10 39  1  0  0  0  0
 11 40  1  0  0  0  0
 18 41  1  0  0  0  0
 18 42  1  0  0  0  0
 18 43  1  0  0  0  0
 19 44  1  0  0  0  0
 19 45  1  0  0  0  0
 19 46  1  0  0  0  0
 20 47  1  0  0  0  0
 20 48  1  0  0  0  0
 20 49  1  0  0  0  0
 21 50  1  0  0  0  0
 21 51  1  0  0  0  0
 26 52  1  0  0  0  0
M  END
> <clash_score>
0

> <docking_score>
-9.337889671325684

> <overlap_score>
0.9813143610954285

$$$$
BENZO_30_1
  -OEChem-08232013433D

 52 55  0     0  0  0  0  0  0999 V2000
    3.9160    2.0630   19.5520 C   0  0  0  0  0  0  0  0  0  0  0  0
    4.2750    1.7050   20.8490 C   0  0  0  0  0  0  0  0  0  0  0  0
   13.7029    2.0623   22.7223 C   0  0  0  0  0  0  0  0  0  0  0  0
   12.3093    2.1148   22.7434 C   0  0  0  0  0  0  0  0  0  0  0  0
    4.6890    1.6810   18.4640 C   0  0  0  0  0  0  0  0  0  0  0  0
    5.4210    0.9600   21.0930 C   0  0  0  0  0  0  0  0  0  0  0  0
    9.0720   -1.1280   24.8640 C   0  0  0  0  0  0  0  0  0  0  0  0
    9.7200   -2.2600   22.8630 C   0  0  0  0  0  0  0  0  0  0  0  0
    8.9960   -2.3380   25.5320 C   0  0  0  0  0  0  0  0  0  0  0  0
    9.6730   -3.4710   23.5300 C   0  0  0  0  0  0  0  0  0  0  0  0
   14.3783    1.1377   23.5190 C   0  0  0  0  0  0  0  0  0  0  0  0
   12.2661    0.3181   24.3581 C   0  0  0  0  0  0  0  0  0  0  0  0
    7.6390   -0.2680   18.5410 C   0  0  0  0  0  0  0  0  0  0  0  0
   11.5908    1.2427   23.5613 C   0  0  0  0  0  0  0  0  0  0  0  0
    5.8300    0.9190   18.6970 C   0  0  0  0  0  0  0  0  0  0  0  0
    6.1790    0.5730   19.9990 C   0  0  0  0  0  0  0  0  0  0  0  0
    9.3350   -1.0880   23.5010 C   0  0  0  0  0  0  0  0  0  0  0  0
    9.3070   -3.5340   24.8780 C   0  0  0  0  0  0  0  0  0  0  0  0
   13.6598    0.2656   24.3369 C   0  0  0  0  0  0  0  0  0  0  0  0
    9.0420    0.3700   21.5280 C   0  0  0  0  0  0  0  0  0  0  0  0
    8.0128   -5.2151   26.1416 C   0  0  0  0  0  0  0  0  0  0  0  0
   10.4372   -5.5860   25.6589 C   0  0  0  0  0  0  0  0  0  0  0  0
   10.0907    1.3005   23.5844 C   0  0  0  0  0  0  0  0  0  0  0  0
    6.7580    0.3810   17.8350 N   0  0  0  0  0  0  0  0  0  0  0  0
    7.3170   -0.1610   19.8550 N   0  0  0  0  0  0  0  0  0  0  0  0
    8.1890   -0.7180   20.8700 N   0  0  0  0  0  0  0  0  0  0  0  0
    9.4560    0.1560   22.8130 N   0  0  0  0  0  0  0  0  0  0  0  0
    9.2543   -4.7552   25.5519 N   0  0  0  0  0  0  0  0  0  0  0  0
    9.2690    1.4140   20.9380 O   0  0  0  0  0  0  0  0  0  0  0  0
   14.4936   -0.8741   25.3206 Cl  0  0  0  0  0  0  0  0  0  0  0  0
    3.0134    2.6521   19.3911 H   0  0  0  0  0  0  0  0  0  0  0  0
    3.6460    2.0127   21.6812 H   0  0  0  0  0  0  0  0  0  0  0  0
   14.2620    2.7417   22.0854 H   0  0  0  0  0  0  0  0  0  0  0  0
   11.7914    2.8385   22.1194 H   0  0  0  0  0  0  0  0  0  0  0  0
    4.4037    1.9731   17.4543 H   0  0  0  0  0  0  0  0  0  0  0  0
    5.7084    0.6923   22.1132 H   0  0  0  0  0  0  0  0  0  0  0  0
    8.9217   -0.1995   25.4232 H   0  0  0  0  0  0  0  0  0  0  0  0
   10.0643   -2.2341   21.8254 H   0  0  0  0  0  0  0  0  0  0  0  0
    8.6893   -2.3540   26.5808 H   0  0  0  0  0  0  0  0  0  0  0  0
    9.9257   -4.3898   22.9921 H   0  0  0  0  0  0  0  0  0  0  0  0
   15.4648    1.1084   23.4926 H   0  0  0  0  0  0  0  0  0  0  0  0
   11.7014   -0.3601   24.9936 H   0  0  0  0  0  0  0  0  0  0  0  0
    8.4862   -0.8060   18.1787 H   0  0  0  0  0  0  0  0  0  0  0  0
    8.1744   -6.1904   26.6238 H   0  0  0  0  0  0  0  0  0  0  0  0
    7.6718   -4.4870   26.8924 H   0  0  0  0  0  0  0  0  0  0  0  0
    7.2494   -5.3166   25.3561 H   0  0  0  0  0  0  0  0  0  0  0  0
   10.1946   -6.4995   26.2216 H   0  0  0  0  0  0  0  0  0  0  0  0
   10.7865   -5.8578   24.6518 H   0  0  0  0  0  0  0  0  0  0  0  0
   11.2285   -5.0312   26.1842 H   0  0  0  0  0  0  0  0  0  0  0  0
    9.7186    1.2597   24.6139 H   0  0  0  0  0  0  0  0  0  0  0  0
    9.7267    2.2346   23.1437 H   0  0  0  0  0  0  0  0  0  0  0  0
    8.2233   -1.5737   21.0809 H   0  0  0  0  0  0  0  0  0  0  0  0
  1  2  1  0  0  0  0
  1  5  2  0  0  0  0
  2  6  2  0  0  0  0
  3  4  2  0  0  0  0
  3 11  1  0  0  0  0
  4 14  1  0  0  0  0
  5 15  1  0  0  0  0
  6 16  1  0  0  0  0
  7  9  2  0  0  0  0
  7 17  1  0  0  0  0
  8 10  1  0  0  0  0
  8 17  2  0  0  0  0
  9 18  1  0  0  0  0
 10 18  2  0  0  0  0
 11 19  2  0  0  0  0
 12 14  2  0  0  0  0
 12 19  1  0  0  0  0
 13 24  2  0  0  0  0
 13 25  1  0  0  0  0
 14 23  1  0  0  0  0
 15 16  2  0  0  0  0
 15 24  1  0  0  0  0
 16 25  1  0  0  0  0
 17 27  1  0  0  0  0
 18 28  1  0  0  0  0
 19 30  1  0  0  0  0
 20 26  1  0  0  0  0
 20 27  1  0  0  0  0
 20 29  2  0  0  0  0
 21 28  1  0  0  0  0
 22 28  1  0  0  0  0
 23 27  1  0  0  0  0
 25 26  1  0  0  0  0
  1 31  1  0  0  0  0
  2 32  1  0  0  0  0
  3 33  1  0  0  0  0
  4 34  1  0  0  0  0
  5 35  1  0  0  0  0
  6 36  1  0  0  0  0
  7 37  1  0  0  0  0
  8 38  1  0  0  0  0
  9 39  1  0  0  0  0
 10 40  1  0  0  0  0
 11 41  1  0  0  0  0
 12 42  1  0  0  0  0
 13 43  1  0  0  0  0
 21 44  1  0  0  0  0
 21 45  1  0  0  0  0
 21 46  1  0  0  0  0
 22 47  1  0  0  0  0
 22 48  1  0  0  0  0
 22 49  1  0  0  0  0
 23 50  1  0  0  0  0
 23 51  1  0  0  0  0
 26 52  1  0  0  0  0
M  END
> <clash_score>
0.7096511452496574

> <docking_score>
-8.523567199707031

> <overlap_score>
0.9840106964111328

$$$$
BENZO_32_1
  -OEChem-08232013433D

 51 54  0     0  0  0  0  0  0999 V2000
    3.9160    2.0630   19.5520 C   0  0  0  0  0  0  0  0  0  0  0  0
    4.2750    1.7050   20.8490 C   0  0  0  0  0  0  0  0  0  0  0  0
    4.6890    1.6810   18.4640 C   0  0  0  0  0  0  0  0  0  0  0  0
    5.4210    0.9600   21.0930 C   0  0  0  0  0  0  0  0  0  0  0  0
    8.9960   -2.3380   25.5320 C   0  0  0  0  0  0  0  0  0  0  0  0
    9.6730   -3.4710   23.5300 C   0  0  0  0  0  0  0  0  0  0  0  0
    9.0720   -1.1280   24.8640 C   0  0  0  0  0  0  0  0  0  0  0  0
    9.7200   -2.2600   22.8630 C   0  0  0  0  0  0  0  0  0  0  0  0
   12.4312    2.3922   23.6126 C   0  0  0  0  0  0  0  0  0  0  0  0
   13.7672    2.0585   23.5760 C   0  0  0  0  0  0  0  0  0  0  0  0
   12.3167    0.0741   23.4871 C   0  0  0  0  0  0  0  0  0  0  0  0
    7.6390   -0.2680   18.5410 C   0  0  0  0  0  0  0  0  0  0  0  0
   11.5908    1.2427   23.5613 C   0  0  0  0  0  0  0  0  0  0  0  0
    5.8300    0.9190   18.6970 C   0  0  0  0  0  0  0  0  0  0  0  0
    6.1790    0.5730   19.9990 C   0  0  0  0  0  0  0  0  0  0  0  0
    9.3070   -3.5340   24.8780 C   0  0  0  0  0  0  0  0  0  0  0  0
    9.3350   -1.0880   23.5010 C   0  0  0  0  0  0  0  0  0  0  0  0
    9.5334   -6.0236   25.0413 C   0  0  0  0  0  0  0  0  0  0  0  0
    9.0420    0.3700   21.5280 C   0  0  0  0  0  0  0  0  0  0  0  0
   10.6330   -7.3747   26.8774 C   0  0  0  0  0  0  0  0  0  0  0  0
   10.0907    1.3005   23.5844 C   0  0  0  0  0  0  0  0  0  0  0  0
    9.3523   -7.0865   26.1148 C   0  0  0  0  0  0  0  0  0  0  0  0
    6.7580    0.3810   17.8350 N   0  0  0  0  0  0  0  0  0  0  0  0
    7.3170   -0.1610   19.8550 N   0  0  0  0  0  0  0  0  0  0  0  0
    9.2546   -4.7422   25.5438 N   0  0  0  0  0  0  0  0  0  0  0  0
    8.1890   -0.7180   20.8700 N   0  0  0  0  0  0  0  0  0  0  0  0
    9.4560    0.1560   22.8130 N   0  0  0  0  0  0  0  0  0  0  0  0
    9.8806   -6.3052   23.8991 O   0  0  0  0  0  0  0  0  0  0  0  0
    9.2690    1.4140   20.9380 O   0  0  0  0  0  0  0  0  0  0  0  0
   14.0041    0.3653   23.4799 S   0  0  0  0  0  0  0  0  0  0  0  0
    3.0134    2.6521   19.3911 H   0  0  0  0  0  0  0  0  0  0  0  0
    3.6460    2.0127   21.6812 H   0  0  0  0  0  0  0  0  0  0  0  0
    4.4037    1.9731   17.4543 H   0  0  0  0  0  0  0  0  0  0  0  0
    5.7084    0.6923   22.1132 H   0  0  0  0  0  0  0  0  0  0  0  0
    8.6895   -2.3529   26.5807 H   0  0  0  0  0  0  0  0  0  0  0  0
    9.9262   -4.3897   22.9916 H   0  0  0  0  0  0  0  0  0  0  0  0
    8.9224   -0.1998   25.4238 H   0  0  0  0  0  0  0  0  0  0  0  0
   10.0649   -2.2343   21.8258 H   0  0  0  0  0  0  0  0  0  0  0  0
   12.0779    3.4138   23.6730 H   0  0  0  0  0  0  0  0  0  0  0  0
   14.6154    2.7279   23.6003 H   0  0  0  0  0  0  0  0  0  0  0  0
   11.9408   -0.9384   23.4354 H   0  0  0  0  0  0  0  0  0  0  0  0
    8.4862   -0.8060   18.1787 H   0  0  0  0  0  0  0  0  0  0  0  0
   11.4241   -7.7171   26.2023 H   0  0  0  0  0  0  0  0  0  0  0  0
   10.4629   -8.1531   27.6275 H   0  0  0  0  0  0  0  0  0  0  0  0
   10.9950   -6.4779   27.3911 H   0  0  0  0  0  0  0  0  0  0  0  0
    9.7186    1.2597   24.6139 H   0  0  0  0  0  0  0  0  0  0  0  0
    9.7267    2.2346   23.1437 H   0  0  0  0  0  0  0  0  0  0  0  0
    8.5795   -6.7463   26.8137 H   0  0  0  0  0  0  0  0  0  0  0  0
    8.9966   -8.0064   25.6366 H   0  0  0  0  0  0  0  0  0  0  0  0
    8.9776   -4.7057   26.5317 H   0  0  0  0  0  0  0  0  0  0  0  0
    8.2233   -1.5737   21.0809 H   0  0  0  0  0  0  0  0  0  0  0  0
  1  2  1  0  0  0  0
  1  3  2  0  0  0  0
  2  4  2  0  0  0  0
  3 14  1  0  0  0  0
  4 15  1  0  0  0  0
  5  7  2  0  0  0  0
  5 16  1  0  0  0  0
  6  8  1  0  0  0  0
  6 16  2  0  0  0  0
  7 17  1  0  0  0  0
  8 17  2  0  0  0  0
  9 10  2  0  0  0  0
  9 13  1  0  0  0  0
 10 30  1  0  0  0  0
 11 13  2  0  0  0  0
 11 30  1  0  0  0  0
 12 23  2  0  0  0  0
 12 24  1  0  0  0  0
 13 21  1  0  0  0  0
 14 15  2  0  0  0  0
 14 23  1  0  0  0  0
 15 24  1  0  0  0  0
 16 25  1  0  0  0  0
 17 27  1  0  0  0  0
 18 22  1  0  0  0  0
 18 25  1  0  0  0  0
 18 28  2  0  0  0  0
 19 26  1  0  0  0  0
 19 27  1  0  0  0  0
 19 29  2  0  0  0  0
 20 22  1  0  0  0  0
 21 27  1  0  0  0  0
 24 26  1  0  0  0  0
  1 31  1  0  0  0  0
  2 32  1  0  0  0  0
  3 33  1  0  0  0  0
  4 34  1  0  0  0  0
  5 35  1  0  0  0  0
  6 36  1  0  0  0  0
  7 37  1  0  0  0  0
  8 38  1  0  0  0  0
  9 39  1  0  0  0  0
 10 40  1  0  0  0  0
 11 41  1  0  0  0  0
 12 42  1  0  0  0  0
 20 43  1  0  0  0  0
 20 44  1  0  0  0  0
 20 45  1  0  0  0  0
 21 46  1  0  0  0  0
 21 47  1  0  0  0  0
 22 48  1  0  0  0  0
 22 49  1  0  0  0  0
 25 50  1  0  0  0  0
 26 51  1  0  0  0  0
M  END
> <clash_score>
1.4986180656309704

> <docking_score>
-5.859033584594727

> <overlap_score>
0.9736807346343994

$$$$
BENZO_33_1
  -OEChem-08232013433D

 54 57  0     0  0  0  0  0  0999 V2000
   14.3782    1.1355   23.5170 C   0  0  0  0  0  0  0  0  0  0  0  0
   13.6715    0.4911   24.5323 C   0  0  0  0  0  0  0  0  0  0  0  0
   13.6912    1.8336   22.5238 C   0  0  0  0  0  0  0  0  0  0  0  0
    3.9160    2.0630   19.5520 C   0  0  0  0  0  0  0  0  0  0  0  0
    4.2750    1.7050   20.8490 C   0  0  0  0  0  0  0  0  0  0  0  0
   12.2779    0.5447   24.5545 C   0  0  0  0  0  0  0  0  0  0  0  0
   12.2975    1.8871   22.5459 C   0  0  0  0  0  0  0  0  0  0  0  0
    4.6890    1.6810   18.4640 C   0  0  0  0  0  0  0  0  0  0  0  0
    5.4210    0.9600   21.0930 C   0  0  0  0  0  0  0  0  0  0  0  0
    8.9960   -2.3380   25.5320 C   0  0  0  0  0  0  0  0  0  0  0  0
    9.6730   -3.4710   23.5300 C   0  0  0  0  0  0  0  0  0  0  0  0
    9.0720   -1.1280   24.8640 C   0  0  0  0  0  0  0  0  0  0  0  0
    9.7200   -2.2600   22.8630 C   0  0  0  0  0  0  0  0  0  0  0  0
    7.6390   -0.2680   18.5410 C   0  0  0  0  0  0  0  0  0  0  0  0
   11.5908    1.2427   23.5613 C   0  0  0  0  0  0  0  0  0  0  0  0
    5.8300    0.9190   18.6970 C   0  0  0  0  0  0  0  0  0  0  0  0
    6.1790    0.5730   19.9990 C   0  0  0  0  0  0  0  0  0  0  0  0
    9.3070   -3.5340   24.8780 C   0  0  0  0  0  0  0  0  0  0  0  0
    9.3350   -1.0880   23.5010 C   0  0  0  0  0  0  0  0  0  0  0  0
    9.5334   -6.0236   25.0413 C   0  0  0  0  0  0  0  0  0  0  0  0
    9.0420    0.3700   21.5280 C   0  0  0  0  0  0  0  0  0  0  0  0
   10.6330   -7.3747   26.8774 C   0  0  0  0  0  0  0  0  0  0  0  0
   10.0907    1.3005   23.5844 C   0  0  0  0  0  0  0  0  0  0  0  0
    9.3523   -7.0865   26.1148 C   0  0  0  0  0  0  0  0  0  0  0  0
    6.7580    0.3810   17.8350 N   0  0  0  0  0  0  0  0  0  0  0  0
    7.3170   -0.1610   19.8550 N   0  0  0  0  0  0  0  0  0  0  0  0
    9.2546   -4.7422   25.5438 N   0  0  0  0  0  0  0  0  0  0  0  0
    8.1890   -0.7180   20.8700 N   0  0  0  0  0  0  0  0  0  0  0  0
    9.4560    0.1560   22.8130 N   0  0  0  0  0  0  0  0  0  0  0  0
    9.8806   -6.3052   23.8991 O   0  0  0  0  0  0  0  0  0  0  0  0
    9.2690    1.4140   20.9380 O   0  0  0  0  0  0  0  0  0  0  0  0
   15.4634    1.0948   23.5006 H   0  0  0  0  0  0  0  0  0  0  0  0
   14.2063   -0.0516   25.3064 H   0  0  0  0  0  0  0  0  0  0  0  0
   14.2410    2.3363   21.7337 H   0  0  0  0  0  0  0  0  0  0  0  0
    3.0134    2.6521   19.3911 H   0  0  0  0  0  0  0  0  0  0  0  0
    3.6460    2.0127   21.6812 H   0  0  0  0  0  0  0  0  0  0  0  0
   11.7356    0.0394   25.3494 H   0  0  0  0  0  0  0  0  0  0  0  0
   11.7707    2.4333   21.7679 H   0  0  0  0  0  0  0  0  0  0  0  0
    4.4037    1.9731   17.4543 H   0  0  0  0  0  0  0  0  0  0  0  0
    5.7084    0.6923   22.1132 H   0  0  0  0  0  0  0  0  0  0  0  0
    8.6895   -2.3529   26.5807 H   0  0  0  0  0  0  0  0  0  0  0  0
    9.9262   -4.3897   22.9916 H   0  0  0  0  0  0  0  0  0  0  0  0
    8.9224   -0.1998   25.4238 H   0  0  0  0  0  0  0  0  0  0  0  0
   10.0649   -2.2343   21.8258 H   0  0  0  0  0  0  0  0  0  0  0  0
    8.4862   -0.8060   18.1787 H   0  0  0  0  0  0  0  0  0  0  0  0
   11.4241   -7.7171   26.2023 H   0  0  0  0  0  0  0  0  0  0  0  0
   10.4629   -8.1531   27.6275 H   0  0  0  0  0  0  0  0  0  0  0  0
   10.9950   -6.4779   27.3911 H   0  0  0  0  0  0  0  0  0  0  0  0
    9.7186    1.2597   24.6139 H   0  0  0  0  0  0  0  0  0  0  0  0
    9.7267    2.2346   23.1437 H   0  0  0  0  0  0  0  0  0  0  0  0
    8.5795   -6.7463   26.8137 H   0  0  0  0  0  0  0  0  0  0  0  0
    8.9966   -8.0064   25.6366 H   0  0  0  0  0  0  0  0  0  0  0  0
    8.9776   -4.7057   26.5317 H   0  0  0  0  0  0  0  0  0  0  0  0
    8.2233   -1.5737   21.0809 H   0  0  0  0  0  0  0  0  0  0  0  0
  1  2  1  0  0  0  0
  1  3  2  0  0  0  0
  2  6  2  0  0  0  0
  3  7  1  0  0  0  0
  4  5  1  0  0  0  0
  4  8  2  0  0  0  0
  5  9  2  0  0  0  0
  6 15  1  0  0  0  0
  7 15  2  0  0  0  0
  8 16  1  0  0  0  0
  9 17  1  0  0  0  0
 10 12  2  0  0  0  0
 10 18  1  0  0  0  0
 11 13  1  0  0  0  0
 11 18  2  0  0  0  0
 12 19  1  0  0  0  0
 13 19  2  0  0  0  0
 14 25  2  0  0  0  0
 14 26  1  0  0  0  0
 15 23  1  0  0  0  0
 16 17  2  0  0  0  0
 16 25  1  0  0  0  0
 17 26  1  0  0  0  0
 18 27  1  0  0  0  0
 19 29  1  0  0  0  0
 20 24  1  0  0  0  0
 20 27  1  0  0  0  0
 20 30  2  0  0  0  0
 21 28  1  0  0  0  0
 21 29  1  0  0  0  0
 21 31  2  0  0  0  0
 22 24  1  0  0  0  0
 23 29  1  0  0  0  0
 26 28  1  0  0  0  0
  1 32  1  0  0  0  0
  2 33  1  0  0  0  0
  3 34  1  0  0  0  0
  4 35  1  0  0  0  0
  5 36  1  0  0  0  0
  6 37  1  0  0  0  0
  7 38  1  0  0  0  0
  8 39  1  0  0  0  0
  9 40  1  0  0  0  0
 10 41  1  0  0  0  0
 11 42  1  0  0  0  0
 12 43  1  0  0  0  0
 13 44  1  0  0  0  0
 14 45  1  0  0  0  0
 22 46  1  0  0  0  0
 22 47  1  0  0  0  0
 22 48  1  0  0  0  0
 23 49  1  0  0  0  0
 23 50  1  0  0  0  0
 24 51  1  0  0  0  0
 24 52  1  0  0  0  0
 27 53  1  0  0  0  0
 28 54  1  0  0  0  0
M  END
> <clash_score>
1.4986180656309704

> <docking_score>
-6.2818450927734375

> <overlap_score>
0.9803571701049805

$$$$
BENZO_34_1
  -OEChem-08232013433D

 54 57  0     0  0  0  0  0  0999 V2000
    3.9160    2.0630   19.5520 C   0  0  0  0  0  0  0  0  0  0  0  0
    4.2750    1.7050   20.8490 C   0  0  0  0  0  0  0  0  0  0  0  0
   13.7029    2.0623   22.7223 C   0  0  0  0  0  0  0  0  0  0  0  0
   12.3093    2.1148   22.7434 C   0  0  0  0  0  0  0  0  0  0  0  0
    4.6890    1.6810   18.4640 C   0  0  0  0  0  0  0  0  0  0  0  0
    5.4210    0.9600   21.0930 C   0  0  0  0  0  0  0  0  0  0  0  0
    8.9960   -2.3380   25.5320 C   0  0  0  0  0  0  0  0  0  0  0  0
    9.6730   -3.4710   23.5300 C   0  0  0  0  0  0  0  0  0  0  0  0
    9.0720   -1.1280   24.8640 C   0  0  0  0  0  0  0  0  0  0  0  0
    9.7200   -2.2600   22.8630 C   0  0  0  0  0  0  0  0  0  0  0  0
   14.3783    1.1377   23.5190 C   0  0  0  0  0  0  0  0  0  0  0  0
   12.2661    0.3181   24.3581 C   0  0  0  0  0  0  0  0  0  0  0  0
    7.6390   -0.2680   18.5410 C   0  0  0  0  0  0  0  0  0  0  0  0
   11.5908    1.2427   23.5613 C   0  0  0  0  0  0  0  0  0  0  0  0
    5.8300    0.9190   18.6970 C   0  0  0  0  0  0  0  0  0  0  0  0
    6.1790    0.5730   19.9990 C   0  0  0  0  0  0  0  0  0  0  0  0
    9.3070   -3.5340   24.8780 C   0  0  0  0  0  0  0  0  0  0  0  0
    9.3350   -1.0880   23.5010 C   0  0  0  0  0  0  0  0  0  0  0  0
   13.6598    0.2656   24.3369 C   0  0  0  0  0  0  0  0  0  0  0  0
    9.5334   -6.0236   25.0413 C   0  0  0  0  0  0  0  0  0  0  0  0
    9.0420    0.3700   21.5280 C   0  0  0  0  0  0  0  0  0  0  0  0
   10.6330   -7.3747   26.8774 C   0  0  0  0  0  0  0  0  0  0  0  0
   10.0907    1.3005   23.5844 C   0  0  0  0  0  0  0  0  0  0  0  0
    9.3523   -7.0865   26.1148 C   0  0  0  0  0  0  0  0  0  0  0  0
    6.7580    0.3810   17.8350 N   0  0  0  0  0  0  0  0  0  0  0  0
    7.3170   -0.1610   19.8550 N   0  0  0  0  0  0  0  0  0  0  0  0
    9.2546   -4.7422   25.5438 N   0  0  0  0  0  0  0  0  0  0  0  0
    8.1890   -0.7180   20.8700 N   0  0  0  0  0  0  0  0  0  0  0  0
    9.4560    0.1560   22.8130 N   0  0  0  0  0  0  0  0  0  0  0  0
    9.8806   -6.3052   23.8991 O   0  0  0  0  0  0  0  0  0  0  0  0
    9.2690    1.4140   20.9380 O   0  0  0  0  0  0  0  0  0  0  0  0
   14.4936   -0.8741   25.3206 Cl  0  0  0  0  0  0  0  0  0  0  0  0
    3.0134    2.6521   19.3911 H   0  0  0  0  0  0  0  0  0  0  0  0
    3.6460    2.0127   21.6812 H   0  0  0  0  0  0  0  0  0  0  0  0
   14.2620    2.7417   22.0854 H   0  0  0  0  0  0  0  0  0  0  0  0
   11.7914    2.8385   22.1194 H   0  0  0  0  0  0  0  0  0  0  0  0
    4.4037    1.9731   17.4543 H   0  0  0  0  0  0  0  0  0  0  0  0
    5.7084    0.6923   22.1132 H   0  0  0  0  0  0  0  0  0  0  0  0
    8.6895   -2.3529   26.5807 H   0  0  0  0  0  0  0  0  0  0  0  0
    9.9262   -4.3897   22.9916 H   0  0  0  0  0  0  0  0  0  0  0  0
    8.9224   -0.1998   25.4238 H   0  0  0  0  0  0  0  0  0  0  0  0
   10.0649   -2.2343   21.8258 H   0  0  0  0  0  0  0  0  0  0  0  0
   15.4648    1.1084   23.4926 H   0  0  0  0  0  0  0  0  0  0  0  0
   11.7014   -0.3601   24.9936 H   0  0  0  0  0  0  0  0  0  0  0  0
    8.4862   -0.8060   18.1787 H   0  0  0  0  0  0  0  0  0  0  0  0
   11.4241   -7.7171   26.2023 H   0  0  0  0  0  0  0  0  0  0  0  0
   10.4629   -8.1531   27.6275 H   0  0  0  0  0  0  0  0  0  0  0  0
   10.9950   -6.4779   27.3911 H   0  0  0  0  0  0  0  0  0  0  0  0
    9.7186    1.2597   24.6139 H   0  0  0  0  0  0  0  0  0  0  0  0
    9.7267    2.2346   23.1437 H   0  0  0  0  0  0  0  0  0  0  0  0
    8.5795   -6.7463   26.8137 H   0  0  0  0  0  0  0  0  0  0  0  0
    8.9966   -8.0064   25.6366 H   0  0  0  0  0  0  0  0  0  0  0  0
    8.9776   -4.7057   26.5317 H   0  0  0  0  0  0  0  0  0  0  0  0
    8.2233   -1.5737   21.0809 H   0  0  0  0  0  0  0  0  0  0  0  0
  1  2  1  0  0  0  0
  1  5  2  0  0  0  0
  2  6  2  0  0  0  0
  3  4  2  0  0  0  0
  3 11  1  0  0  0  0
  4 14  1  0  0  0  0
  5 15  1  0  0  0  0
  6 16  1  0  0  0  0
  7  9  2  0  0  0  0
  7 17  1  0  0  0  0
  8 10  1  0  0  0  0
  8 17  2  0  0  0  0
  9 18  1  0  0  0  0
 10 18  2  0  0  0  0
 11 19  2  0  0  0  0
 12 14  2  0  0  0  0
 12 19  1  0  0  0  0
 13 25  2  0  0  0  0
 13 26  1  0  0  0  0
 14 23  1  0  0  0  0
 15 16  2  0  0  0  0
 15 25  1  0  0  0  0
 16 26  1  0  0  0  0
 17 27  1  0  0  0  0
 18 29  1  0  0  0  0
 19 32  1  0  0  0  0
 20 24  1  0  0  0  0
 20 27  1  0  0  0  0
 20 30  2  0  0  0  0
 21 28  1  0  0  0  0
 21 29  1  0  0  0  0
 21 31  2  0  0  0  0
 22 24  1  0  0  0  0
 23 29  1  0  0  0  0
 26 28  1  0  0  0  0
  1 33  1  0  0  0  0
  2 34  1  0  0  0  0
  3 35  1  0  0  0  0
  4 36  1  0  0  0  0
  5 37  1  0  0  0  0
  6 38  1  0  0  0  0
  7 39  1  0  0  0  0
  8 40  1  0  0  0  0
  9 41  1  0  0  0  0
 10 42  1  0  0  0  0
 11 43  1  0  0  0  0
 12 44  1  0  0  0  0
 13 45  1  0  0  0  0
 22 46  1  0  0  0  0
 22 47  1  0  0  0  0
 22 48  1  0  0  0  0
 23 49  1  0  0  0  0
 23 50  1  0  0  0  0
 24 51  1  0  0  0  0
 24 52  1  0  0  0  0
 27 53  1  0  0  0  0
 28 54  1  0  0  0  0
M  END
> <clash_score>
2.208269210880628

> <docking_score>
-5.329266548156738

> <overlap_score>
0.986205518245697

$$$$
BENZO_37_1
  -OEChem-08232013433D

 59 63  0     0  0  0  0  0  0999 V2000
   14.3702    1.0349   23.4339 C   0  0  0  0  0  0  0  0  0  0  0  0
   13.6627    0.4309   24.4732 C   0  0  0  0  0  0  0  0  0  0  0  0
   13.6866    1.7325   22.4380 C   0  0  0  0  0  0  0  0  0  0  0  0
    3.9160    2.0630   19.5520 C   0  0  0  0  0  0  0  0  0  0  0  0
    4.2750    1.7050   20.8490 C   0  0  0  0  0  0  0  0  0  0  0  0
   12.2717    0.5243   24.5166 C   0  0  0  0  0  0  0  0  0  0  0  0
   12.2956    1.8259   22.4813 C   0  0  0  0  0  0  0  0  0  0  0  0
    4.6890    1.6810   18.4640 C   0  0  0  0  0  0  0  0  0  0  0  0
    5.4210    0.9600   21.0930 C   0  0  0  0  0  0  0  0  0  0  0  0
    8.9960   -2.3380   25.5320 C   0  0  0  0  0  0  0  0  0  0  0  0
    9.6730   -3.4710   23.5300 C   0  0  0  0  0  0  0  0  0  0  0  0
    9.0720   -1.1280   24.8640 C   0  0  0  0  0  0  0  0  0  0  0  0
    9.7200   -2.2600   22.8630 C   0  0  0  0  0  0  0  0  0  0  0  0
    7.6390   -0.2680   18.5410 C   0  0  0  0  0  0  0  0  0  0  0  0
   11.5881    1.2218   23.5206 C   0  0  0  0  0  0  0  0  0  0  0  0
    5.8300    0.9190   18.6970 C   0  0  0  0  0  0  0  0  0  0  0  0
    6.1790    0.5730   19.9990 C   0  0  0  0  0  0  0  0  0  0  0  0
    9.3070   -3.5340   24.8780 C   0  0  0  0  0  0  0  0  0  0  0  0
    9.3350   -1.0880   23.5010 C   0  0  0  0  0  0  0  0  0  0  0  0
    9.0420    0.3700   21.5280 C   0  0  0  0  0  0  0  0  0  0  0  0
    7.6075   -7.0890   25.4795 C   0  0  0  0  0  0  0  0  0  0  0  0
    7.1392   -5.7989   26.1565 C   0  0  0  0  0  0  0  0  0  0  0  0
    8.6478   -6.8051   24.3935 C   0  0  0  0  0  0  0  0  0  0  0  0
    8.3303   -4.9793   26.6524 C   0  0  0  0  0  0  0  0  0  0  0  0
    9.8033   -5.9551   24.9309 C   0  0  0  0  0  0  0  0  0  0  0  0
   10.0908    1.3225   23.5666 C   0  0  0  0  0  0  0  0  0  0  0  0
    6.7580    0.3810   17.8350 N   0  0  0  0  0  0  0  0  0  0  0  0
    7.3170   -0.1610   19.8550 N   0  0  0  0  0  0  0  0  0  0  0  0
    9.2562   -4.7384   25.5422 N   0  0  0  0  0  0  0  0  0  0  0  0
    8.1890   -0.7180   20.8700 N   0  0  0  0  0  0  0  0  0  0  0  0
    9.4560    0.1560   22.8130 N   0  0  0  0  0  0  0  0  0  0  0  0
    9.2690    1.4140   20.9380 O   0  0  0  0  0  0  0  0  0  0  0  0
   15.4534    0.9633   23.4010 H   0  0  0  0  0  0  0  0  0  0  0  0
   14.1949   -0.1113   25.2494 H   0  0  0  0  0  0  0  0  0  0  0  0
   14.2372    2.2039   21.6293 H   0  0  0  0  0  0  0  0  0  0  0  0
    3.0134    2.6521   19.3911 H   0  0  0  0  0  0  0  0  0  0  0  0
    3.6460    2.0127   21.6812 H   0  0  0  0  0  0  0  0  0  0  0  0
   11.7287    0.0503   25.3301 H   0  0  0  0  0  0  0  0  0  0  0  0
   11.7714    2.3713   21.7010 H   0  0  0  0  0  0  0  0  0  0  0  0
    4.4037    1.9731   17.4543 H   0  0  0  0  0  0  0  0  0  0  0  0
    5.7084    0.6923   22.1132 H   0  0  0  0  0  0  0  0  0  0  0  0
    8.6905   -2.3533   26.5810 H   0  0  0  0  0  0  0  0  0  0  0  0
    9.9266   -4.3896   22.9917 H   0  0  0  0  0  0  0  0  0  0  0  0
    8.9233   -0.1992   25.4231 H   0  0  0  0  0  0  0  0  0  0  0  0
   10.0650   -2.2330   21.8256 H   0  0  0  0  0  0  0  0  0  0  0  0
    8.4862   -0.8060   18.1787 H   0  0  0  0  0  0  0  0  0  0  0  0
    8.0356   -7.7671   26.2335 H   0  0  0  0  0  0  0  0  0  0  0  0
    6.7454   -7.6111   25.0398 H   0  0  0  0  0  0  0  0  0  0  0  0
    6.5539   -5.2055   25.4489 H   0  0  0  0  0  0  0  0  0  0  0  0
    6.4855   -6.0435   26.9963 H   0  0  0  0  0  0  0  0  0  0  0  0
    9.0392   -7.7512   24.0053 H   0  0  0  0  0  0  0  0  0  0  0  0
    8.1711   -6.2867   23.5535 H   0  0  0  0  0  0  0  0  0  0  0  0
    7.9625   -4.0328   27.0569 H   0  0  0  0  0  0  0  0  0  0  0  0
    8.8427   -5.5180   27.4546 H   0  0  0  0  0  0  0  0  0  0  0  0
   10.3696   -6.5240   25.6692 H   0  0  0  0  0  0  0  0  0  0  0  0
   10.4665   -5.7029   24.1030 H   0  0  0  0  0  0  0  0  0  0  0  0
    9.7347    1.3121   24.6025 H   0  0  0  0  0  0  0  0  0  0  0  0
    9.7457    2.2578   23.1134 H   0  0  0  0  0  0  0  0  0  0  0  0
    8.2565   -1.5523   21.1108 H   0  0  0  0  0  0  0  0  0  0  0  0
  1  2  1  0  0  0  0
  1  3  2  0  0  0  0
  2  6  2  0  0  0  0
  3  7  1  0  0  0  0
  4  5  1  0  0  0  0
  4  8  2  0  0  0  0
  5  9  2  0  0  0  0
  6 15  1  0  0  0  0
  7 15  2  0  0  0  0
  8 16  1  0  0  0  0
  9 17  1  0  0  0  0
 10 12  2  0  0  0  0
 10 18  1  0  0  0  0
 11 13  1  0  0  0  0
 11 18  2  0  0  0  0
 12 19  1  0  0  0  0
 13 19  2  0  0  0  0
 14 27  2  0  0  0  0
 14 28  1  0  0  0  0
 15 26  1  0  0  0  0
 16 17  2  0  0  0  0
 16 27  1  0  0  0  0
 17 28  1  0  0  0  0
 18 29  1  0  0  0  0
 19 31  1  0  0  0  0
 20 30  1  0  0  0  0
 20 31  1  0  0  0  0
 20 32  2  0  0  0  0
 21 22  1  0  0  0  0
 21 23  1  0  0  0  0
 22 24  1  0  0  0  0
 23 25  1  0  0  0  0
 24 29  1  0  0  0  0
 25 29  1  0  0  0  0
 26 31  1  0  0  0  0
 28 30  1  0  0  0  0
  1 33  1  0  0  0  0
  2 34  1  0  0  0  0
  3 35  1  0  0  0  0
  4 36  1  0  0  0  0
  5 37  1  0  0  0  0
  6 38  1  0  0  0  0
  7 39  1  0  0  0  0
  8 40  1  0  0  0  0
  9 41  1  0  0  0  0
 10 42  1  0  0  0  0
 11 43  1  0  0  0  0
 12 44  1  0  0  0  0
 13 45  1  0  0  0  0
 14 46  1  0  0  0  0
 21 47  1  0  0  0  0
 21 48  1  0  0  0  0
 22 49  1  0  0  0  0
 22 50  1  0  0  0  0
 23 51  1  0  0  0  0
 23 52  1  0  0  0  0
 24 53  1  0  0  0  0
 24 54  1  0  0  0  0
 25 55  1  0  0  0  0
 25 56  1  0  0  0  0
 26 57  1  0  0  0  0
 26 58  1  0  0  0  0
 30 59  1  0  0  0  0
M  END
> <clash_score>
0

> <docking_score>
-8.110992431640625

> <overlap_score>
0.998691976070404

$$$$
BENZO_35_1
  -OEChem-08232013433D

 54 57  0     0  0  0  0  0  0999 V2000
    3.9160    2.0630   19.5520 C   0  0  0  0  0  0  0  0  0  0  0  0
    4.2750    1.7050   20.8490 C   0  0  0  0  0  0  0  0  0  0  0  0
    4.6890    1.6810   18.4640 C   0  0  0  0  0  0  0  0  0  0  0  0
    5.4210    0.9600   21.0930 C   0  0  0  0  0  0  0  0  0  0  0  0
    8.9960   -2.3380   25.5320 C   0  0  0  0  0  0  0  0  0  0  0  0
    9.6730   -3.4710   23.5300 C   0  0  0  0  0  0  0  0  0  0  0  0
    9.0720   -1.1280   24.8640 C   0  0  0  0  0  0  0  0  0  0  0  0
    9.7200   -2.2600   22.8630 C   0  0  0  0  0  0  0  0  0  0  0  0
   12.4744    2.0364   22.8054 C   0  0  0  0  0  0  0  0  0  0  0  0
   12.4096    0.4034   24.2766 C   0  0  0  0  0  0  0  0  0  0  0  0
    7.6390   -0.2680   18.5410 C   0  0  0  0  0  0  0  0  0  0  0  0
   11.5908    1.2427   23.5613 C   0  0  0  0  0  0  0  0  0  0  0  0
    5.8300    0.9190   18.6970 C   0  0  0  0  0  0  0  0  0  0  0  0
    6.1790    0.5730   19.9990 C   0  0  0  0  0  0  0  0  0  0  0  0
    9.3070   -3.5340   24.8780 C   0  0  0  0  0  0  0  0  0  0  0  0
    9.3350   -1.0880   23.5010 C   0  0  0  0  0  0  0  0  0  0  0  0
    9.5334   -6.0236   25.0413 C   0  0  0  0  0  0  0  0  0  0  0  0
    9.0420    0.3700   21.5280 C   0  0  0  0  0  0  0  0  0  0  0  0
   10.6330   -7.3747   26.8774 C   0  0  0  0  0  0  0  0  0  0  0  0
   14.8958    0.1218   24.4114 C   0  0  0  0  0  0  0  0  0  0  0  0
   10.0907    1.3005   23.5844 C   0  0  0  0  0  0  0  0  0  0  0  0
    9.3523   -7.0865   26.1148 C   0  0  0  0  0  0  0  0  0  0  0  0
   13.7562    1.7289   23.0207 N   0  0  0  0  0  0  0  0  0  0  0  0
    6.7580    0.3810   17.8350 N   0  0  0  0  0  0  0  0  0  0  0  0
   13.6841    0.7328   23.9199 N   0  0  0  0  0  0  0  0  0  0  0  0
    7.3170   -0.1610   19.8550 N   0  0  0  0  0  0  0  0  0  0  0  0
    9.2546   -4.7422   25.5438 N   0  0  0  0  0  0  0  0  0  0  0  0
    8.1890   -0.7180   20.8700 N   0  0  0  0  0  0  0  0  0  0  0  0
    9.4560    0.1560   22.8130 N   0  0  0  0  0  0  0  0  0  0  0  0
    9.8806   -6.3052   23.8991 O   0  0  0  0  0  0  0  0  0  0  0  0
    9.2690    1.4140   20.9380 O   0  0  0  0  0  0  0  0  0  0  0  0
    3.0134    2.6521   19.3911 H   0  0  0  0  0  0  0  0  0  0  0  0
    3.6460    2.0127   21.6812 H   0  0  0  0  0  0  0  0  0  0  0  0
    4.4037    1.9731   17.4543 H   0  0  0  0  0  0  0  0  0  0  0  0
    5.7084    0.6923   22.1132 H   0  0  0  0  0  0  0  0  0  0  0  0
    8.6895   -2.3529   26.5807 H   0  0  0  0  0  0  0  0  0  0  0  0
    9.9262   -4.3897   22.9916 H   0  0  0  0  0  0  0  0  0  0  0  0
    8.9224   -0.1998   25.4238 H   0  0  0  0  0  0  0  0  0  0  0  0
   10.0649   -2.2343   21.8258 H   0  0  0  0  0  0  0  0  0  0  0  0
   12.2400    2.8271   22.1069 H   0  0  0  0  0  0  0  0  0  0  0  0
   12.1992   -0.3798   24.9922 H   0  0  0  0  0  0  0  0  0  0  0  0
    8.4862   -0.8060   18.1787 H   0  0  0  0  0  0  0  0  0  0  0  0
   11.4241   -7.7171   26.2023 H   0  0  0  0  0  0  0  0  0  0  0  0
   10.4629   -8.1531   27.6275 H   0  0  0  0  0  0  0  0  0  0  0  0
   10.9950   -6.4779   27.3911 H   0  0  0  0  0  0  0  0  0  0  0  0
   15.1422   -0.7157   23.7534 H   0  0  0  0  0  0  0  0  0  0  0  0
   15.7026    0.8600   24.4092 H   0  0  0  0  0  0  0  0  0  0  0  0
   14.7343   -0.2291   25.4345 H   0  0  0  0  0  0  0  0  0  0  0  0
    9.7186    1.2597   24.6139 H   0  0  0  0  0  0  0  0  0  0  0  0
    9.7267    2.2346   23.1437 H   0  0  0  0  0  0  0  0  0  0  0  0
    8.5795   -6.7463   26.8137 H   0  0  0  0  0  0  0  0  0  0  0  0
    8.9966   -8.0064   25.6366 H   0  0  0  0  0  0  0  0  0  0  0  0
    8.9776   -4.7057   26.5317 H   0  0  0  0  0  0  0  0  0  0  0  0
    8.2233   -1.5737   21.0809 H   0  0  0  0  0  0  0  0  0  0  0  0
  1  2  1  0  0  0  0
  1  3  2  0  0  0  0
  2  4  2  0  0  0  0
  3 13  1  0  0  0  0
  4 14  1  0  0  0  0
  5  7  2  0  0  0  0
  5 15  1  0  0  0  0
  6  8  1  0  0  0  0
  6 15  2  0  0  0  0
  7 16  1  0  0  0  0
  8 16  2  0  0  0  0
  9 12  1  0  0  0  0
  9 23  2  0  0  0  0
 10 12  2  0  0  0  0
 10 25  1  0  0  0  0
 11 24  2  0  0  0  0
 11 26  1  0  0  0  0
 12 21  1  0  0  0  0
 13 14  2  0  0  0  0
 13 24  1  0  0  0  0
 14 26  1  0  0  0  0
 15 27  1  0  0  0  0
 16 29  1  0  0  0  0
 17 22  1  0  0  0  0
 17 27  1  0  0  0  0
 17 30  2  0  0  0  0
 18 28  1  0  0  0  0
 18 29  1  0  0  0  0
 18 31  2  0  0  0  0
 19 22  1  0  0  0  0
 20 25  1  0  0  0  0
 21 29  1  0  0  0  0
 23 25  1  0  0  0  0
 26 28  1  0  0  0  0
  1 32  1  0  0  0  0
  2 33  1  0  0  0  0
  3 34  1  0  0  0  0
  4 35  1  0  0  0  0
  5 36  1  0  0  0  0
  6 37  1  0  0  0  0
  7 38  1  0  0  0  0
  8 39  1  0  0  0  0
  9 40  1  0  0  0  0
 10 41  1  0  0  0  0
 11 42  1  0  0  0  0
 19 43  1  0  0  0  0
 19 44  1  0  0  0  0
 19 45  1  0  0  0  0
 20 46  1  0  0  0  0
 20 47  1  0  0  0  0
 20 48  1  0  0  0  0
 21 49  1  0  0  0  0
 21 50  1  0  0  0  0
 22 51  1  0  0  0  0
 22 52  1  0  0  0  0
 27 53  1  0  0  0  0
 28 54  1  0  0  0  0
M  END
> <clash_score>
1.4986180656309704

> <docking_score>
-6.143589019775391

> <overlap_score>
0.9835206270217896

$$$$
BENZO_36_1
  -OEChem-08232013433D

 56 60  0     0  0  0  0  0  0999 V2000
    3.9160    2.0630   19.5520 C   0  0  0  0  0  0  0  0  0  0  0  0
    4.2750    1.7050   20.8490 C   0  0  0  0  0  0  0  0  0  0  0  0
    4.6890    1.6810   18.4640 C   0  0  0  0  0  0  0  0  0  0  0  0
    5.4210    0.9600   21.0930 C   0  0  0  0  0  0  0  0  0  0  0  0
    8.9960   -2.3380   25.5320 C   0  0  0  0  0  0  0  0  0  0  0  0
    9.6730   -3.4710   23.5300 C   0  0  0  0  0  0  0  0  0  0  0  0
    9.0720   -1.1280   24.8640 C   0  0  0  0  0  0  0  0  0  0  0  0
    9.7200   -2.2600   22.8630 C   0  0  0  0  0  0  0  0  0  0  0  0
   12.4610    2.3478   23.5358 C   0  0  0  0  0  0  0  0  0  0  0  0
   13.7863    1.9758   23.4845 C   0  0  0  0  0  0  0  0  0  0  0  0
   12.2796    0.0319   23.4580 C   0  0  0  0  0  0  0  0  0  0  0  0
    7.6390   -0.2680   18.5410 C   0  0  0  0  0  0  0  0  0  0  0  0
   11.5881    1.2218   23.5206 C   0  0  0  0  0  0  0  0  0  0  0  0
    5.8300    0.9190   18.6970 C   0  0  0  0  0  0  0  0  0  0  0  0
    6.1790    0.5730   19.9990 C   0  0  0  0  0  0  0  0  0  0  0  0
    9.3070   -3.5340   24.8780 C   0  0  0  0  0  0  0  0  0  0  0  0
    9.3350   -1.0880   23.5010 C   0  0  0  0  0  0  0  0  0  0  0  0
    9.0420    0.3700   21.5280 C   0  0  0  0  0  0  0  0  0  0  0  0
    7.3635   -6.1361   27.1888 C   0  0  0  0  0  0  0  0  0  0  0  0
    8.1961   -4.9735   27.7341 C   0  0  0  0  0  0  0  0  0  0  0  0
    7.1942   -6.0394   25.6709 C   0  0  0  0  0  0  0  0  0  0  0  0
    9.5196   -4.8490   26.9797 C   0  0  0  0  0  0  0  0  0  0  0  0
    8.5442   -5.8838   24.9639 C   0  0  0  0  0  0  0  0  0  0  0  0
   10.0908    1.3225   23.5666 C   0  0  0  0  0  0  0  0  0  0  0  0
    6.7580    0.3810   17.8350 N   0  0  0  0  0  0  0  0  0  0  0  0
    7.3170   -0.1610   19.8550 N   0  0  0  0  0  0  0  0  0  0  0  0
    9.2562   -4.7384   25.5422 N   0  0  0  0  0  0  0  0  0  0  0  0
    8.1890   -0.7180   20.8700 N   0  0  0  0  0  0  0  0  0  0  0  0
    9.4560    0.1560   22.8130 N   0  0  0  0  0  0  0  0  0  0  0  0
    9.2690    1.4140   20.9380 O   0  0  0  0  0  0  0  0  0  0  0  0
   13.9742    0.2750   23.4181 S   0  0  0  0  0  0  0  0  0  0  0  0
    3.0134    2.6521   19.3911 H   0  0  0  0  0  0  0  0  0  0  0  0
    3.6460    2.0127   21.6812 H   0  0  0  0  0  0  0  0  0  0  0  0
    4.4037    1.9731   17.4543 H   0  0  0  0  0  0  0  0  0  0  0  0
    5.7084    0.6923   22.1132 H   0  0  0  0  0  0  0  0  0  0  0  0
    8.6905   -2.3533   26.5810 H   0  0  0  0  0  0  0  0  0  0  0  0
    9.9266   -4.3896   22.9917 H   0  0  0  0  0  0  0  0  0  0  0  0
    8.9233   -0.1992   25.4231 H   0  0  0  0  0  0  0  0  0  0  0  0
   10.0650   -2.2330   21.8256 H   0  0  0  0  0  0  0  0  0  0  0  0
   12.1374    3.3800   23.5817 H   0  0  0  0  0  0  0  0  0  0  0  0
   14.6532    2.6213   23.4820 H   0  0  0  0  0  0  0  0  0  0  0  0
   11.8748   -0.9703   23.4323 H   0  0  0  0  0  0  0  0  0  0  0  0
    8.4862   -0.8060   18.1787 H   0  0  0  0  0  0  0  0  0  0  0  0
    7.8482   -7.0901   27.4469 H   0  0  0  0  0  0  0  0  0  0  0  0
    6.3760   -6.1438   27.6724 H   0  0  0  0  0  0  0  0  0  0  0  0
    7.6307   -4.0424   27.6403 H   0  0  0  0  0  0  0  0  0  0  0  0
    8.3915   -5.1310   28.7968 H   0  0  0  0  0  0  0  0  0  0  0  0
    6.6888   -6.9376   25.3010 H   0  0  0  0  0  0  0  0  0  0  0  0
    6.5515   -5.1859   25.4257 H   0  0  0  0  0  0  0  0  0  0  0  0
   10.0492   -3.9640   27.3414 H   0  0  0  0  0  0  0  0  0  0  0  0
   10.1431   -5.7254   27.1778 H   0  0  0  0  0  0  0  0  0  0  0  0
    9.1338   -6.7931   25.0868 H   0  0  0  0  0  0  0  0  0  0  0  0
    8.3656   -5.7264   23.8998 H   0  0  0  0  0  0  0  0  0  0  0  0
    9.7347    1.3121   24.6025 H   0  0  0  0  0  0  0  0  0  0  0  0
    9.7457    2.2578   23.1134 H   0  0  0  0  0  0  0  0  0  0  0  0
    8.2565   -1.5523   21.1108 H   0  0  0  0  0  0  0  0  0  0  0  0
  1  2  1  0  0  0  0
  1  3  2  0  0  0  0
  2  4  2  0  0  0  0
  3 14  1  0  0  0  0
  4 15  1  0  0  0  0
  5  7  2  0  0  0  0
  5 16  1  0  0  0  0
  6  8  1  0  0  0  0
  6 16  2  0  0  0  0
  7 17  1  0  0  0  0
  8 17  2  0  0  0  0
  9 10  2  0  0  0  0
  9 13  1  0  0  0  0
 10 31  1  0  0  0  0
 11 13  2  0  0  0  0
 11 31  1  0  0  0  0
 12 25  2  0  0  0  0
 12 26  1  0  0  0  0
 13 24  1  0  0  0  0
 14 15  2  0  0  0  0
 14 25  1  0  0  0  0
 15 26  1  0  0  0  0
 16 27  1  0  0  0  0
 17 29  1  0  0  0  0
 18 28  1  0  0  0  0
 18 29  1  0  0  0  0
 18 30  2  0  0  0  0
 19 20  1  0  0  0  0
 19 21  1  0  0  0  0
 20 22  1  0  0  0  0
 21 23  1  0  0  0  0
 22 27  1  0  0  0  0
 23 27  1  0  0  0  0
 24 29  1  0  0  0  0
 26 28  1  0  0  0  0
  1 32  1  0  0  0  0
  2 33  1  0  0  0  0
  3 34  1  0  0  0  0
  4 35  1  0  0  0  0
  5 36  1  0  0  0  0
  6 37  1  0  0  0  0
  7 38  1  0  0  0  0
  8 39  1  0  0  0  0
  9 40  1  0  0  0  0
 10 41  1  0  0  0  0
 11 42  1  0  0  0  0
 12 43  1  0  0  0  0
 19 44  1  0  0  0  0
 19 45  1  0  0  0  0
 20 46  1  0  0  0  0
 20 47  1  0  0  0  0
 21 48  1  0  0  0  0
 21 49  1  0  0  0  0
 22 50  1  0  0  0  0
 22 51  1  0  0  0  0
 23 52  1  0  0  0  0
 23 53  1  0  0  0  0
 24 54  1  0  0  0  0
 24 55  1  0  0  0  0
 28 56  1  0  0  0  0
M  END
> <clash_score>
0

> <docking_score>
-8.309957504272461

> <overlap_score>
0.9876247048377991

$$$$
BENZO_39_1
  -OEChem-08232013433D

 59 63  0     0  0  0  0  0  0999 V2000
    3.9160    2.0630   19.5520 C   0  0  0  0  0  0  0  0  0  0  0  0
    4.2750    1.7050   20.8490 C   0  0  0  0  0  0  0  0  0  0  0  0
    4.6890    1.6810   18.4640 C   0  0  0  0  0  0  0  0  0  0  0  0
    5.4210    0.9600   21.0930 C   0  0  0  0  0  0  0  0  0  0  0  0
    8.9960   -2.3380   25.5320 C   0  0  0  0  0  0  0  0  0  0  0  0
    9.6730   -3.4710   23.5300 C   0  0  0  0  0  0  0  0  0  0  0  0
    9.0720   -1.1280   24.8640 C   0  0  0  0  0  0  0  0  0  0  0  0
    9.7200   -2.2600   22.8630 C   0  0  0  0  0  0  0  0  0  0  0  0
   12.4808    1.9754   22.7353 C   0  0  0  0  0  0  0  0  0  0  0  0
   12.3948    0.3736   24.2392 C   0  0  0  0  0  0  0  0  0  0  0  0
    7.6390   -0.2680   18.5410 C   0  0  0  0  0  0  0  0  0  0  0  0
   11.5881    1.2218   23.5206 C   0  0  0  0  0  0  0  0  0  0  0  0
    5.8300    0.9190   18.6970 C   0  0  0  0  0  0  0  0  0  0  0  0
    6.1790    0.5730   19.9990 C   0  0  0  0  0  0  0  0  0  0  0  0
    9.3070   -3.5340   24.8780 C   0  0  0  0  0  0  0  0  0  0  0  0
    9.3350   -1.0880   23.5010 C   0  0  0  0  0  0  0  0  0  0  0  0
    9.0420    0.3700   21.5280 C   0  0  0  0  0  0  0  0  0  0  0  0
    7.3635   -6.1361   27.1888 C   0  0  0  0  0  0  0  0  0  0  0  0
    8.1961   -4.9735   27.7341 C   0  0  0  0  0  0  0  0  0  0  0  0
    7.1942   -6.0394   25.6709 C   0  0  0  0  0  0  0  0  0  0  0  0
    9.5196   -4.8490   26.9797 C   0  0  0  0  0  0  0  0  0  0  0  0
    8.5442   -5.8838   24.9639 C   0  0  0  0  0  0  0  0  0  0  0  0
   14.8740    0.0245   24.3398 C   0  0  0  0  0  0  0  0  0  0  0  0
   10.0908    1.3225   23.5666 C   0  0  0  0  0  0  0  0  0  0  0  0
   13.7570    1.6360   22.9360 N   0  0  0  0  0  0  0  0  0  0  0  0
    6.7580    0.3810   17.8350 N   0  0  0  0  0  0  0  0  0  0  0  0
   13.6719    0.6599   23.8557 N   0  0  0  0  0  0  0  0  0  0  0  0
    7.3170   -0.1610   19.8550 N   0  0  0  0  0  0  0  0  0  0  0  0
    9.2562   -4.7384   25.5422 N   0  0  0  0  0  0  0  0  0  0  0  0
    8.1890   -0.7180   20.8700 N   0  0  0  0  0  0  0  0  0  0  0  0
    9.4560    0.1560   22.8130 N   0  0  0  0  0  0  0  0  0  0  0  0
    9.2690    1.4140   20.9380 O   0  0  0  0  0  0  0  0  0  0  0  0
    3.0134    2.6521   19.3911 H   0  0  0  0  0  0  0  0  0  0  0  0
    3.6460    2.0127   21.6812 H   0  0  0  0  0  0  0  0  0  0  0  0
    4.4037    1.9731   17.4543 H   0  0  0  0  0  0  0  0  0  0  0  0
    5.7084    0.6923   22.1132 H   0  0  0  0  0  0  0  0  0  0  0  0
    8.6905   -2.3533   26.5810 H   0  0  0  0  0  0  0  0  0  0  0  0
    9.9266   -4.3896   22.9917 H   0  0  0  0  0  0  0  0  0  0  0  0
    8.9233   -0.1992   25.4231 H   0  0  0  0  0  0  0  0  0  0  0  0
   10.0650   -2.2330   21.8256 H   0  0  0  0  0  0  0  0  0  0  0  0
   12.2572    2.7588   22.0250 H   0  0  0  0  0  0  0  0  0  0  0  0
   12.1744   -0.3894   24.9735 H   0  0  0  0  0  0  0  0  0  0  0  0
    8.4862   -0.8060   18.1787 H   0  0  0  0  0  0  0  0  0  0  0  0
    7.8482   -7.0901   27.4469 H   0  0  0  0  0  0  0  0  0  0  0  0
    6.3760   -6.1438   27.6724 H   0  0  0  0  0  0  0  0  0  0  0  0
    7.6307   -4.0424   27.6403 H   0  0  0  0  0  0  0  0  0  0  0  0
    8.3915   -5.1310   28.7968 H   0  0  0  0  0  0  0  0  0  0  0  0
    6.6888   -6.9376   25.3010 H   0  0  0  0  0  0  0  0  0  0  0  0
    6.5515   -5.1859   25.4257 H   0  0  0  0  0  0  0  0  0  0  0  0
   10.0492   -3.9640   27.3414 H   0  0  0  0  0  0  0  0  0  0  0  0
   10.1431   -5.7254   27.1778 H   0  0  0  0  0  0  0  0  0  0  0  0
    9.1338   -6.7931   25.0868 H   0  0  0  0  0  0  0  0  0  0  0  0
    8.3656   -5.7264   23.8998 H   0  0  0  0  0  0  0  0  0  0  0  0
   15.0860   -0.8322   23.6946 H   0  0  0  0  0  0  0  0  0  0  0  0
   15.7010    0.7393   24.3101 H   0  0  0  0  0  0  0  0  0  0  0  0
   14.7197   -0.3019   25.3720 H   0  0  0  0  0  0  0  0  0  0  0  0
    9.7347    1.3121   24.6025 H   0  0  0  0  0  0  0  0  0  0  0  0
    9.7457    2.2578   23.1134 H   0  0  0  0  0  0  0  0  0  0  0  0
    8.2565   -1.5523   21.1108 H   0  0  0  0  0  0  0  0  0  0  0  0
  1  2  1  0  0  0  0
  1  3  2  0  0  0  0
  2  4  2  0  0  0  0
  3 13  1  0  0  0  0
  4 14  1  0  0  0  0
  5  7  2  0  0  0  0
  5 15  1  0  0  0  0
  6  8  1  0  0  0  0
  6 15  2  0  0  0  0
  7 16  1  0  0  0  0
  8 16  2  0  0  0  0
  9 12  1  0  0  0  0
  9 25  2  0  0  0  0
 10 12  2  0  0  0  0
 10 27  1  0  0  0  0
 11 26  2  0  0  0  0
 11 28  1  0  0  0  0
 12 24  1  0  0  0  0
 13 14  2  0  0  0  0
 13 26  1  0  0  0  0
 14 28  1  0  0  0  0
 15 29  1  0  0  0  0
 16 31  1  0  0  0  0
 17 30  1  0  0  0  0
 17 31  1  0  0  0  0
 17 32  2  0  0  0  0
 18 19  1  0  0  0  0
 18 20  1  0  0  0  0
 19 21  1  0  0  0  0
 20 22  1  0  0  0  0
 21 29  1  0  0  0  0
 22 29  1  0  0  0  0
 23 27  1  0  0  0  0
 24 31  1  0  0  0  0
 25 27  1  0  0  0  0
 28 30  1  0  0  0  0
  1 33  1  0  0  0  0
  2 34  1  0  0  0  0
  3 35  1  0  0  0  0
  4 36  1  0  0  0  0
  5 37  1  0  0  0  0
  6 38  1  0  0  0  0
  7 39  1  0  0  0  0
  8 40  1  0  0  0  0
  9 41  1  0  0  0  0
 10 42  1  0  0  0  0
 11 43  1  0  0  0  0
 18 44  1  0  0  0  0
 18 45  1  0  0  0  0
 19 46  1  0  0  0  0
 19 47  1  0  0  0  0
 20 48  1  0  0  0  0
 20 49  1  0  0  0  0
 21 50  1  0  0  0  0
 21 51  1  0  0  0  0
 22 52  1  0  0  0  0
 22 53  1  0  0  0  0
 23 54  1  0  0  0  0
 23 55  1  0  0  0  0
 23 56  1  0  0  0  0
 24 57  1  0  0  0  0
 24 58  1  0  0  0  0
 30 59  1  0  0  0  0
M  END
> <clash_score>
0

> <docking_score>
-8.38795280456543

> <overlap_score>
0.9955458641052246

$$$$
BENZO_38_1
  -OEChem-08232013433D

 59 63  0     0  0  0  0  0  0999 V2000
    3.9160    2.0630   19.5520 C   0  0  0  0  0  0  0  0  0  0  0  0
    4.2750    1.7050   20.8490 C   0  0  0  0  0  0  0  0  0  0  0  0
   13.7081    1.9650   22.6320 C   0  0  0  0  0  0  0  0  0  0  0  0
   12.3170    2.0573   22.6743 C   0  0  0  0  0  0  0  0  0  0  0  0
    4.6890    1.6810   18.4640 C   0  0  0  0  0  0  0  0  0  0  0  0
    5.4210    0.9600   21.0930 C   0  0  0  0  0  0  0  0  0  0  0  0
    8.9960   -2.3380   25.5320 C   0  0  0  0  0  0  0  0  0  0  0  0
    9.6730   -3.4710   23.5300 C   0  0  0  0  0  0  0  0  0  0  0  0
    9.0720   -1.1280   24.8640 C   0  0  0  0  0  0  0  0  0  0  0  0
    9.7200   -2.2600   22.8630 C   0  0  0  0  0  0  0  0  0  0  0  0
   14.3704    1.0372   23.4359 C   0  0  0  0  0  0  0  0  0  0  0  0
   12.2503    0.2940   24.3246 C   0  0  0  0  0  0  0  0  0  0  0  0
    7.6390   -0.2680   18.5410 C   0  0  0  0  0  0  0  0  0  0  0  0
   11.5881    1.2218   23.5206 C   0  0  0  0  0  0  0  0  0  0  0  0
    5.8300    0.9190   18.6970 C   0  0  0  0  0  0  0  0  0  0  0  0
    6.1790    0.5730   19.9990 C   0  0  0  0  0  0  0  0  0  0  0  0
    9.3070   -3.5340   24.8780 C   0  0  0  0  0  0  0  0  0  0  0  0
    9.3350   -1.0880   23.5010 C   0  0  0  0  0  0  0  0  0  0  0  0
   13.6415    0.2017   24.2823 C   0  0  0  0  0  0  0  0  0  0  0  0
    9.0420    0.3700   21.5280 C   0  0  0  0  0  0  0  0  0  0  0  0
    7.3635   -6.1361   27.1888 C   0  0  0  0  0  0  0  0  0  0  0  0
    8.1961   -4.9735   27.7341 C   0  0  0  0  0  0  0  0  0  0  0  0
    7.1942   -6.0394   25.6709 C   0  0  0  0  0  0  0  0  0  0  0  0
    9.5196   -4.8490   26.9797 C   0  0  0  0  0  0  0  0  0  0  0  0
    8.5442   -5.8838   24.9639 C   0  0  0  0  0  0  0  0  0  0  0  0
   10.0908    1.3225   23.5666 C   0  0  0  0  0  0  0  0  0  0  0  0
    6.7580    0.3810   17.8350 N   0  0  0  0  0  0  0  0  0  0  0  0
    7.3170   -0.1610   19.8550 N   0  0  0  0  0  0  0  0  0  0  0  0
    9.2562   -4.7384   25.5422 N   0  0  0  0  0  0  0  0  0  0  0  0
    8.1890   -0.7180   20.8700 N   0  0  0  0  0  0  0  0  0  0  0  0
    9.4560    0.1560   22.8130 N   0  0  0  0  0  0  0  0  0  0  0  0
    9.2690    1.4140   20.9380 O   0  0  0  0  0  0  0  0  0  0  0  0
   14.4592   -0.9420   25.2748 Cl  0  0  0  0  0  0  0  0  0  0  0  0
    3.0134    2.6521   19.3911 H   0  0  0  0  0  0  0  0  0  0  0  0
    3.6460    2.0127   21.6812 H   0  0  0  0  0  0  0  0  0  0  0  0
   14.2754    2.6159   21.9729 H   0  0  0  0  0  0  0  0  0  0  0  0
   11.8093    2.7832   22.0445 H   0  0  0  0  0  0  0  0  0  0  0  0
    4.4037    1.9731   17.4543 H   0  0  0  0  0  0  0  0  0  0  0  0
    5.7084    0.6923   22.1132 H   0  0  0  0  0  0  0  0  0  0  0  0
    8.6905   -2.3533   26.5810 H   0  0  0  0  0  0  0  0  0  0  0  0
    9.9266   -4.3896   22.9917 H   0  0  0  0  0  0  0  0  0  0  0  0
    8.9233   -0.1992   25.4231 H   0  0  0  0  0  0  0  0  0  0  0  0
   10.0650   -2.2330   21.8256 H   0  0  0  0  0  0  0  0  0  0  0  0
   15.4551    0.9766   23.3927 H   0  0  0  0  0  0  0  0  0  0  0  0
   11.6774   -0.3555   24.9825 H   0  0  0  0  0  0  0  0  0  0  0  0
    8.4862   -0.8060   18.1787 H   0  0  0  0  0  0  0  0  0  0  0  0
    7.8482   -7.0901   27.4469 H   0  0  0  0  0  0  0  0  0  0  0  0
    6.3760   -6.1438   27.6724 H   0  0  0  0  0  0  0  0  0  0  0  0
    7.6307   -4.0424   27.6403 H   0  0  0  0  0  0  0  0  0  0  0  0
    8.3915   -5.1310   28.7968 H   0  0  0  0  0  0  0  0  0  0  0  0
    6.6888   -6.9376   25.3010 H   0  0  0  0  0  0  0  0  0  0  0  0
    6.5515   -5.1859   25.4257 H   0  0  0  0  0  0  0  0  0  0  0  0
   10.0492   -3.9640   27.3414 H   0  0  0  0  0  0  0  0  0  0  0  0
   10.1431   -5.7254   27.1778 H   0  0  0  0  0  0  0  0  0  0  0  0
    9.1338   -6.7931   25.0868 H   0  0  0  0  0  0  0  0  0  0  0  0
    8.3656   -5.7264   23.8998 H   0  0  0  0  0  0  0  0  0  0  0  0
    9.7347    1.3121   24.6025 H   0  0  0  0  0  0  0  0  0  0  0  0
    9.7457    2.2578   23.1134 H   0  0  0  0  0  0  0  0  0  0  0  0
    8.2565   -1.5523   21.1108 H   0  0  0  0  0  0  0  0  0  0  0  0
  1  2  1  0  0  0  0
  1  5  2  0  0  0  0
  2  6  2  0  0  0  0
  3  4  2  0  0  0  0
  3 11  1  0  0  0  0
  4 14  1  0  0  0  0
  5 15  1  0  0  0  0
  6 16  1  0  0  0  0
  7  9  2  0  0  0  0
  7 17  1  0  0  0  0
  8 10  1  0  0  0  0
  8 17  2  0  0  0  0
  9 18  1  0  0  0  0
 10 18  2  0  0  0  0
 11 19  2  0  0  0  0
 12 14  2  0  0  0  0
 12 19  1  0  0  0  0
 13 27  2  0  0  0  0
 13 28  1  0  0  0  0
 14 26  1  0  0  0  0
 15 16  2  0  0  0  0
 15 27  1  0  0  0  0
 16 28  1  0  0  0  0
 17 29  1  0  0  0  0
 18 31  1  0  0  0  0
 19 33  1  0  0  0  0
 20 30  1  0  0  0  0
 20 31  1  0  0  0  0
 20 32  2  0  0  0  0
 21 22  1  0  0  0  0
 21 23  1  0  0  0  0
 22 24  1  0  0  0  0
 23 25  1  0  0  0  0
 24 29  1  0  0  0  0
 25 29  1  0  0  0  0
 26 31  1  0  0  0  0
 28 30  1  0  0  0  0
  1 34  1  0  0  0  0
  2 35  1  0  0  0  0
  3 36  1  0  0  0  0
  4 37  1  0  0  0  0
  5 38  1  0  0  0  0
  6 39  1  0  0  0  0
  7 40  1  0  0  0  0
  8 41  1  0  0  0  0
  9 42  1  0  0  0  0
 10 43  1  0  0  0  0
 11 44  1  0  0  0  0
 12 45  1  0  0  0  0
 13 46  1  0  0  0  0
 21 47  1  0  0  0  0
 21 48  1  0  0  0  0
 22 49  1  0  0  0  0
 22 50  1  0  0  0  0
 23 51  1  0  0  0  0
 23 52  1  0  0  0  0
 24 53  1  0  0  0  0
 24 54  1  0  0  0  0
 25 55  1  0  0  0  0
 25 56  1  0  0  0  0
 26 57  1  0  0  0  0
 26 58  1  0  0  0  0
 30 59  1  0  0  0  0
M  END
> <clash_score>
0.7352702131893838

> <docking_score>
-7.667820930480957

> <overlap_score>
0.9978117346763611

$$$$
BENZO_41_1
  -OEChem-08232013433D

 47 50  0     0  0  0  0  0  0999 V2000
   14.3781    1.1338   23.5188 C   0  0  0  0  0  0  0  0  0  0  0  0
   13.7296    2.3655   23.6083 C   0  0  0  0  0  0  0  0  0  0  0  0
   13.6330   -0.0434   23.4504 C   0  0  0  0  0  0  0  0  0  0  0  0
    3.9160    2.0630   19.5520 C   0  0  0  0  0  0  0  0  0  0  0  0
    4.2750    1.7050   20.8490 C   0  0  0  0  0  0  0  0  0  0  0  0
   12.3359    2.4199   23.6296 C   0  0  0  0  0  0  0  0  0  0  0  0
   12.2394    0.0110   23.4717 C   0  0  0  0  0  0  0  0  0  0  0  0
    8.9960   -2.3380   25.5320 C   0  0  0  0  0  0  0  0  0  0  0  0
    9.6730   -3.4710   23.5300 C   0  0  0  0  0  0  0  0  0  0  0  0
    4.6890    1.6810   18.4640 C   0  0  0  0  0  0  0  0  0  0  0  0
    5.4210    0.9600   21.0930 C   0  0  0  0  0  0  0  0  0  0  0  0
    9.0720   -1.1280   24.8640 C   0  0  0  0  0  0  0  0  0  0  0  0
    9.7200   -2.2600   22.8630 C   0  0  0  0  0  0  0  0  0  0  0  0
    7.6390   -0.2680   18.5410 C   0  0  0  0  0  0  0  0  0  0  0  0
    9.3070   -3.5340   24.8780 C   0  0  0  0  0  0  0  0  0  0  0  0
   11.5908    1.2427   23.5613 C   0  0  0  0  0  0  0  0  0  0  0  0
    5.8300    0.9190   18.6970 C   0  0  0  0  0  0  0  0  0  0  0  0
    6.1790    0.5730   19.9990 C   0  0  0  0  0  0  0  0  0  0  0  0
    9.3350   -1.0880   23.5010 C   0  0  0  0  0  0  0  0  0  0  0  0
    9.0420    0.3700   21.5280 C   0  0  0  0  0  0  0  0  0  0  0  0
    9.2505   -4.8264   25.5904 C   0  0  0  0  0  0  0  0  0  0  0  0
   10.0907    1.3005   23.5844 C   0  0  0  0  0  0  0  0  0  0  0  0
    6.7580    0.3810   17.8350 N   0  0  0  0  0  0  0  0  0  0  0  0
    7.3170   -0.1610   19.8550 N   0  0  0  0  0  0  0  0  0  0  0  0
    8.1890   -0.7180   20.8700 N   0  0  0  0  0  0  0  0  0  0  0  0
    9.4560    0.1560   22.8130 N   0  0  0  0  0  0  0  0  0  0  0  0
    9.2690    1.4140   20.9380 O   0  0  0  0  0  0  0  0  0  0  0  0
   15.4633    1.0917   23.5009 H   0  0  0  0  0  0  0  0  0  0  0  0
   14.3095    3.2823   23.6605 H   0  0  0  0  0  0  0  0  0  0  0  0
   14.1376   -1.0024   23.3795 H   0  0  0  0  0  0  0  0  0  0  0  0
    3.0134    2.6521   19.3911 H   0  0  0  0  0  0  0  0  0  0  0  0
    3.6460    2.0127   21.6812 H   0  0  0  0  0  0  0  0  0  0  0  0
   11.8392    3.3840   23.6998 H   0  0  0  0  0  0  0  0  0  0  0  0
   11.6671   -0.9113   23.4181 H   0  0  0  0  0  0  0  0  0  0  0  0
    8.6919   -2.3557   26.5813 H   0  0  0  0  0  0  0  0  0  0  0  0
    9.9267   -4.3907   22.9939 H   0  0  0  0  0  0  0  0  0  0  0  0
    4.4037    1.9731   17.4543 H   0  0  0  0  0  0  0  0  0  0  0  0
    5.7084    0.6923   22.1132 H   0  0  0  0  0  0  0  0  0  0  0  0
    8.9217   -0.1995   25.4231 H   0  0  0  0  0  0  0  0  0  0  0  0
   10.0653   -2.2339   21.8256 H   0  0  0  0  0  0  0  0  0  0  0  0
    8.4862   -0.8060   18.1787 H   0  0  0  0  0  0  0  0  0  0  0  0
    8.2503   -5.2678   25.5020 H   0  0  0  0  0  0  0  0  0  0  0  0
    9.9817   -5.5374   25.1845 H   0  0  0  0  0  0  0  0  0  0  0  0
    9.4841   -4.7043   26.6562 H   0  0  0  0  0  0  0  0  0  0  0  0
    9.7186    1.2597   24.6139 H   0  0  0  0  0  0  0  0  0  0  0  0
    9.7267    2.2346   23.1437 H   0  0  0  0  0  0  0  0  0  0  0  0
    8.2233   -1.5737   21.0809 H   0  0  0  0  0  0  0  0  0  0  0  0
  1  2  1  0  0  0  0
  1  3  2  0  0  0  0
  2  6  2  0  0  0  0
  3  7  1  0  0  0  0
  4  5  1  0  0  0  0
  4 10  2  0  0  0  0
  5 11  2  0  0  0  0
  6 16  1  0  0  0  0
  7 16  2  0  0  0  0
  8 12  2  0  0  0  0
  8 15  1  0  0  0  0
  9 13  1  0  0  0  0
  9 15  2  0  0  0  0
 10 17  1  0  0  0  0
 11 18  1  0  0  0  0
 12 19  1  0  0  0  0
 13 19  2  0  0  0  0
 14 23  2  0  0  0  0
 14 24  1  0  0  0  0
 15 21  1  0  0  0  0
 16 22  1  0  0  0  0
 17 18  2  0  0  0  0
 17 23  1  0  0  0  0
 18 24  1  0  0  0  0
 19 26  1  0  0  0  0
 20 25  1  0  0  0  0
 20 26  1  0  0  0  0
 20 27  2  0  0  0  0
 22 26  1  0  0  0  0
 24 25  1  0  0  0  0
  1 28  1  0  0  0  0
  2 29  1  0  0  0  0
  3 30  1  0  0  0  0
  4 31  1  0  0  0  0
  5 32  1  0  0  0  0
  6 33  1  0  0  0  0
  7 34  1  0  0  0  0
  8 35  1  0  0  0  0
  9 36  1  0  0  0  0
 10 37  1  0  0  0  0
 11 38  1  0  0  0  0
 12 39  1  0  0  0  0
 13 40  1  0  0  0  0
 14 41  1  0  0  0  0
 21 42  1  0  0  0  0
 21 43  1  0  0  0  0
 21 44  1  0  0  0  0
 22 45  1  0  0  0  0
 22 46  1  0  0  0  0
 25 47  1  0  0  0  0
M  END
> <clash_score>
0

> <docking_score>
-7.594274520874023

> <overlap_score>
0.9447149038314819

$$$$
BENZO_40_1
  -OEChem-08232013433D

 44 47  0     0  0  0  0  0  0999 V2000
    3.9160    2.0630   19.5520 C   0  0  0  0  0  0  0  0  0  0  0  0
    4.2750    1.7050   20.8490 C   0  0  0  0  0  0  0  0  0  0  0  0
    8.9960   -2.3380   25.5320 C   0  0  0  0  0  0  0  0  0  0  0  0
    9.6730   -3.4710   23.5300 C   0  0  0  0  0  0  0  0  0  0  0  0
    4.6890    1.6810   18.4640 C   0  0  0  0  0  0  0  0  0  0  0  0
    5.4210    0.9600   21.0930 C   0  0  0  0  0  0  0  0  0  0  0  0
    9.0720   -1.1280   24.8640 C   0  0  0  0  0  0  0  0  0  0  0  0
    9.7200   -2.2600   22.8630 C   0  0  0  0  0  0  0  0  0  0  0  0
   12.4312    2.3922   23.6126 C   0  0  0  0  0  0  0  0  0  0  0  0
   13.7672    2.0585   23.5760 C   0  0  0  0  0  0  0  0  0  0  0  0
   12.3167    0.0741   23.4871 C   0  0  0  0  0  0  0  0  0  0  0  0
    7.6390   -0.2680   18.5410 C   0  0  0  0  0  0  0  0  0  0  0  0
    9.3070   -3.5340   24.8780 C   0  0  0  0  0  0  0  0  0  0  0  0
   11.5908    1.2427   23.5613 C   0  0  0  0  0  0  0  0  0  0  0  0
    5.8300    0.9190   18.6970 C   0  0  0  0  0  0  0  0  0  0  0  0
    6.1790    0.5730   19.9990 C   0  0  0  0  0  0  0  0  0  0  0  0
    9.3350   -1.0880   23.5010 C   0  0  0  0  0  0  0  0  0  0  0  0
    9.0420    0.3700   21.5280 C   0  0  0  0  0  0  0  0  0  0  0  0
    9.2505   -4.8264   25.5904 C   0  0  0  0  0  0  0  0  0  0  0  0
   10.0907    1.3005   23.5844 C   0  0  0  0  0  0  0  0  0  0  0  0
    6.7580    0.3810   17.8350 N   0  0  0  0  0  0  0  0  0  0  0  0
    7.3170   -0.1610   19.8550 N   0  0  0  0  0  0  0  0  0  0  0  0
    8.1890   -0.7180   20.8700 N   0  0  0  0  0  0  0  0  0  0  0  0
    9.4560    0.1560   22.8130 N   0  0  0  0  0  0  0  0  0  0  0  0
    9.2690    1.4140   20.9380 O   0  0  0  0  0  0  0  0  0  0  0  0
   14.0041    0.3653   23.4799 S   0  0  0  0  0  0  0  0  0  0  0  0
    3.0134    2.6521   19.3911 H   0  0  0  0  0  0  0  0  0  0  0  0
    3.6460    2.0127   21.6812 H   0  0  0  0  0  0  0  0  0  0  0  0
    8.6919   -2.3557   26.5813 H   0  0  0  0  0  0  0  0  0  0  0  0
    9.9267   -4.3907   22.9939 H   0  0  0  0  0  0  0  0  0  0  0  0
    4.4037    1.9731   17.4543 H   0  0  0  0  0  0  0  0  0  0  0  0
    5.7084    0.6923   22.1132 H   0  0  0  0  0  0  0  0  0  0  0  0
    8.9217   -0.1995   25.4231 H   0  0  0  0  0  0  0  0  0  0  0  0
   10.0653   -2.2339   21.8256 H   0  0  0  0  0  0  0  0  0  0  0  0
   12.0779    3.4138   23.6730 H   0  0  0  0  0  0  0  0  0  0  0  0
   14.6154    2.7279   23.6003 H   0  0  0  0  0  0  0  0  0  0  0  0
   11.9408   -0.9384   23.4354 H   0  0  0  0  0  0  0  0  0  0  0  0
    8.4862   -0.8060   18.1787 H   0  0  0  0  0  0  0  0  0  0  0  0
    8.2503   -5.2678   25.5020 H   0  0  0  0  0  0  0  0  0  0  0  0
    9.9817   -5.5374   25.1845 H   0  0  0  0  0  0  0  0  0  0  0  0
    9.4841   -4.7043   26.6562 H   0  0  0  0  0  0  0  0  0  0  0  0
    9.7186    1.2597   24.6139 H   0  0  0  0  0  0  0  0  0  0  0  0
    9.7267    2.2346   23.1437 H   0  0  0  0  0  0  0  0  0  0  0  0
    8.2233   -1.5737   21.0809 H   0  0  0  0  0  0  0  0  0  0  0  0
  1  2  1  0  0  0  0
  1  5  2  0  0  0  0
  2  6  2  0  0  0  0
  3  7  2  0  0  0  0
  3 13  1  0  0  0  0
  4  8  1  0  0  0  0
  4 13  2  0  0  0  0
  5 15  1  0  0  0  0
  6 16  1  0  0  0  0
  7 17  1  0  0  0  0
  8 17  2  0  0  0  0
  9 10  2  0  0  0  0
  9 14  1  0  0  0  0
 10 26  1  0  0  0  0
 11 14  2  0  0  0  0
 11 26  1  0  0  0  0
 12 21  2  0  0  0  0
 12 22  1  0  0  0  0
 13 19  1  0  0  0  0
 14 20  1  0  0  0  0
 15 16  2  0  0  0  0
 15 21  1  0  0  0  0
 16 22  1  0  0  0  0
 17 24  1  0  0  0  0
 18 23  1  0  0  0  0
 18 24  1  0  0  0  0
 18 25  2  0  0  0  0
 20 24  1  0  0  0  0
 22 23  1  0  0  0  0
  1 27  1  0  0  0  0
  2 28  1  0  0  0  0
  3 29  1  0  0  0  0
  4 30  1  0  0  0  0
  5 31  1  0  0  0  0
  6 32  1  0  0  0  0
  7 33  1  0  0  0  0
  8 34  1  0  0  0  0
  9 35  1  0  0  0  0
 10 36  1  0  0  0  0
 11 37  1  0  0  0  0
 12 38  1  0  0  0  0
 19 39  1  0  0  0  0
 19 40  1  0  0  0  0
 19 41  1  0  0  0  0
 20 42  1  0  0  0  0
 20 43  1  0  0  0  0
 23 44  1  0  0  0  0
M  END
> <clash_score>
0

> <docking_score>
-8.394131660461426

> <overlap_score>
0.9327610731124878

$$$$
BENZO_43_1
  -OEChem-08232013433D

 47 50  0     0  0  0  0  0  0999 V2000
    3.9160    2.0630   19.5520 C   0  0  0  0  0  0  0  0  0  0  0  0
    4.2750    1.7050   20.8490 C   0  0  0  0  0  0  0  0  0  0  0  0
    8.9960   -2.3380   25.5320 C   0  0  0  0  0  0  0  0  0  0  0  0
    9.6730   -3.4710   23.5300 C   0  0  0  0  0  0  0  0  0  0  0  0
    4.6890    1.6810   18.4640 C   0  0  0  0  0  0  0  0  0  0  0  0
    5.4210    0.9600   21.0930 C   0  0  0  0  0  0  0  0  0  0  0  0
    9.0720   -1.1280   24.8640 C   0  0  0  0  0  0  0  0  0  0  0  0
    9.7200   -2.2600   22.8630 C   0  0  0  0  0  0  0  0  0  0  0  0
   12.4744    2.0364   22.8054 C   0  0  0  0  0  0  0  0  0  0  0  0
   12.4096    0.4034   24.2766 C   0  0  0  0  0  0  0  0  0  0  0  0
    7.6390   -0.2680   18.5410 C   0  0  0  0  0  0  0  0  0  0  0  0
    9.3070   -3.5340   24.8780 C   0  0  0  0  0  0  0  0  0  0  0  0
   11.5908    1.2427   23.5613 C   0  0  0  0  0  0  0  0  0  0  0  0
    5.8300    0.9190   18.6970 C   0  0  0  0  0  0  0  0  0  0  0  0
    6.1790    0.5730   19.9990 C   0  0  0  0  0  0  0  0  0  0  0  0
    9.3350   -1.0880   23.5010 C   0  0  0  0  0  0  0  0  0  0  0  0
    9.0420    0.3700   21.5280 C   0  0  0  0  0  0  0  0  0  0  0  0
    9.2505   -4.8264   25.5904 C   0  0  0  0  0  0  0  0  0  0  0  0
   14.8958    0.1218   24.4114 C   0  0  0  0  0  0  0  0  0  0  0  0
   10.0907    1.3005   23.5844 C   0  0  0  0  0  0  0  0  0  0  0  0
   13.7562    1.7289   23.0207 N   0  0  0  0  0  0  0  0  0  0  0  0
    6.7580    0.3810   17.8350 N   0  0  0  0  0  0  0  0  0  0  0  0
   13.6841    0.7328   23.9199 N   0  0  0  0  0  0  0  0  0  0  0  0
    7.3170   -0.1610   19.8550 N   0  0  0  0  0  0  0  0  0  0  0  0
    8.1890   -0.7180   20.8700 N   0  0  0  0  0  0  0  0  0  0  0  0
    9.4560    0.1560   22.8130 N   0  0  0  0  0  0  0  0  0  0  0  0
    9.2690    1.4140   20.9380 O   0  0  0  0  0  0  0  0  0  0  0  0
    3.0134    2.6521   19.3911 H   0  0  0  0  0  0  0  0  0  0  0  0
    3.6460    2.0127   21.6812 H   0  0  0  0  0  0  0  0  0  0  0  0
    8.6919   -2.3557   26.5813 H   0  0  0  0  0  0  0  0  0  0  0  0
    9.9267   -4.3907   22.9939 H   0  0  0  0  0  0  0  0  0  0  0  0
    4.4037    1.9731   17.4543 H   0  0  0  0  0  0  0  0  0  0  0  0
    5.7084    0.6923   22.1132 H   0  0  0  0  0  0  0  0  0  0  0  0
    8.9217   -0.1995   25.4231 H   0  0  0  0  0  0  0  0  0  0  0  0
   10.0653   -2.2339   21.8256 H   0  0  0  0  0  0  0  0  0  0  0  0
   12.2400    2.8271   22.1069 H   0  0  0  0  0  0  0  0  0  0  0  0
   12.1992   -0.3798   24.9922 H   0  0  0  0  0  0  0  0  0  0  0  0
    8.4862   -0.8060   18.1787 H   0  0  0  0  0  0  0  0  0  0  0  0
    8.2503   -5.2678   25.5020 H   0  0  0  0  0  0  0  0  0  0  0  0
    9.9817   -5.5374   25.1845 H   0  0  0  0  0  0  0  0  0  0  0  0
    9.4841   -4.7043   26.6562 H   0  0  0  0  0  0  0  0  0  0  0  0
   15.1422   -0.7157   23.7534 H   0  0  0  0  0  0  0  0  0  0  0  0
   15.7026    0.8600   24.4092 H   0  0  0  0  0  0  0  0  0  0  0  0
   14.7343   -0.2291   25.4345 H   0  0  0  0  0  0  0  0  0  0  0  0
    9.7186    1.2597   24.6139 H   0  0  0  0  0  0  0  0  0  0  0  0
    9.7267    2.2346   23.1437 H   0  0  0  0  0  0  0  0  0  0  0  0
    8.2233   -1.5737   21.0809 H   0  0  0  0  0  0  0  0  0  0  0  0
  1  2  1  0  0  0  0
  1  5  2  0  0  0  0
  2  6  2  0  0  0  0
  3  7  2  0  0  0  0
  3 12  1  0  0  0  0
  4  8  1  0  0  0  0
  4 12  2  0  0  0  0
  5 14  1  0  0  0  0
  6 15  1  0  0  0  0
  7 16  1  0  0  0  0
  8 16  2  0  0  0  0
  9 13  1  0  0  0  0
  9 21  2  0  0  0  0
 10 13  2  0  0  0  0
 10 23  1  0  0  0  0
 11 22  2  0  0  0  0
 11 24  1  0  0  0  0
 12 18  1  0  0  0  0
 13 20  1  0  0  0  0
 14 15  2  0  0  0  0
 14 22  1  0  0  0  0
 15 24  1  0  0  0  0
 16 26  1  0  0  0  0
 17 25  1  0  0  0  0
 17 26  1  0  0  0  0
 17 27  2  0  0  0  0
 19 23  1  0  0  0  0
 20 26  1  0  0  0  0
 21 23  1  0  0  0  0
 24 25  1  0  0  0  0
  1 28  1  0  0  0  0
  2 29  1  0  0  0  0
  3 30  1  0  0  0  0
  4 31  1  0  0  0  0
  5 32  1  0  0  0  0
  6 33  1  0  0  0  0
  7 34  1  0  0  0  0
  8 35  1  0  0  0  0
  9 36  1  0  0  0  0
 10 37  1  0  0  0  0
 11 38  1  0  0  0  0
 18 39  1  0  0  0  0
 18 40  1  0  0  0  0
 18 41  1  0  0  0  0
 19 42  1  0  0  0  0
 19 43  1  0  0  0  0
 19 44  1  0  0  0  0
 20 45  1  0  0  0  0
 20 46  1  0  0  0  0
 25 47  1  0  0  0  0
M  END
> <clash_score>
0

> <docking_score>
-8.67868709564209

> <overlap_score>
0.9427744746208191

$$$$
BENZO_42_1
  -OEChem-08232013433D

 47 50  0     0  0  0  0  0  0999 V2000
    3.9160    2.0630   19.5520 C   0  0  0  0  0  0  0  0  0  0  0  0
    4.2750    1.7050   20.8490 C   0  0  0  0  0  0  0  0  0  0  0  0
   13.7029    2.0623   22.7223 C   0  0  0  0  0  0  0  0  0  0  0  0
   12.3093    2.1148   22.7434 C   0  0  0  0  0  0  0  0  0  0  0  0
    8.9960   -2.3380   25.5320 C   0  0  0  0  0  0  0  0  0  0  0  0
    9.6730   -3.4710   23.5300 C   0  0  0  0  0  0  0  0  0  0  0  0
    4.6890    1.6810   18.4640 C   0  0  0  0  0  0  0  0  0  0  0  0
    5.4210    0.9600   21.0930 C   0  0  0  0  0  0  0  0  0  0  0  0
    9.0720   -1.1280   24.8640 C   0  0  0  0  0  0  0  0  0  0  0  0
    9.7200   -2.2600   22.8630 C   0  0  0  0  0  0  0  0  0  0  0  0
   14.3783    1.1377   23.5190 C   0  0  0  0  0  0  0  0  0  0  0  0
   12.2661    0.3181   24.3581 C   0  0  0  0  0  0  0  0  0  0  0  0
    7.6390   -0.2680   18.5410 C   0  0  0  0  0  0  0  0  0  0  0  0
    9.3070   -3.5340   24.8780 C   0  0  0  0  0  0  0  0  0  0  0  0
   11.5908    1.2427   23.5613 C   0  0  0  0  0  0  0  0  0  0  0  0
    5.8300    0.9190   18.6970 C   0  0  0  0  0  0  0  0  0  0  0  0
    6.1790    0.5730   19.9990 C   0  0  0  0  0  0  0  0  0  0  0  0
    9.3350   -1.0880   23.5010 C   0  0  0  0  0  0  0  0  0  0  0  0
   13.6598    0.2656   24.3369 C   0  0  0  0  0  0  0  0  0  0  0  0
    9.0420    0.3700   21.5280 C   0  0  0  0  0  0  0  0  0  0  0  0
    9.2505   -4.8264   25.5904 C   0  0  0  0  0  0  0  0  0  0  0  0
   10.0907    1.3005   23.5844 C   0  0  0  0  0  0  0  0  0  0  0  0
    6.7580    0.3810   17.8350 N   0  0  0  0  0  0  0  0  0  0  0  0
    7.3170   -0.1610   19.8550 N   0  0  0  0  0  0  0  0  0  0  0  0
    8.1890   -0.7180   20.8700 N   0  0  0  0  0  0  0  0  0  0  0  0
    9.4560    0.1560   22.8130 N   0  0  0  0  0  0  0  0  0  0  0  0
    9.2690    1.4140   20.9380 O   0  0  0  0  0  0  0  0  0  0  0  0
   14.4936   -0.8741   25.3206 Cl  0  0  0  0  0  0  0  0  0  0  0  0
    3.0134    2.6521   19.3911 H   0  0  0  0  0  0  0  0  0  0  0  0
    3.6460    2.0127   21.6812 H   0  0  0  0  0  0  0  0  0  0  0  0
   14.2620    2.7417   22.0854 H   0  0  0  0  0  0  0  0  0  0  0  0
   11.7914    2.8385   22.1194 H   0  0  0  0  0  0  0  0  0  0  0  0
    8.6919   -2.3557   26.5813 H   0  0  0  0  0  0  0  0  0  0  0  0
    9.9267   -4.3907   22.9939 H   0  0  0  0  0  0  0  0  0  0  0  0
    4.4037    1.9731   17.4543 H   0  0  0  0  0  0  0  0  0  0  0  0
    5.7084    0.6923   22.1132 H   0  0  0  0  0  0  0  0  0  0  0  0
    8.9217   -0.1995   25.4231 H   0  0  0  0  0  0  0  0  0  0  0  0
   10.0653   -2.2339   21.8256 H   0  0  0  0  0  0  0  0  0  0  0  0
   15.4648    1.1084   23.4926 H   0  0  0  0  0  0  0  0  0  0  0  0
   11.7014   -0.3601   24.9936 H   0  0  0  0  0  0  0  0  0  0  0  0
    8.4862   -0.8060   18.1787 H   0  0  0  0  0  0  0  0  0  0  0  0
    8.2503   -5.2678   25.5020 H   0  0  0  0  0  0  0  0  0  0  0  0
    9.9817   -5.5374   25.1845 H   0  0  0  0  0  0  0  0  0  0  0  0
    9.4841   -4.7043   26.6562 H   0  0  0  0  0  0  0  0  0  0  0  0
    9.7186    1.2597   24.6139 H   0  0  0  0  0  0  0  0  0  0  0  0
    9.7267    2.2346   23.1437 H   0  0  0  0  0  0  0  0  0  0  0  0
    8.2233   -1.5737   21.0809 H   0  0  0  0  0  0  0  0  0  0  0  0
  1  2  1  0  0  0  0
  1  7  2  0  0  0  0
  2  8  2  0  0  0  0
  3  4  2  0  0  0  0
  3 11  1  0  0  0  0
  4 15  1  0  0  0  0
  5  9  2  0  0  0  0
  5 14  1  0  0  0  0
  6 10  1  0  0  0  0
  6 14  2  0  0  0  0
  7 16  1  0  0  0  0
  8 17  1  0  0  0  0
  9 18  1  0  0  0  0
 10 18  2  0  0  0  0
 11 19  2  0  0  0  0
 12 15  2  0  0  0  0
 12 19  1  0  0  0  0
 13 23  2  0  0  0  0
 13 24  1  0  0  0  0
 14 21  1  0  0  0  0
 15 22  1  0  0  0  0
 16 17  2  0  0  0  0
 16 23  1  0  0  0  0
 17 24  1  0  0  0  0
 18 26  1  0  0  0  0
 19 28  1  0  0  0  0
 20 25  1  0  0  0  0
 20 26  1  0  0  0  0
 20 27  2  0  0  0  0
 22 26  1  0  0  0  0
 24 25  1  0  0  0  0
  1 29  1  0  0  0  0
  2 30  1  0  0  0  0
  3 31  1  0  0  0  0
  4 32  1  0  0  0  0
  5 33  1  0  0  0  0
  6 34  1  0  0  0  0
  7 35  1  0  0  0  0
  8 36  1  0  0  0  0
  9 37  1  0  0  0  0
 10 38  1  0  0  0  0
 11 39  1  0  0  0  0
 12 40  1  0  0  0  0
 13 41  1  0  0  0  0
 21 42  1  0  0  0  0
 21 43  1  0  0  0  0
 21 44  1  0  0  0  0
 22 45  1  0  0  0  0
 22 46  1  0  0  0  0
 25 47  1  0  0  0  0
M  END
> <clash_score>
0.7096511452496574

> <docking_score>
-7.864363670349121

> <overlap_score>
0.9455211758613586

$$$$
BENZO_44_1
  -OEChem-08232013433D

 45 48  0     0  0  0  0  0  0999 V2000
    3.9160    2.0630   19.5520 C   0  0  0  0  0  0  0  0  0  0  0  0
    4.2750    1.7050   20.8490 C   0  0  0  0  0  0  0  0  0  0  0  0
    4.6890    1.6810   18.4640 C   0  0  0  0  0  0  0  0  0  0  0  0
    5.4210    0.9600   21.0930 C   0  0  0  0  0  0  0  0  0  0  0  0
    9.0720   -1.1280   24.8640 C   0  0  0  0  0  0  0  0  0  0  0  0
    9.7200   -2.2600   22.8630 C   0  0  0  0  0  0  0  0  0  0  0  0
    8.9960   -2.3380   25.5320 C   0  0  0  0  0  0  0  0  0  0  0  0
    9.6730   -3.4710   23.5300 C   0  0  0  0  0  0  0  0  0  0  0  0
   12.4312    2.3922   23.6126 C   0  0  0  0  0  0  0  0  0  0  0  0
   13.7672    2.0585   23.5760 C   0  0  0  0  0  0  0  0  0  0  0  0
   12.3167    0.0741   23.4871 C   0  0  0  0  0  0  0  0  0  0  0  0
    7.6390   -0.2680   18.5410 C   0  0  0  0  0  0  0  0  0  0  0  0
   11.5908    1.2427   23.5613 C   0  0  0  0  0  0  0  0  0  0  0  0
    5.8300    0.9190   18.6970 C   0  0  0  0  0  0  0  0  0  0  0  0
    6.1790    0.5730   19.9990 C   0  0  0  0  0  0  0  0  0  0  0  0
    9.3350   -1.0880   23.5010 C   0  0  0  0  0  0  0  0  0  0  0  0
    9.3070   -3.5340   24.8780 C   0  0  0  0  0  0  0  0  0  0  0  0
    9.0420    0.3700   21.5280 C   0  0  0  0  0  0  0  0  0  0  0  0
    8.8720   -4.6805   26.9013 C   0  0  0  0  0  0  0  0  0  0  0  0
   10.0907    1.3005   23.5844 C   0  0  0  0  0  0  0  0  0  0  0  0
    6.7580    0.3810   17.8350 N   0  0  0  0  0  0  0  0  0  0  0  0
    7.3170   -0.1610   19.8550 N   0  0  0  0  0  0  0  0  0  0  0  0
    8.1890   -0.7180   20.8700 N   0  0  0  0  0  0  0  0  0  0  0  0
    9.4560    0.1560   22.8130 N   0  0  0  0  0  0  0  0  0  0  0  0
    9.2690    1.4140   20.9380 O   0  0  0  0  0  0  0  0  0  0  0  0
    9.2555   -4.7124   25.5274 O   0  0  0  0  0  0  0  0  0  0  0  0
   14.0041    0.3653   23.4799 S   0  0  0  0  0  0  0  0  0  0  0  0
    3.0134    2.6521   19.3911 H   0  0  0  0  0  0  0  0  0  0  0  0
    3.6460    2.0127   21.6812 H   0  0  0  0  0  0  0  0  0  0  0  0
    4.4037    1.9731   17.4543 H   0  0  0  0  0  0  0  0  0  0  0  0
    5.7084    0.6923   22.1132 H   0  0  0  0  0  0  0  0  0  0  0  0
    8.9221   -0.1995   25.4231 H   0  0  0  0  0  0  0  0  0  0  0  0
   10.0642   -2.2347   21.8253 H   0  0  0  0  0  0  0  0  0  0  0  0
    8.6902   -2.3588   26.5805 H   0  0  0  0  0  0  0  0  0  0  0  0
    9.9254   -4.3921   22.9961 H   0  0  0  0  0  0  0  0  0  0  0  0
   12.0779    3.4138   23.6730 H   0  0  0  0  0  0  0  0  0  0  0  0
   14.6154    2.7279   23.6003 H   0  0  0  0  0  0  0  0  0  0  0  0
   11.9408   -0.9384   23.4354 H   0  0  0  0  0  0  0  0  0  0  0  0
    8.4862   -0.8060   18.1787 H   0  0  0  0  0  0  0  0  0  0  0  0
    8.8711   -5.6964   27.3038 H   0  0  0  0  0  0  0  0  0  0  0  0
    7.8758   -4.2402   26.9923 H   0  0  0  0  0  0  0  0  0  0  0  0
    9.5894   -4.0716   27.4566 H   0  0  0  0  0  0  0  0  0  0  0  0
    9.7186    1.2597   24.6139 H   0  0  0  0  0  0  0  0  0  0  0  0
    9.7267    2.2346   23.1437 H   0  0  0  0  0  0  0  0  0  0  0  0
    8.2233   -1.5737   21.0809 H   0  0  0  0  0  0  0  0  0  0  0  0
  1  2  1  0  0  0  0
  1  3  2  0  0  0  0
  2  4  2  0  0  0  0
  3 14  1  0  0  0  0
  4 15  1  0  0  0  0
  5  7  2  0  0  0  0
  5 16  1  0  0  0  0
  6  8  1  0  0  0  0
  6 16  2  0  0  0  0
  7 17  1  0  0  0  0
  8 17  2  0  0  0  0
  9 10  2  0  0  0  0
  9 13  1  0  0  0  0
 10 27  1  0  0  0  0
 11 13  2  0  0  0  0
 11 27  1  0  0  0  0
 12 21  2  0  0  0  0
 12 22  1  0  0  0  0
 13 20  1  0  0  0  0
 14 15  2  0  0  0  0
 14 21  1  0  0  0  0
 15 22  1  0  0  0  0
 16 24  1  0  0  0  0
 17 26  1  0  0  0  0
 18 23  1  0  0  0  0
 18 24  1  0  0  0  0
 18 25  2  0  0  0  0
 19 26  1  0  0  0  0
 20 24  1  0  0  0  0
 22 23  1  0  0  0  0
  1 28  1  0  0  0  0
  2 29  1  0  0  0  0
  3 30  1  0  0  0  0
  4 31  1  0  0  0  0
  5 32  1  0  0  0  0
  6 33  1  0  0  0  0
  7 34  1  0  0  0  0
  8 35  1  0  0  0  0
  9 36  1  0  0  0  0
 10 37  1  0  0  0  0
 11 38  1  0  0  0  0
 12 39  1  0  0  0  0
 19 40  1  0  0  0  0
 19 41  1  0  0  0  0
 19 42  1  0  0  0  0
 20 43  1  0  0  0  0
 20 44  1  0  0  0  0
 23 45  1  0  0  0  0
M  END
> <clash_score>
0

> <docking_score>
-8.130431175231934

> <overlap_score>
0.9551839828491211

$$$$
BENZO_45_1
  -OEChem-08232013433D

 48 51  0     0  0  0  0  0  0999 V2000
   14.3781    1.1338   23.5188 C   0  0  0  0  0  0  0  0  0  0  0  0
   13.7296    2.3655   23.6083 C   0  0  0  0  0  0  0  0  0  0  0  0
   13.6330   -0.0434   23.4504 C   0  0  0  0  0  0  0  0  0  0  0  0
    3.9160    2.0630   19.5520 C   0  0  0  0  0  0  0  0  0  0  0  0
    4.2750    1.7050   20.8490 C   0  0  0  0  0  0  0  0  0  0  0  0
   12.3359    2.4199   23.6296 C   0  0  0  0  0  0  0  0  0  0  0  0
   12.2394    0.0110   23.4717 C   0  0  0  0  0  0  0  0  0  0  0  0
    4.6890    1.6810   18.4640 C   0  0  0  0  0  0  0  0  0  0  0  0
    5.4210    0.9600   21.0930 C   0  0  0  0  0  0  0  0  0  0  0  0
    9.0720   -1.1280   24.8640 C   0  0  0  0  0  0  0  0  0  0  0  0
    9.7200   -2.2600   22.8630 C   0  0  0  0  0  0  0  0  0  0  0  0
    8.9960   -2.3380   25.5320 C   0  0  0  0  0  0  0  0  0  0  0  0
    9.6730   -3.4710   23.5300 C   0  0  0  0  0  0  0  0  0  0  0  0
    7.6390   -0.2680   18.5410 C   0  0  0  0  0  0  0  0  0  0  0  0
   11.5908    1.2427   23.5613 C   0  0  0  0  0  0  0  0  0  0  0  0
    5.8300    0.9190   18.6970 C   0  0  0  0  0  0  0  0  0  0  0  0
    6.1790    0.5730   19.9990 C   0  0  0  0  0  0  0  0  0  0  0  0
    9.3350   -1.0880   23.5010 C   0  0  0  0  0  0  0  0  0  0  0  0
    9.3070   -3.5340   24.8780 C   0  0  0  0  0  0  0  0  0  0  0  0
    9.0420    0.3700   21.5280 C   0  0  0  0  0  0  0  0  0  0  0  0
    8.8720   -4.6805   26.9013 C   0  0  0  0  0  0  0  0  0  0  0  0
   10.0907    1.3005   23.5844 C   0  0  0  0  0  0  0  0  0  0  0  0
    6.7580    0.3810   17.8350 N   0  0  0  0  0  0  0  0  0  0  0  0
    7.3170   -0.1610   19.8550 N   0  0  0  0  0  0  0  0  0  0  0  0
    8.1890   -0.7180   20.8700 N   0  0  0  0  0  0  0  0  0  0  0  0
    9.4560    0.1560   22.8130 N   0  0  0  0  0  0  0  0  0  0  0  0
    9.2690    1.4140   20.9380 O   0  0  0  0  0  0  0  0  0  0  0  0
    9.2555   -4.7124   25.5274 O   0  0  0  0  0  0  0  0  0  0  0  0
   15.4633    1.0917   23.5009 H   0  0  0  0  0  0  0  0  0  0  0  0
   14.3095    3.2823   23.6605 H   0  0  0  0  0  0  0  0  0  0  0  0
   14.1376   -1.0024   23.3795 H   0  0  0  0  0  0  0  0  0  0  0  0
    3.0134    2.6521   19.3911 H   0  0  0  0  0  0  0  0  0  0  0  0
    3.6460    2.0127   21.6812 H   0  0  0  0  0  0  0  0  0  0  0  0
   11.8392    3.3840   23.6998 H   0  0  0  0  0  0  0  0  0  0  0  0
   11.6671   -0.9113   23.4181 H   0  0  0  0  0  0  0  0  0  0  0  0
    4.4037    1.9731   17.4543 H   0  0  0  0  0  0  0  0  0  0  0  0
    5.7084    0.6923   22.1132 H   0  0  0  0  0  0  0  0  0  0  0  0
    8.9221   -0.1995   25.4231 H   0  0  0  0  0  0  0  0  0  0  0  0
   10.0642   -2.2347   21.8253 H   0  0  0  0  0  0  0  0  0  0  0  0
    8.6902   -2.3588   26.5805 H   0  0  0  0  0  0  0  0  0  0  0  0
    9.9254   -4.3921   22.9961 H   0  0  0  0  0  0  0  0  0  0  0  0
    8.4862   -0.8060   18.1787 H   0  0  0  0  0  0  0  0  0  0  0  0
    8.8711   -5.6964   27.3038 H   0  0  0  0  0  0  0  0  0  0  0  0
    7.8758   -4.2402   26.9923 H   0  0  0  0  0  0  0  0  0  0  0  0
    9.5894   -4.0716   27.4566 H   0  0  0  0  0  0  0  0  0  0  0  0
    9.7186    1.2597   24.6139 H   0  0  0  0  0  0  0  0  0  0  0  0
    9.7267    2.2346   23.1437 H   0  0  0  0  0  0  0  0  0  0  0  0
    8.2233   -1.5737   21.0809 H   0  0  0  0  0  0  0  0  0  0  0  0
  1  2  1  0  0  0  0
  1  3  2  0  0  0  0
  2  6  2  0  0  0  0
  3  7  1  0  0  0  0
  4  5  1  0  0  0  0
  4  8  2  0  0  0  0
  5  9  2  0  0  0  0
  6 15  1  0  0  0  0
  7 15  2  0  0  0  0
  8 16  1  0  0  0  0
  9 17  1  0  0  0  0
 10 12  2  0  0  0  0
 10 18  1  0  0  0  0
 11 13  1  0  0  0  0
 11 18  2  0  0  0  0
 12 19  1  0  0  0  0
 13 19  2  0  0  0  0
 14 23  2  0  0  0  0
 14 24  1  0  0  0  0
 15 22  1  0  0  0  0
 16 17  2  0  0  0  0
 16 23  1  0  0  0  0
 17 24  1  0  0  0  0
 18 26  1  0  0  0  0
 19 28  1  0  0  0  0
 20 25  1  0  0  0  0
 20 26  1  0  0  0  0
 20 27  2  0  0  0  0
 21 28  1  0  0  0  0
 22 26  1  0  0  0  0
 24 25  1  0  0  0  0
  1 29  1  0  0  0  0
  2 30  1  0  0  0  0
  3 31  1  0  0  0  0
  4 32  1  0  0  0  0
  5 33  1  0  0  0  0
  6 34  1  0  0  0  0
  7 35  1  0  0  0  0
  8 36  1  0  0  0  0
  9 37  1  0  0  0  0
 10 38  1  0  0  0  0
 11 39  1  0  0  0  0
 12 40  1  0  0  0  0
 13 41  1  0  0  0  0
 14 42  1  0  0  0  0
 21 43  1  0  0  0  0
 21 44  1  0  0  0  0
 21 45  1  0  0  0  0
 22 46  1  0  0  0  0
 22 47  1  0  0  0  0
 25 48  1  0  0  0  0
M  END
> <clash_score>
0

> <docking_score>
-7.330577373504639

> <overlap_score>
0.9670634865760803

$$$$
BENZO_47_1
  -OEChem-08232013433D

 48 51  0     0  0  0  0  0  0999 V2000
    3.9160    2.0630   19.5520 C   0  0  0  0  0  0  0  0  0  0  0  0
    4.2750    1.7050   20.8490 C   0  0  0  0  0  0  0  0  0  0  0  0
    4.6890    1.6810   18.4640 C   0  0  0  0  0  0  0  0  0  0  0  0
    5.4210    0.9600   21.0930 C   0  0  0  0  0  0  0  0  0  0  0  0
    9.0720   -1.1280   24.8640 C   0  0  0  0  0  0  0  0  0  0  0  0
    9.7200   -2.2600   22.8630 C   0  0  0  0  0  0  0  0  0  0  0  0
    8.9960   -2.3380   25.5320 C   0  0  0  0  0  0  0  0  0  0  0  0
    9.6730   -3.4710   23.5300 C   0  0  0  0  0  0  0  0  0  0  0  0
   12.4744    2.0364   22.8054 C   0  0  0  0  0  0  0  0  0  0  0  0
   12.4096    0.4034   24.2766 C   0  0  0  0  0  0  0  0  0  0  0  0
    7.6390   -0.2680   18.5410 C   0  0  0  0  0  0  0  0  0  0  0  0
   11.5908    1.2427   23.5613 C   0  0  0  0  0  0  0  0  0  0  0  0
    5.8300    0.9190   18.6970 C   0  0  0  0  0  0  0  0  0  0  0  0
    6.1790    0.5730   19.9990 C   0  0  0  0  0  0  0  0  0  0  0  0
    9.3350   -1.0880   23.5010 C   0  0  0  0  0  0  0  0  0  0  0  0
    9.3070   -3.5340   24.8780 C   0  0  0  0  0  0  0  0  0  0  0  0
    9.0420    0.3700   21.5280 C   0  0  0  0  0  0  0  0  0  0  0  0
   14.8958    0.1218   24.4114 C   0  0  0  0  0  0  0  0  0  0  0  0
    8.8720   -4.6805   26.9013 C   0  0  0  0  0  0  0  0  0  0  0  0
   10.0907    1.3005   23.5844 C   0  0  0  0  0  0  0  0  0  0  0  0
   13.7562    1.7289   23.0207 N   0  0  0  0  0  0  0  0  0  0  0  0
    6.7580    0.3810   17.8350 N   0  0  0  0  0  0  0  0  0  0  0  0
   13.6841    0.7328   23.9199 N   0  0  0  0  0  0  0  0  0  0  0  0
    7.3170   -0.1610   19.8550 N   0  0  0  0  0  0  0  0  0  0  0  0
    8.1890   -0.7180   20.8700 N   0  0  0  0  0  0  0  0  0  0  0  0
    9.4560    0.1560   22.8130 N   0  0  0  0  0  0  0  0  0  0  0  0
    9.2690    1.4140   20.9380 O   0  0  0  0  0  0  0  0  0  0  0  0
    9.2555   -4.7124   25.5274 O   0  0  0  0  0  0  0  0  0  0  0  0
    3.0134    2.6521   19.3911 H   0  0  0  0  0  0  0  0  0  0  0  0
    3.6460    2.0127   21.6812 H   0  0  0  0  0  0  0  0  0  0  0  0
    4.4037    1.9731   17.4543 H   0  0  0  0  0  0  0  0  0  0  0  0
    5.7084    0.6923   22.1132 H   0  0  0  0  0  0  0  0  0  0  0  0
    8.9221   -0.1995   25.4231 H   0  0  0  0  0  0  0  0  0  0  0  0
   10.0642   -2.2347   21.8253 H   0  0  0  0  0  0  0  0  0  0  0  0
    8.6902   -2.3588   26.5805 H   0  0  0  0  0  0  0  0  0  0  0  0
    9.9254   -4.3921   22.9961 H   0  0  0  0  0  0  0  0  0  0  0  0
   12.2400    2.8271   22.1069 H   0  0  0  0  0  0  0  0  0  0  0  0
   12.1992   -0.3798   24.9922 H   0  0  0  0  0  0  0  0  0  0  0  0
    8.4862   -0.8060   18.1787 H   0  0  0  0  0  0  0  0  0  0  0  0
   15.1422   -0.7157   23.7534 H   0  0  0  0  0  0  0  0  0  0  0  0
   15.7026    0.8600   24.4092 H   0  0  0  0  0  0  0  0  0  0  0  0
   14.7343   -0.2291   25.4345 H   0  0  0  0  0  0  0  0  0  0  0  0
    8.8711   -5.6964   27.3038 H   0  0  0  0  0  0  0  0  0  0  0  0
    7.8758   -4.2402   26.9923 H   0  0  0  0  0  0  0  0  0  0  0  0
    9.5894   -4.0716   27.4566 H   0  0  0  0  0  0  0  0  0  0  0  0
    9.7186    1.2597   24.6139 H   0  0  0  0  0  0  0  0  0  0  0  0
    9.7267    2.2346   23.1437 H   0  0  0  0  0  0  0  0  0  0  0  0
    8.2233   -1.5737   21.0809 H   0  0  0  0  0  0  0  0  0  0  0  0
  1  2  1  0  0  0  0
  1  3  2  0  0  0  0
  2  4  2  0  0  0  0
  3 13  1  0  0  0  0
  4 14  1  0  0  0  0
  5  7  2  0  0  0  0
  5 15  1  0  0  0  0
  6  8  1  0  0  0  0
  6 15  2  0  0  0  0
  7 16  1  0  0  0  0
  8 16  2  0  0  0  0
  9 12  1  0  0  0  0
  9 21  2  0  0  0  0
 10 12  2  0  0  0  0
 10 23  1  0  0  0  0
 11 22  2  0  0  0  0
 11 24  1  0  0  0  0
 12 20  1  0  0  0  0
 13 14  2  0  0  0  0
 13 22  1  0  0  0  0
 14 24  1  0  0  0  0
 15 26  1  0  0  0  0
 16 28  1  0  0  0  0
 17 25  1  0  0  0  0
 17 26  1  0  0  0  0
 17 27  2  0  0  0  0
 18 23  1  0  0  0  0
 19 28  1  0  0  0  0
 20 26  1  0  0  0  0
 21 23  1  0  0  0  0
 24 25  1  0  0  0  0
  1 29  1  0  0  0  0
  2 30  1  0  0  0  0
  3 31  1  0  0  0  0
  4 32  1  0  0  0  0
  5 33  1  0  0  0  0
  6 34  1  0  0  0  0
  7 35  1  0  0  0  0
  8 36  1  0  0  0  0
  9 37  1  0  0  0  0
 10 38  1  0  0  0  0
 11 39  1  0  0  0  0
 18 40  1  0  0  0  0
 18 41  1  0  0  0  0
 18 42  1  0  0  0  0
 19 43  1  0  0  0  0
 19 44  1  0  0  0  0
 19 45  1  0  0  0  0
 20 46  1  0  0  0  0
 20 47  1  0  0  0  0
 25 48  1  0  0  0  0
M  END
> <clash_score>
0

> <docking_score>
-8.41498851776123

> <overlap_score>
0.9651203751564026

$$$$
BENZO_46_1
  -OEChem-08232013433D

 48 51  0     0  0  0  0  0  0999 V2000
    3.9160    2.0630   19.5520 C   0  0  0  0  0  0  0  0  0  0  0  0
    4.2750    1.7050   20.8490 C   0  0  0  0  0  0  0  0  0  0  0  0
   13.7029    2.0623   22.7223 C   0  0  0  0  0  0  0  0  0  0  0  0
   12.3093    2.1148   22.7434 C   0  0  0  0  0  0  0  0  0  0  0  0
    4.6890    1.6810   18.4640 C   0  0  0  0  0  0  0  0  0  0  0  0
    5.4210    0.9600   21.0930 C   0  0  0  0  0  0  0  0  0  0  0  0
    9.0720   -1.1280   24.8640 C   0  0  0  0  0  0  0  0  0  0  0  0
    9.7200   -2.2600   22.8630 C   0  0  0  0  0  0  0  0  0  0  0  0
    8.9960   -2.3380   25.5320 C   0  0  0  0  0  0  0  0  0  0  0  0
    9.6730   -3.4710   23.5300 C   0  0  0  0  0  0  0  0  0  0  0  0
   14.3783    1.1377   23.5190 C   0  0  0  0  0  0  0  0  0  0  0  0
   12.2661    0.3181   24.3581 C   0  0  0  0  0  0  0  0  0  0  0  0
    7.6390   -0.2680   18.5410 C   0  0  0  0  0  0  0  0  0  0  0  0
   11.5908    1.2427   23.5613 C   0  0  0  0  0  0  0  0  0  0  0  0
    5.8300    0.9190   18.6970 C   0  0  0  0  0  0  0  0  0  0  0  0
    6.1790    0.5730   19.9990 C   0  0  0  0  0  0  0  0  0  0  0  0
    9.3350   -1.0880   23.5010 C   0  0  0  0  0  0  0  0  0  0  0  0
    9.3070   -3.5340   24.8780 C   0  0  0  0  0  0  0  0  0  0  0  0
   13.6598    0.2656   24.3369 C   0  0  0  0  0  0  0  0  0  0  0  0
    9.0420    0.3700   21.5280 C   0  0  0  0  0  0  0  0  0  0  0  0
    9.5894   -5.8809   24.7798 C   0  0  0  0  0  0  0  0  0  0  0  0
   10.0907    1.3005   23.5844 C   0  0  0  0  0  0  0  0  0  0  0  0
    6.7580    0.3810   17.8350 N   0  0  0  0  0  0  0  0  0  0  0  0
    7.3170   -0.1610   19.8550 N   0  0  0  0  0  0  0  0  0  0  0  0
    8.1890   -0.7180   20.8700 N   0  0  0  0  0  0  0  0  0  0  0  0
    9.4560    0.1560   22.8130 N   0  0  0  0  0  0  0  0  0  0  0  0
    9.2690    1.4140   20.9380 O   0  0  0  0  0  0  0  0  0  0  0  0
    9.2555   -4.7124   25.5274 O   0  0  0  0  0  0  0  0  0  0  0  0
   14.4936   -0.8741   25.3206 Cl  0  0  0  0  0  0  0  0  0  0  0  0
    3.0134    2.6521   19.3911 H   0  0  0  0  0  0  0  0  0  0  0  0
    3.6460    2.0127   21.6812 H   0  0  0  0  0  0  0  0  0  0  0  0
   14.2620    2.7417   22.0854 H   0  0  0  0  0  0  0  0  0  0  0  0
   11.7914    2.8385   22.1194 H   0  0  0  0  0  0  0  0  0  0  0  0
    4.4037    1.9731   17.4543 H   0  0  0  0  0  0  0  0  0  0  0  0
    5.7084    0.6923   22.1132 H   0  0  0  0  0  0  0  0  0  0  0  0
    8.9221   -0.1995   25.4231 H   0  0  0  0  0  0  0  0  0  0  0  0
   10.0642   -2.2347   21.8253 H   0  0  0  0  0  0  0  0  0  0  0  0
    8.6902   -2.3588   26.5805 H   0  0  0  0  0  0  0  0  0  0  0  0
    9.9254   -4.3921   22.9961 H   0  0  0  0  0  0  0  0  0  0  0  0
   15.4648    1.1084   23.4926 H   0  0  0  0  0  0  0  0  0  0  0  0
   11.7014   -0.3601   24.9936 H   0  0  0  0  0  0  0  0  0  0  0  0
    8.4862   -0.8060   18.1787 H   0  0  0  0  0  0  0  0  0  0  0  0
    9.5074   -6.7611   25.4222 H   0  0  0  0  0  0  0  0  0  0  0  0
   10.6088   -5.7902   24.3963 H   0  0  0  0  0  0  0  0  0  0  0  0
    8.8944   -5.9778   23.9424 H   0  0  0  0  0  0  0  0  0  0  0  0
    9.7186    1.2597   24.6139 H   0  0  0  0  0  0  0  0  0  0  0  0
    9.7267    2.2346   23.1437 H   0  0  0  0  0  0  0  0  0  0  0  0
    8.2233   -1.5737   21.0809 H   0  0  0  0  0  0  0  0  0  0  0  0
  1  2  1  0  0  0  0
  1  5  2  0  0  0  0
  2  6  2  0  0  0  0
  3  4  2  0  0  0  0
  3 11  1  0  0  0  0
  4 14  1  0  0  0  0
  5 15  1  0  0  0  0
  6 16  1  0  0  0  0
  7  9  2  0  0  0  0
  7 17  1  0  0  0  0
  8 10  1  0  0  0  0
  8 17  2  0  0  0  0
  9 18  1  0  0  0  0
 10 18  2  0  0  0  0
 11 19  2  0  0  0  0
 12 14  2  0  0  0  0
 12 19  1  0  0  0  0
 13 23  2  0  0  0  0
 13 24  1  0  0  0  0
 14 22  1  0  0  0  0
 15 16  2  0  0  0  0
 15 23  1  0  0  0  0
 16 24  1  0  0  0  0
 17 26  1  0  0  0  0
 18 28  1  0  0  0  0
 19 29  1  0  0  0  0
 20 25  1  0  0  0  0
 20 26  1  0  0  0  0
 20 27  2  0  0  0  0
 21 28  1  0  0  0  0
 22 26  1  0  0  0  0
 24 25  1  0  0  0  0
  1 30  1  0  0  0  0
  2 31  1  0  0  0  0
  3 32  1  0  0  0  0
  4 33  1  0  0  0  0
  5 34  1  0  0  0  0
  6 35  1  0  0  0  0
  7 36  1  0  0  0  0
  8 37  1  0  0  0  0
  9 38  1  0  0  0  0
 10 39  1  0  0  0  0
 11 40  1  0  0  0  0
 12 41  1  0  0  0  0
 13 42  1  0  0  0  0
 21 43  1  0  0  0  0
 21 44  1  0  0  0  0
 21 45  1  0  0  0  0
 22 46  1  0  0  0  0
 22 47  1  0  0  0  0
 25 48  1  0  0  0  0
M  END
> <clash_score>
0.7096511452496574

> <docking_score>
-7.570476531982422

> <overlap_score>
0.9702807068824768

$$$$
BENZO_49_1
  -OEChem-08232013433D

 58 62  0     0  0  0  0  0  0999 V2000
   14.3753    1.0886   23.5202 C   0  0  0  0  0  0  0  0  0  0  0  0
   13.6549    0.4806   24.5483 C   0  0  0  0  0  0  0  0  0  0  0  0
   13.7029    1.7727   22.5074 C   0  0  0  0  0  0  0  0  0  0  0  0
    3.9160    2.0630   19.5520 C   0  0  0  0  0  0  0  0  0  0  0  0
    4.2750    1.7050   20.8490 C   0  0  0  0  0  0  0  0  0  0  0  0
   12.2622    0.5565   24.5636 C   0  0  0  0  0  0  0  0  0  0  0  0
   12.3102    1.8486   22.5227 C   0  0  0  0  0  0  0  0  0  0  0  0
    4.6890    1.6810   18.4640 C   0  0  0  0  0  0  0  0  0  0  0  0
    5.4210    0.9600   21.0930 C   0  0  0  0  0  0  0  0  0  0  0  0
    8.9960   -2.3380   25.5320 C   0  0  0  0  0  0  0  0  0  0  0  0
    9.6730   -3.4710   23.5300 C   0  0  0  0  0  0  0  0  0  0  0  0
    9.0720   -1.1280   24.8640 C   0  0  0  0  0  0  0  0  0  0  0  0
    9.7200   -2.2600   22.8630 C   0  0  0  0  0  0  0  0  0  0  0  0
    7.6390   -0.2680   18.5410 C   0  0  0  0  0  0  0  0  0  0  0  0
   11.5898    1.2405   23.5508 C   0  0  0  0  0  0  0  0  0  0  0  0
    5.8300    0.9190   18.6970 C   0  0  0  0  0  0  0  0  0  0  0  0
    6.1790    0.5730   19.9990 C   0  0  0  0  0  0  0  0  0  0  0  0
    9.3070   -3.5340   24.8780 C   0  0  0  0  0  0  0  0  0  0  0  0
    9.3350   -1.0880   23.5010 C   0  0  0  0  0  0  0  0  0  0  0  0
    8.3597   -5.0073   26.6307 C   0  0  0  0  0  0  0  0  0  0  0  0
    9.0420    0.3700   21.5280 C   0  0  0  0  0  0  0  0  0  0  0  0
    8.4720   -6.3981   27.2296 C   0  0  0  0  0  0  0  0  0  0  0  0
    9.9252   -6.7605   27.4803 C   0  0  0  0  0  0  0  0  0  0  0  0
   10.7833   -6.6094   26.2282 C   0  0  0  0  0  0  0  0  0  0  0  0
   10.0539   -5.9099   25.0823 C   0  0  0  0  0  0  0  0  0  0  0  0
   10.0908    1.3225   23.5666 C   0  0  0  0  0  0  0  0  0  0  0  0
    6.7580    0.3810   17.8350 N   0  0  0  0  0  0  0  0  0  0  0  0
    7.3170   -0.1610   19.8550 N   0  0  0  0  0  0  0  0  0  0  0  0
    9.2530   -4.7797   25.5644 N   0  0  0  0  0  0  0  0  0  0  0  0
    8.1890   -0.7180   20.8700 N   0  0  0  0  0  0  0  0  0  0  0  0
    9.4560    0.1560   22.8130 N   0  0  0  0  0  0  0  0  0  0  0  0
    7.4954   -4.2356   27.0450 O   0  0  0  0  0  0  0  0  0  0  0  0
    9.2690    1.4140   20.9380 O   0  0  0  0  0  0  0  0  0  0  0  0
   15.4598    1.0305   23.5091 H   0  0  0  0  0  0  0  0  0  0  0  0
   14.1783   -0.0512   25.3375 H   0  0  0  0  0  0  0  0  0  0  0  0
   14.2635    2.2471   21.7074 H   0  0  0  0  0  0  0  0  0  0  0  0
    3.0134    2.6521   19.3911 H   0  0  0  0  0  0  0  0  0  0  0  0
    3.6460    2.0127   21.6812 H   0  0  0  0  0  0  0  0  0  0  0  0
   11.7092    0.0795   25.3685 H   0  0  0  0  0  0  0  0  0  0  0  0
   11.7948    2.3836   21.7294 H   0  0  0  0  0  0  0  0  0  0  0  0
    4.4037    1.9731   17.4543 H   0  0  0  0  0  0  0  0  0  0  0  0
    5.7084    0.6923   22.1132 H   0  0  0  0  0  0  0  0  0  0  0  0
    8.6895   -2.3529   26.5807 H   0  0  0  0  0  0  0  0  0  0  0  0
    9.9262   -4.3897   22.9916 H   0  0  0  0  0  0  0  0  0  0  0  0
    8.9224   -0.1998   25.4238 H   0  0  0  0  0  0  0  0  0  0  0  0
   10.0649   -2.2343   21.8258 H   0  0  0  0  0  0  0  0  0  0  0  0
    8.4862   -0.8060   18.1787 H   0  0  0  0  0  0  0  0  0  0  0  0
    7.9325   -6.4148   28.1641 H   0  0  0  0  0  0  0  0  0  0  0  0
    8.0254   -7.0920   26.5333 H   0  0  0  0  0  0  0  0  0  0  0  0
   10.3387   -6.1267   28.2923 H   0  0  0  0  0  0  0  0  0  0  0  0
    9.9904   -7.8023   27.8537 H   0  0  0  0  0  0  0  0  0  0  0  0
   11.7037   -6.0404   26.4771 H   0  0  0  0  0  0  0  0  0  0  0  0
   11.1411   -7.6068   25.8918 H   0  0  0  0  0  0  0  0  0  0  0  0
   10.7782   -5.5162   24.3756 H   0  0  0  0  0  0  0  0  0  0  0  0
    9.4042   -6.6189   24.5807 H   0  0  0  0  0  0  0  0  0  0  0  0
    9.7125    1.2790   24.5938 H   0  0  0  0  0  0  0  0  0  0  0  0
    9.7442    2.2660   23.1320 H   0  0  0  0  0  0  0  0  0  0  0  0
    8.2565   -1.5523   21.1108 H   0  0  0  0  0  0  0  0  0  0  0  0
  1  2  1  0  0  0  0
  1  3  2  0  0  0  0
  2  6  2  0  0  0  0
  3  7  1  0  0  0  0
  4  5  1  0  0  0  0
  4  8  2  0  0  0  0
  5  9  2  0  0  0  0
  6 15  1  0  0  0  0
  7 15  2  0  0  0  0
  8 16  1  0  0  0  0
  9 17  1  0  0  0  0
 10 12  2  0  0  0  0
 10 18  1  0  0  0  0
 11 13  1  0  0  0  0
 11 18  2  0  0  0  0
 12 19  1  0  0  0  0
 13 19  2  0  0  0  0
 14 27  2  0  0  0  0
 14 28  1  0  0  0  0
 15 26  1  0  0  0  0
 16 17  2  0  0  0  0
 16 27  1  0  0  0  0
 17 28  1  0  0  0  0
 18 29  1  0  0  0  0
 19 31  1  0  0  0  0
 20 22  1  0  0  0  0
 20 29  1  0  0  0  0
 20 32  2  0  0  0  0
 21 30  1  0  0  0  0
 21 31  1  0  0  0  0
 21 33  2  0  0  0  0
 22 23  1  0  0  0  0
 23 24  1  0  0  0  0
 24 25  1  0  0  0  0
 25 29  1  0  0  0  0
 26 31  1  0  0  0  0
 28 30  1  0  0  0  0
  1 34  1  0  0  0  0
  2 35  1  0  0  0  0
  3 36  1  0  0  0  0
  4 37  1  0  0  0  0
  5 38  1  0  0  0  0
  6 39  1  0  0  0  0
  7 40  1  0  0  0  0
  8 41  1  0  0  0  0
  9 42  1  0  0  0  0
 10 43  1  0  0  0  0
 11 44  1  0  0  0  0
 12 45  1  0  0  0  0
 13 46  1  0  0  0  0
 14 47  1  0  0  0  0
 22 48  1  0  0  0  0
 22 49  1  0  0  0  0
 23 50  1  0  0  0  0
 23 51  1  0  0  0  0
 24 52  1  0  0  0  0
 24 53  1  0  0  0  0
 25 54  1  0  0  0  0
 25 55  1  0  0  0  0
 26 56  1  0  0  0  0
 26 57  1  0  0  0  0
 30 58  1  0  0  0  0
M  END
> <clash_score>
0.7790763812073098

> <docking_score>
-7.91810417175293

> <overlap_score>
1.0029655694961548

$$$$
BENZO_48_1
  -OEChem-08232013433D

 55 59  0     0  0  0  0  0  0999 V2000
    3.9160    2.0630   19.5520 C   0  0  0  0  0  0  0  0  0  0  0  0
    4.2750    1.7050   20.8490 C   0  0  0  0  0  0  0  0  0  0  0  0
    4.6890    1.6810   18.4640 C   0  0  0  0  0  0  0  0  0  0  0  0
    5.4210    0.9600   21.0930 C   0  0  0  0  0  0  0  0  0  0  0  0
    8.9960   -2.3380   25.5320 C   0  0  0  0  0  0  0  0  0  0  0  0
    9.6730   -3.4710   23.5300 C   0  0  0  0  0  0  0  0  0  0  0  0
    9.0720   -1.1280   24.8640 C   0  0  0  0  0  0  0  0  0  0  0  0
    9.7200   -2.2600   22.8630 C   0  0  0  0  0  0  0  0  0  0  0  0
   12.3748    1.2716   22.3621 C   0  0  0  0  0  0  0  0  0  0  0  0
   13.7230    1.1795   22.6298 C   0  0  0  0  0  0  0  0  0  0  0  0
   12.3680    1.1257   24.6818 C   0  0  0  0  0  0  0  0  0  0  0  0
    7.6390   -0.2680   18.5410 C   0  0  0  0  0  0  0  0  0  0  0  0
   11.5898    1.2405   23.5508 C   0  0  0  0  0  0  0  0  0  0  0  0
    5.8300    0.9190   18.6970 C   0  0  0  0  0  0  0  0  0  0  0  0
    6.1790    0.5730   19.9990 C   0  0  0  0  0  0  0  0  0  0  0  0
    9.3070   -3.5340   24.8780 C   0  0  0  0  0  0  0  0  0  0  0  0
    9.3350   -1.0880   23.5010 C   0  0  0  0  0  0  0  0  0  0  0  0
    8.3596   -5.0074   26.6308 C   0  0  0  0  0  0  0  0  0  0  0  0
    9.0420    0.3700   21.5280 C   0  0  0  0  0  0  0  0  0  0  0  0
    8.4579   -6.4047   27.2169 C   0  0  0  0  0  0  0  0  0  0  0  0
    8.4717   -7.4504   26.1159 C   0  0  0  0  0  0  0  0  0  0  0  0
    9.5645   -7.1893   25.0842 C   0  0  0  0  0  0  0  0  0  0  0  0
   10.2327   -5.8252   25.2501 C   0  0  0  0  0  0  0  0  0  0  0  0
   10.0908    1.3225   23.5666 C   0  0  0  0  0  0  0  0  0  0  0  0
    6.7580    0.3810   17.8350 N   0  0  0  0  0  0  0  0  0  0  0  0
    7.3170   -0.1610   19.8550 N   0  0  0  0  0  0  0  0  0  0  0  0
    9.2529   -4.7798   25.5645 N   0  0  0  0  0  0  0  0  0  0  0  0
    8.1890   -0.7180   20.8700 N   0  0  0  0  0  0  0  0  0  0  0  0
    9.4560    0.1560   22.8130 N   0  0  0  0  0  0  0  0  0  0  0  0
    7.5990   -4.1865   27.1424 O   0  0  0  0  0  0  0  0  0  0  0  0
    9.2690    1.4140   20.9380 O   0  0  0  0  0  0  0  0  0  0  0  0
   14.0378    1.0562   24.3085 S   0  0  0  0  0  0  0  0  0  0  0  0
    3.0134    2.6521   19.3911 H   0  0  0  0  0  0  0  0  0  0  0  0
    3.6460    2.0127   21.6812 H   0  0  0  0  0  0  0  0  0  0  0  0
    4.4037    1.9731   17.4543 H   0  0  0  0  0  0  0  0  0  0  0  0
    5.7084    0.6923   22.1132 H   0  0  0  0  0  0  0  0  0  0  0  0
    8.6895   -2.3529   26.5807 H   0  0  0  0  0  0  0  0  0  0  0  0
    9.9262   -4.3897   22.9916 H   0  0  0  0  0  0  0  0  0  0  0  0
    8.9224   -0.1998   25.4238 H   0  0  0  0  0  0  0  0  0  0  0  0
   10.0649   -2.2343   21.8258 H   0  0  0  0  0  0  0  0  0  0  0  0
   11.9750    1.3566   21.3595 H   0  0  0  0  0  0  0  0  0  0  0  0
   14.5380    1.1781   21.9199 H   0  0  0  0  0  0  0  0  0  0  0  0
   12.0400    1.0778   25.7110 H   0  0  0  0  0  0  0  0  0  0  0  0
    8.4862   -0.8060   18.1787 H   0  0  0  0  0  0  0  0  0  0  0  0
    9.3706   -6.4745   27.7885 H   0  0  0  0  0  0  0  0  0  0  0  0
    7.6055   -6.5497   27.8636 H   0  0  0  0  0  0  0  0  0  0  0  0
    8.6095   -8.4604   26.5550 H   0  0  0  0  0  0  0  0  0  0  0  0
    7.4835   -7.4763   25.6142 H   0  0  0  0  0  0  0  0  0  0  0  0
   10.3359   -7.9850   25.1531 H   0  0  0  0  0  0  0  0  0  0  0  0
    9.1458   -7.2796   24.0582 H   0  0  0  0  0  0  0  0  0  0  0  0
   10.9408   -5.8640   26.0725 H   0  0  0  0  0  0  0  0  0  0  0  0
   10.7521   -5.5631   24.3347 H   0  0  0  0  0  0  0  0  0  0  0  0
    9.7125    1.2790   24.5937 H   0  0  0  0  0  0  0  0  0  0  0  0
    9.7442    2.2660   23.1320 H   0  0  0  0  0  0  0  0  0  0  0  0
    8.2565   -1.5523   21.1108 H   0  0  0  0  0  0  0  0  0  0  0  0
  1  2  1  0  0  0  0
  1  3  2  0  0  0  0
  2  4  2  0  0  0  0
  3 14  1  0  0  0  0
  4 15  1  0  0  0  0
  5  7  2  0  0  0  0
  5 16  1  0  0  0  0
  6  8  1  0  0  0  0
  6 16  2  0  0  0  0
  7 17  1  0  0  0  0
  8 17  2  0  0  0  0
  9 10  2  0  0  0  0
  9 13  1  0  0  0  0
 10 32  1  0  0  0  0
 11 13  2  0  0  0  0
 11 32  1  0  0  0  0
 12 25  2  0  0  0  0
 12 26  1  0  0  0  0
 13 24  1  0  0  0  0
 14 15  2  0  0  0  0
 14 25  1  0  0  0  0
 15 26  1  0  0  0  0
 16 27  1  0  0  0  0
 17 29  1  0  0  0  0
 18 20  1  0  0  0  0
 18 27  1  0  0  0  0
 18 30  2  0  0  0  0
 19 28  1  0  0  0  0
 19 29  1  0  0  0  0
 19 31  2  0  0  0  0
 20 21  1  0  0  0  0
 21 22  1  0  0  0  0
 22 23  1  0  0  0  0
 23 27  1  0  0  0  0
 24 29  1  0  0  0  0
 26 28  1  0  0  0  0
  1 33  1  0  0  0  0
  2 34  1  0  0  0  0
  3 35  1  0  0  0  0
  4 36  1  0  0  0  0
  5 37  1  0  0  0  0
  6 38  1  0  0  0  0
  7 39  1  0  0  0  0
  8 40  1  0  0  0  0
  9 41  1  0  0  0  0
 10 42  1  0  0  0  0
 11 43  1  0  0  0  0
 12 44  1  0  0  0  0
 20 45  1  0  0  0  0
 20 46  1  0  0  0  0
 21 47  1  0  0  0  0
 21 48  1  0  0  0  0
 22 49  1  0  0  0  0
 22 50  1  0  0  0  0
 23 51  1  0  0  0  0
 23 52  1  0  0  0  0
 24 53  1  0  0  0  0
 24 54  1  0  0  0  0
 28 55  1  0  0  0  0
M  END
> <clash_score>
0.6354463265328341

> <docking_score>
-7.866852760314941

> <overlap_score>
0.9856769442558289

$$$$
BENZO_53_1
  -OEChem-08232013433D

 57 61  0     0  0  0  0  0  0999 V2000
   14.3761    1.1563   23.4181 C   0  0  0  0  0  0  0  0  0  0  0  0
   13.7288    2.3887   23.5060 C   0  0  0  0  0  0  0  0  0  0  0  0
   13.6304   -0.0219   23.3783 C   0  0  0  0  0  0  0  0  0  0  0  0
    3.9160    2.0630   19.5520 C   0  0  0  0  0  0  0  0  0  0  0  0
    4.2750    1.7050   20.8490 C   0  0  0  0  0  0  0  0  0  0  0  0
   12.3358    2.4430   23.5542 C   0  0  0  0  0  0  0  0  0  0  0  0
   12.2375    0.0323   23.4265 C   0  0  0  0  0  0  0  0  0  0  0  0
    4.6890    1.6810   18.4640 C   0  0  0  0  0  0  0  0  0  0  0  0
    5.4210    0.9600   21.0930 C   0  0  0  0  0  0  0  0  0  0  0  0
    8.9960   -2.3380   25.5320 C   0  0  0  0  0  0  0  0  0  0  0  0
    9.6730   -3.4710   23.5300 C   0  0  0  0  0  0  0  0  0  0  0  0
    9.0720   -1.1280   24.8640 C   0  0  0  0  0  0  0  0  0  0  0  0
    9.7200   -2.2600   22.8630 C   0  0  0  0  0  0  0  0  0  0  0  0
    7.6390   -0.2680   18.5410 C   0  0  0  0  0  0  0  0  0  0  0  0
   11.5901    1.2648   23.5145 C   0  0  0  0  0  0  0  0  0  0  0  0
    5.8300    0.9190   18.6970 C   0  0  0  0  0  0  0  0  0  0  0  0
    6.1790    0.5730   19.9990 C   0  0  0  0  0  0  0  0  0  0  0  0
    9.3070   -3.5340   24.8780 C   0  0  0  0  0  0  0  0  0  0  0  0
    9.3350   -1.0880   23.5010 C   0  0  0  0  0  0  0  0  0  0  0  0
    9.0420    0.3700   21.5280 C   0  0  0  0  0  0  0  0  0  0  0  0
   10.0771   -5.0255   26.7193 C   0  0  0  0  0  0  0  0  0  0  0  0
    8.0926   -5.6195   25.4071 C   0  0  0  0  0  0  0  0  0  0  0  0
    9.1933   -4.9427   27.9592 C   0  0  0  0  0  0  0  0  0  0  0  0
    7.2756   -5.5290   26.6967 C   0  0  0  0  0  0  0  0  0  0  0  0
   10.0908    1.3225   23.5666 C   0  0  0  0  0  0  0  0  0  0  0  0
    6.7580    0.3810   17.8350 N   0  0  0  0  0  0  0  0  0  0  0  0
    7.3170   -0.1610   19.8550 N   0  0  0  0  0  0  0  0  0  0  0  0
    9.2563   -4.7368   25.5413 N   0  0  0  0  0  0  0  0  0  0  0  0
    8.1890   -0.7180   20.8700 N   0  0  0  0  0  0  0  0  0  0  0  0
    9.4560    0.1560   22.8130 N   0  0  0  0  0  0  0  0  0  0  0  0
    9.2690    1.4140   20.9380 O   0  0  0  0  0  0  0  0  0  0  0  0
    8.0883   -5.8459   27.8325 O   0  0  0  0  0  0  0  0  0  0  0  0
   15.4607    1.1142   23.3792 H   0  0  0  0  0  0  0  0  0  0  0  0
   14.3092    3.3062   23.5359 H   0  0  0  0  0  0  0  0  0  0  0  0
   14.1340   -0.9816   23.3088 H   0  0  0  0  0  0  0  0  0  0  0  0
    3.0134    2.6521   19.3911 H   0  0  0  0  0  0  0  0  0  0  0  0
    3.6460    2.0127   21.6812 H   0  0  0  0  0  0  0  0  0  0  0  0
   11.8401    3.4077   23.6229 H   0  0  0  0  0  0  0  0  0  0  0  0
   11.6647   -0.8908   23.3951 H   0  0  0  0  0  0  0  0  0  0  0  0
    4.4037    1.9731   17.4543 H   0  0  0  0  0  0  0  0  0  0  0  0
    5.7084    0.6923   22.1132 H   0  0  0  0  0  0  0  0  0  0  0  0
    8.6905   -2.3533   26.5810 H   0  0  0  0  0  0  0  0  0  0  0  0
    9.9266   -4.3896   22.9917 H   0  0  0  0  0  0  0  0  0  0  0  0
    8.9233   -0.1992   25.4232 H   0  0  0  0  0  0  0  0  0  0  0  0
   10.0650   -2.2330   21.8256 H   0  0  0  0  0  0  0  0  0  0  0  0
    8.4862   -0.8060   18.1787 H   0  0  0  0  0  0  0  0  0  0  0  0
   10.8985   -4.3115   26.8085 H   0  0  0  0  0  0  0  0  0  0  0  0
   10.4915   -6.0334   26.6323 H   0  0  0  0  0  0  0  0  0  0  0  0
    8.4327   -6.6456   25.2620 H   0  0  0  0  0  0  0  0  0  0  0  0
    7.4725   -5.3241   24.5619 H   0  0  0  0  0  0  0  0  0  0  0  0
    9.7636   -5.2398   28.8419 H   0  0  0  0  0  0  0  0  0  0  0  0
    8.8236   -3.9268   28.1248 H   0  0  0  0  0  0  0  0  0  0  0  0
    6.8339   -4.5337   26.8232 H   0  0  0  0  0  0  0  0  0  0  0  0
    6.4550   -6.2521   26.6643 H   0  0  0  0  0  0  0  0  0  0  0  0
    9.7401    1.3200   24.6044 H   0  0  0  0  0  0  0  0  0  0  0  0
    9.7163    2.2391   23.0989 H   0  0  0  0  0  0  0  0  0  0  0  0
    8.2565   -1.5523   21.1108 H   0  0  0  0  0  0  0  0  0  0  0  0
  1  2  1  0  0  0  0
  1  3  2  0  0  0  0
  2  6  2  0  0  0  0
  3  7  1  0  0  0  0
  4  5  1  0  0  0  0
  4  8  2  0  0  0  0
  5  9  2  0  0  0  0
  6 15  1  0  0  0  0
  7 15  2  0  0  0  0
  8 16  1  0  0  0  0
  9 17  1  0  0  0  0
 10 12  2  0  0  0  0
 10 18  1  0  0  0  0
 11 13  1  0  0  0  0
 11 18  2  0  0  0  0
 12 19  1  0  0  0  0
 13 19  2  0  0  0  0
 14 26  2  0  0  0  0
 14 27  1  0  0  0  0
 15 25  1  0  0  0  0
 16 17  2  0  0  0  0
 16 26  1  0  0  0  0
 17 27  1  0  0  0  0
 18 28  1  0  0  0  0
 19 30  1  0  0  0  0
 20 29  1  0  0  0  0
 20 30  1  0  0  0  0
 20 31  2  0  0  0  0
 21 23  1  0  0  0  0
 21 28  1  0  0  0  0
 22 24  1  0  0  0  0
 22 28  1  0  0  0  0
 23 32  1  0  0  0  0
 24 32  1  0  0  0  0
 25 30  1  0  0  0  0
 27 29  1  0  0  0  0
  1 33  1  0  0  0  0
  2 34  1  0  0  0  0
  3 35  1  0  0  0  0
  4 36  1  0  0  0  0
  5 37  1  0  0  0  0
  6 38  1  0  0  0  0
  7 39  1  0  0  0  0
  8 40  1  0  0  0  0
  9 41  1  0  0  0  0
 10 42  1  0  0  0  0
 11 43  1  0  0  0  0
 12 44  1  0  0  0  0
 13 45  1  0  0  0  0
 14 46  1  0  0  0  0
 21 47  1  0  0  0  0
 21 48  1  0  0  0  0
 22 49  1  0  0  0  0
 22 50  1  0  0  0  0
 23 51  1  0  0  0  0
 23 52  1  0  0  0  0
 24 53  1  0  0  0  0
 24 54  1  0  0  0  0
 25 55  1  0  0  0  0
 25 56  1  0  0  0  0
 29 57  1  0  0  0  0
M  END
> <clash_score>
0

> <docking_score>
-7.900716781616211

> <overlap_score>
0.9988275766372681

$$$$
BENZO_50_1
  -OEChem-08232013433D

 58 62  0     0  0  0  0  0  0999 V2000
    3.9160    2.0630   19.5520 C   0  0  0  0  0  0  0  0  0  0  0  0
    4.2750    1.7050   20.8490 C   0  0  0  0  0  0  0  0  0  0  0  0
   13.7194    2.0329   22.7299 C   0  0  0  0  0  0  0  0  0  0  0  0
   12.3266    2.1077   22.7441 C   0  0  0  0  0  0  0  0  0  0  0  0
    4.6890    1.6810   18.4640 C   0  0  0  0  0  0  0  0  0  0  0  0
    5.4210    0.9600   21.0930 C   0  0  0  0  0  0  0  0  0  0  0  0
    8.9960   -2.3380   25.5320 C   0  0  0  0  0  0  0  0  0  0  0  0
    9.6730   -3.4710   23.5300 C   0  0  0  0  0  0  0  0  0  0  0  0
    9.0720   -1.1280   24.8640 C   0  0  0  0  0  0  0  0  0  0  0  0
    9.7200   -2.2600   22.8630 C   0  0  0  0  0  0  0  0  0  0  0  0
   14.3754    1.0908   23.5223 C   0  0  0  0  0  0  0  0  0  0  0  0
   12.2458    0.2985   24.3433 C   0  0  0  0  0  0  0  0  0  0  0  0
    7.6390   -0.2680   18.5410 C   0  0  0  0  0  0  0  0  0  0  0  0
   11.5898    1.2405   23.5508 C   0  0  0  0  0  0  0  0  0  0  0  0
    5.8300    0.9190   18.6970 C   0  0  0  0  0  0  0  0  0  0  0  0
    6.1790    0.5730   19.9990 C   0  0  0  0  0  0  0  0  0  0  0  0
    9.3070   -3.5340   24.8780 C   0  0  0  0  0  0  0  0  0  0  0  0
    9.3350   -1.0880   23.5010 C   0  0  0  0  0  0  0  0  0  0  0  0
   13.6386    0.2236   24.3290 C   0  0  0  0  0  0  0  0  0  0  0  0
    8.3597   -5.0073   26.6307 C   0  0  0  0  0  0  0  0  0  0  0  0
    9.0420    0.3700   21.5280 C   0  0  0  0  0  0  0  0  0  0  0  0
    8.4720   -6.3981   27.2296 C   0  0  0  0  0  0  0  0  0  0  0  0
    9.9252   -6.7605   27.4803 C   0  0  0  0  0  0  0  0  0  0  0  0
   10.7833   -6.6094   26.2282 C   0  0  0  0  0  0  0  0  0  0  0  0
   10.0539   -5.9099   25.0823 C   0  0  0  0  0  0  0  0  0  0  0  0
   10.0908    1.3225   23.5666 C   0  0  0  0  0  0  0  0  0  0  0  0
    6.7580    0.3810   17.8350 N   0  0  0  0  0  0  0  0  0  0  0  0
    7.3170   -0.1610   19.8550 N   0  0  0  0  0  0  0  0  0  0  0  0
    9.2530   -4.7797   25.5644 N   0  0  0  0  0  0  0  0  0  0  0  0
    8.1890   -0.7180   20.8700 N   0  0  0  0  0  0  0  0  0  0  0  0
    9.4560    0.1560   22.8130 N   0  0  0  0  0  0  0  0  0  0  0  0
    7.4954   -4.2356   27.0450 O   0  0  0  0  0  0  0  0  0  0  0  0
    9.2690    1.4140   20.9380 O   0  0  0  0  0  0  0  0  0  0  0  0
   14.4486   -0.9377   25.3072 Cl  0  0  0  0  0  0  0  0  0  0  0  0
    3.0134    2.6521   19.3911 H   0  0  0  0  0  0  0  0  0  0  0  0
    3.6460    2.0127   21.6812 H   0  0  0  0  0  0  0  0  0  0  0  0
   14.2928    2.7085   22.1017 H   0  0  0  0  0  0  0  0  0  0  0  0
   11.8239    2.8450   22.1236 H   0  0  0  0  0  0  0  0  0  0  0  0
    4.4037    1.9731   17.4543 H   0  0  0  0  0  0  0  0  0  0  0  0
    5.7084    0.6923   22.1132 H   0  0  0  0  0  0  0  0  0  0  0  0
    8.6895   -2.3529   26.5807 H   0  0  0  0  0  0  0  0  0  0  0  0
    9.9262   -4.3897   22.9916 H   0  0  0  0  0  0  0  0  0  0  0  0
    8.9224   -0.1998   25.4238 H   0  0  0  0  0  0  0  0  0  0  0  0
   10.0649   -2.2343   21.8258 H   0  0  0  0  0  0  0  0  0  0  0  0
   15.4614    1.0441   23.5013 H   0  0  0  0  0  0  0  0  0  0  0  0
   11.6668   -0.3758   24.9701 H   0  0  0  0  0  0  0  0  0  0  0  0
    8.4862   -0.8060   18.1787 H   0  0  0  0  0  0  0  0  0  0  0  0
    7.9325   -6.4148   28.1641 H   0  0  0  0  0  0  0  0  0  0  0  0
    8.0254   -7.0920   26.5333 H   0  0  0  0  0  0  0  0  0  0  0  0
   10.3387   -6.1267   28.2923 H   0  0  0  0  0  0  0  0  0  0  0  0
    9.9904   -7.8023   27.8537 H   0  0  0  0  0  0  0  0  0  0  0  0
   11.7037   -6.0404   26.4771 H   0  0  0  0  0  0  0  0  0  0  0  0
   11.1411   -7.6068   25.8918 H   0  0  0  0  0  0  0  0  0  0  0  0
   10.7782   -5.5162   24.3756 H   0  0  0  0  0  0  0  0  0  0  0  0
    9.4042   -6.6189   24.5807 H   0  0  0  0  0  0  0  0  0  0  0  0
    9.7125    1.2790   24.5938 H   0  0  0  0  0  0  0  0  0  0  0  0
    9.7442    2.2660   23.1320 H   0  0  0  0  0  0  0  0  0  0  0  0
    8.2565   -1.5523   21.1108 H   0  0  0  0  0  0  0  0  0  0  0  0
  1  2  1  0  0  0  0
  1  5  2  0  0  0  0
  2  6  2  0  0  0  0
  3  4  2  0  0  0  0
  3 11  1  0  0  0  0
  4 14  1  0  0  0  0
  5 15  1  0  0  0  0
  6 16  1  0  0  0  0
  7  9  2  0  0  0  0
  7 17  1  0  0  0  0
  8 10  1  0  0  0  0
  8 17  2  0  0  0  0
  9 18  1  0  0  0  0
 10 18  2  0  0  0  0
 11 19  2  0  0  0  0
 12 14  2  0  0  0  0
 12 19  1  0  0  0  0
 13 27  2  0  0  0  0
 13 28  1  0  0  0  0
 14 26  1  0  0  0  0
 15 16  2  0  0  0  0
 15 27  1  0  0  0  0
 16 28  1  0  0  0  0
 17 29  1  0  0  0  0
 18 31  1  0  0  0  0
 19 34  1  0  0  0  0
 20 22  1  0  0  0  0
 20 29  1  0  0  0  0
 20 32  2  0  0  0  0
 21 30  1  0  0  0  0
 21 31  1  0  0  0  0
 21 33  2  0  0  0  0
 22 23  1  0  0  0  0
 23 24  1  0  0  0  0
 24 25  1  0  0  0  0
 25 29  1  0  0  0  0
 26 31  1  0  0  0  0
 28 30  1  0  0  0  0
  1 35  1  0  0  0  0
  2 36  1  0  0  0  0
  3 37  1  0  0  0  0
  4 38  1  0  0  0  0
  5 39  1  0  0  0  0
  6 40  1  0  0  0  0
  7 41  1  0  0  0  0
  8 42  1  0  0  0  0
  9 43  1  0  0  0  0
 10 44  1  0  0  0  0
 11 45  1  0  0  0  0
 12 46  1  0  0  0  0
 13 47  1  0  0  0  0
 22 48  1  0  0  0  0
 22 49  1  0  0  0  0
 23 50  1  0  0  0  0
 23 51  1  0  0  0  0
 24 52  1  0  0  0  0
 24 53  1  0  0  0  0
 25 54  1  0  0  0  0
 25 55  1  0  0  0  0
 26 56  1  0  0  0  0
 26 57  1  0  0  0  0
 30 58  1  0  0  0  0
M  END
> <clash_score>
1.5099846449520946

> <docking_score>
-6.96400260925293

> <overlap_score>
1.0096696615219116

$$$$
BENZO_51_1
  -OEChem-08232013433D

 58 62  0     0  0  0  0  0  0999 V2000
    3.9160    2.0630   19.5520 C   0  0  0  0  0  0  0  0  0  0  0  0
    4.2750    1.7050   20.8490 C   0  0  0  0  0  0  0  0  0  0  0  0
    4.6890    1.6810   18.4640 C   0  0  0  0  0  0  0  0  0  0  0  0
    5.4210    0.9600   21.0930 C   0  0  0  0  0  0  0  0  0  0  0  0
    8.9960   -2.3380   25.5320 C   0  0  0  0  0  0  0  0  0  0  0  0
    9.6730   -3.4710   23.5300 C   0  0  0  0  0  0  0  0  0  0  0  0
    9.0720   -1.1280   24.8640 C   0  0  0  0  0  0  0  0  0  0  0  0
    9.7200   -2.2600   22.8630 C   0  0  0  0  0  0  0  0  0  0  0  0
   12.5012    1.9272   24.3753 C   0  0  0  0  0  0  0  0  0  0  0  0
   12.3801    0.4750   22.7286 C   0  0  0  0  0  0  0  0  0  0  0  0
    7.6390   -0.2680   18.5410 C   0  0  0  0  0  0  0  0  0  0  0  0
   11.5898    1.2405   23.5508 C   0  0  0  0  0  0  0  0  0  0  0  0
    5.8300    0.9190   18.6970 C   0  0  0  0  0  0  0  0  0  0  0  0
    6.1790    0.5730   19.9990 C   0  0  0  0  0  0  0  0  0  0  0  0
    9.3070   -3.5340   24.8780 C   0  0  0  0  0  0  0  0  0  0  0  0
    9.3350   -1.0880   23.5010 C   0  0  0  0  0  0  0  0  0  0  0  0
    8.3510   -4.9867   26.6296 C   0  0  0  0  0  0  0  0  0  0  0  0
    9.0420    0.3700   21.5280 C   0  0  0  0  0  0  0  0  0  0  0  0
    8.1551   -6.4206   27.0914 C   0  0  0  0  0  0  0  0  0  0  0  0
    9.3910   -7.2881   26.9937 C   0  0  0  0  0  0  0  0  0  0  0  0
    9.9314   -7.2074   25.5832 C   0  0  0  0  0  0  0  0  0  0  0  0
   10.3114   -5.7687   25.2760 C   0  0  0  0  0  0  0  0  0  0  0  0
   14.8577    0.1678   22.5155 C   0  0  0  0  0  0  0  0  0  0  0  0
   10.0908    1.3225   23.5666 C   0  0  0  0  0  0  0  0  0  0  0  0
   13.7730    1.6245   24.1019 N   0  0  0  0  0  0  0  0  0  0  0  0
    6.7580    0.3810   17.8350 N   0  0  0  0  0  0  0  0  0  0  0  0
   13.6666    0.7392   23.0965 N   0  0  0  0  0  0  0  0  0  0  0  0
    7.3170   -0.1610   19.8550 N   0  0  0  0  0  0  0  0  0  0  0  0
    9.2526   -4.7874   25.5686 N   0  0  0  0  0  0  0  0  0  0  0  0
    8.1890   -0.7180   20.8700 N   0  0  0  0  0  0  0  0  0  0  0  0
    9.4560    0.1560   22.8130 N   0  0  0  0  0  0  0  0  0  0  0  0
    7.6724   -4.1074   27.1673 O   0  0  0  0  0  0  0  0  0  0  0  0
    9.2690    1.4140   20.9380 O   0  0  0  0  0  0  0  0  0  0  0  0
    3.0134    2.6521   19.3911 H   0  0  0  0  0  0  0  0  0  0  0  0
    3.6460    2.0127   21.6812 H   0  0  0  0  0  0  0  0  0  0  0  0
    4.4037    1.9731   17.4543 H   0  0  0  0  0  0  0  0  0  0  0  0
    5.7084    0.6923   22.1132 H   0  0  0  0  0  0  0  0  0  0  0  0
    8.6895   -2.3529   26.5807 H   0  0  0  0  0  0  0  0  0  0  0  0
    9.9262   -4.3897   22.9916 H   0  0  0  0  0  0  0  0  0  0  0  0
    8.9224   -0.1998   25.4238 H   0  0  0  0  0  0  0  0  0  0  0  0
   10.0649   -2.2343   21.8258 H   0  0  0  0  0  0  0  0  0  0  0  0
   12.2939    2.6353   25.1651 H   0  0  0  0  0  0  0  0  0  0  0  0
   12.1424   -0.2189   21.9338 H   0  0  0  0  0  0  0  0  0  0  0  0
    8.4862   -0.8060   18.1787 H   0  0  0  0  0  0  0  0  0  0  0  0
    7.8133   -6.3988   28.1326 H   0  0  0  0  0  0  0  0  0  0  0  0
    7.3452   -6.8473   26.4874 H   0  0  0  0  0  0  0  0  0  0  0  0
   10.1502   -6.9497   27.7092 H   0  0  0  0  0  0  0  0  0  0  0  0
    9.1415   -8.3244   27.2461 H   0  0  0  0  0  0  0  0  0  0  0  0
   10.8120   -7.8512   25.4807 H   0  0  0  0  0  0  0  0  0  0  0  0
    9.1844   -7.5636   24.8636 H   0  0  0  0  0  0  0  0  0  0  0  0
   11.1846   -5.4813   25.8755 H   0  0  0  0  0  0  0  0  0  0  0  0
   10.5857   -5.6807   24.2179 H   0  0  0  0  0  0  0  0  0  0  0  0
   15.1733    0.8124   21.6908 H   0  0  0  0  0  0  0  0  0  0  0  0
   15.6414    0.1085   23.2759 H   0  0  0  0  0  0  0  0  0  0  0  0
   14.6351   -0.8391   22.1515 H   0  0  0  0  0  0  0  0  0  0  0  0
    9.7125    1.2790   24.5937 H   0  0  0  0  0  0  0  0  0  0  0  0
    9.7442    2.2660   23.1320 H   0  0  0  0  0  0  0  0  0  0  0  0
    8.2565   -1.5523   21.1108 H   0  0  0  0  0  0  0  0  0  0  0  0
  1  2  1  0  0  0  0
  1  3  2  0  0  0  0
  2  4  2  0  0  0  0
  3 13  1  0  0  0  0
  4 14  1  0  0  0  0
  5  7  2  0  0  0  0
  5 15  1  0  0  0  0
  6  8  1  0  0  0  0
  6 15  2  0  0  0  0
  7 16  1  0  0  0  0
  8 16  2  0  0  0  0
  9 12  1  0  0  0  0
  9 25  2  0  0  0  0
 10 12  2  0  0  0  0
 10 27  1  0  0  0  0
 11 26  2  0  0  0  0
 11 28  1  0  0  0  0
 12 24  1  0  0  0  0
 13 14  2  0  0  0  0
 13 26  1  0  0  0  0
 14 28  1  0  0  0  0
 15 29  1  0  0  0  0
 16 31  1  0  0  0  0
 17 19  1  0  0  0  0
 17 29  1  0  0  0  0
 17 32  2  0  0  0  0
 18 30  1  0  0  0  0
 18 31  1  0  0  0  0
 18 33  2  0  0  0  0
 19 20  1  0  0  0  0
 20 21  1  0  0  0  0
 21 22  1  0  0  0  0
 22 29  1  0  0  0  0
 23 27  1  0  0  0  0
 24 31  1  0  0  0  0
 25 27  1  0  0  0  0
 28 30  1  0  0  0  0
  1 34  1  0  0  0  0
  2 35  1  0  0  0  0
  3 36  1  0  0  0  0
  4 37  1  0  0  0  0
  5 38  1  0  0  0  0
  6 39  1  0  0  0  0
  7 40  1  0  0  0  0
  8 41  1  0  0  0  0
  9 42  1  0  0  0  0
 10 43  1  0  0  0  0
 11 44  1  0  0  0  0
 19 45  1  0  0  0  0
 19 46  1  0  0  0  0
 20 47  1  0  0  0  0
 20 48  1  0  0  0  0
 21 49  1  0  0  0  0
 21 50  1  0  0  0  0
 22 51  1  0  0  0  0
 22 52  1  0  0  0  0
 23 53  1  0  0  0  0
 23 54  1  0  0  0  0
 23 55  1  0  0  0  0
 24 56  1  0  0  0  0
 24 57  1  0  0  0  0
 30 58  1  0  0  0  0
M  END
> <clash_score>
0.7510927600736075

> <docking_score>
-8.026655197143555

> <overlap_score>
0.9936839938163757

$$$$
BENZO_52_1
  -OEChem-08232013433D

 54 58  0     0  0  0  0  0  0999 V2000
    3.9160    2.0630   19.5520 C   0  0  0  0  0  0  0  0  0  0  0  0
    4.2750    1.7050   20.8490 C   0  0  0  0  0  0  0  0  0  0  0  0
    4.6890    1.6810   18.4640 C   0  0  0  0  0  0  0  0  0  0  0  0
    5.4210    0.9600   21.0930 C   0  0  0  0  0  0  0  0  0  0  0  0
    8.9960   -2.3380   25.5320 C   0  0  0  0  0  0  0  0  0  0  0  0
    9.6730   -3.4710   23.5300 C   0  0  0  0  0  0  0  0  0  0  0  0
    9.0720   -1.1280   24.8640 C   0  0  0  0  0  0  0  0  0  0  0  0
    9.7200   -2.2600   22.8630 C   0  0  0  0  0  0  0  0  0  0  0  0
   12.4297    2.4159   23.5053 C   0  0  0  0  0  0  0  0  0  0  0  0
   13.7652    2.0820   23.4534 C   0  0  0  0  0  0  0  0  0  0  0  0
   12.3160    0.0947   23.4691 C   0  0  0  0  0  0  0  0  0  0  0  0
    7.6390   -0.2680   18.5410 C   0  0  0  0  0  0  0  0  0  0  0  0
   11.5901    1.2648   23.5145 C   0  0  0  0  0  0  0  0  0  0  0  0
    5.8300    0.9190   18.6970 C   0  0  0  0  0  0  0  0  0  0  0  0
    6.1790    0.5730   19.9990 C   0  0  0  0  0  0  0  0  0  0  0  0
    9.3070   -3.5340   24.8780 C   0  0  0  0  0  0  0  0  0  0  0  0
    9.3350   -1.0880   23.5010 C   0  0  0  0  0  0  0  0  0  0  0  0
    9.0420    0.3700   21.5280 C   0  0  0  0  0  0  0  0  0  0  0  0
   10.0771   -5.0255   26.7193 C   0  0  0  0  0  0  0  0  0  0  0  0
    8.0926   -5.6195   25.4071 C   0  0  0  0  0  0  0  0  0  0  0  0
    9.1933   -4.9427   27.9592 C   0  0  0  0  0  0  0  0  0  0  0  0
    7.2756   -5.5290   26.6967 C   0  0  0  0  0  0  0  0  0  0  0  0
   10.0908    1.3225   23.5666 C   0  0  0  0  0  0  0  0  0  0  0  0
    6.7580    0.3810   17.8350 N   0  0  0  0  0  0  0  0  0  0  0  0
    7.3170   -0.1610   19.8550 N   0  0  0  0  0  0  0  0  0  0  0  0
    9.2563   -4.7368   25.5413 N   0  0  0  0  0  0  0  0  0  0  0  0
    8.1890   -0.7180   20.8700 N   0  0  0  0  0  0  0  0  0  0  0  0
    9.4560    0.1560   22.8130 N   0  0  0  0  0  0  0  0  0  0  0  0
    9.2690    1.4140   20.9380 O   0  0  0  0  0  0  0  0  0  0  0  0
    8.0883   -5.8459   27.8325 O   0  0  0  0  0  0  0  0  0  0  0  0
   14.0025    0.3865   23.4159 S   0  0  0  0  0  0  0  0  0  0  0  0
    3.0134    2.6521   19.3911 H   0  0  0  0  0  0  0  0  0  0  0  0
    3.6460    2.0127   21.6812 H   0  0  0  0  0  0  0  0  0  0  0  0
    4.4037    1.9731   17.4543 H   0  0  0  0  0  0  0  0  0  0  0  0
    5.7084    0.6923   22.1132 H   0  0  0  0  0  0  0  0  0  0  0  0
    8.6905   -2.3533   26.5810 H   0  0  0  0  0  0  0  0  0  0  0  0
    9.9266   -4.3896   22.9917 H   0  0  0  0  0  0  0  0  0  0  0  0
    8.9233   -0.1992   25.4232 H   0  0  0  0  0  0  0  0  0  0  0  0
   10.0650   -2.2330   21.8256 H   0  0  0  0  0  0  0  0  0  0  0  0
   12.0763    3.4389   23.5346 H   0  0  0  0  0  0  0  0  0  0  0  0
   14.6127    2.7524   23.4350 H   0  0  0  0  0  0  0  0  0  0  0  0
   11.9406   -0.9192   23.4632 H   0  0  0  0  0  0  0  0  0  0  0  0
    8.4862   -0.8060   18.1787 H   0  0  0  0  0  0  0  0  0  0  0  0
   10.8985   -4.3115   26.8085 H   0  0  0  0  0  0  0  0  0  0  0  0
   10.4915   -6.0334   26.6323 H   0  0  0  0  0  0  0  0  0  0  0  0
    8.4327   -6.6456   25.2620 H   0  0  0  0  0  0  0  0  0  0  0  0
    7.4725   -5.3241   24.5619 H   0  0  0  0  0  0  0  0  0  0  0  0
    9.7636   -5.2398   28.8419 H   0  0  0  0  0  0  0  0  0  0  0  0
    8.8236   -3.9268   28.1248 H   0  0  0  0  0  0  0  0  0  0  0  0
    6.8339   -4.5337   26.8232 H   0  0  0  0  0  0  0  0  0  0  0  0
    6.4550   -6.2521   26.6643 H   0  0  0  0  0  0  0  0  0  0  0  0
    9.7401    1.3200   24.6044 H   0  0  0  0  0  0  0  0  0  0  0  0
    9.7163    2.2391   23.0989 H   0  0  0  0  0  0  0  0  0  0  0  0
    8.2565   -1.5523   21.1108 H   0  0  0  0  0  0  0  0  0  0  0  0
  1  2  1  0  0  0  0
  1  3  2  0  0  0  0
  2  4  2  0  0  0  0
  3 14  1  0  0  0  0
  4 15  1  0  0  0  0
  5  7  2  0  0  0  0
  5 16  1  0  0  0  0
  6  8  1  0  0  0  0
  6 16  2  0  0  0  0
  7 17  1  0  0  0  0
  8 17  2  0  0  0  0
  9 10  2  0  0  0  0
  9 13  1  0  0  0  0
 10 31  1  0  0  0  0
 11 13  2  0  0  0  0
 11 31  1  0  0  0  0
 12 24  2  0  0  0  0
 12 25  1  0  0  0  0
 13 23  1  0  0  0  0
 14 15  2  0  0  0  0
 14 24  1  0  0  0  0
 15 25  1  0  0  0  0
 16 26  1  0  0  0  0
 17 28  1  0  0  0  0
 18 27  1  0  0  0  0
 18 28  1  0  0  0  0
 18 29  2  0  0  0  0
 19 21  1  0  0  0  0
 19 26  1  0  0  0  0
 20 22  1  0  0  0  0
 20 26  1  0  0  0  0
 21 30  1  0  0  0  0
 22 30  1  0  0  0  0
 23 28  1  0  0  0  0
 25 27  1  0  0  0  0
  1 32  1  0  0  0  0
  2 33  1  0  0  0  0
  3 34  1  0  0  0  0
  4 35  1  0  0  0  0
  5 36  1  0  0  0  0
  6 37  1  0  0  0  0
  7 38  1  0  0  0  0
  8 39  1  0  0  0  0
  9 40  1  0  0  0  0
 10 41  1  0  0  0  0
 11 42  1  0  0  0  0
 12 43  1  0  0  0  0
 19 44  1  0  0  0  0
 19 45  1  0  0  0  0
 20 46  1  0  0  0  0
 20 47  1  0  0  0  0
 21 48  1  0  0  0  0
 21 49  1  0  0  0  0
 22 50  1  0  0  0  0
 22 51  1  0  0  0  0
 23 52  1  0  0  0  0
 23 53  1  0  0  0  0
 27 54  1  0  0  0  0
M  END
> <clash_score>
0

> <docking_score>
-8.717513084411621

> <overlap_score>
0.9871023297309875

$$$$
BENZO_57_1
  -OEChem-08232013433D

 52 55  0     0  0  0  0  0  0999 V2000
   14.2909    1.2180   23.8427 C   0  0  0  0  0  0  0  0  0  0  0  0
    4.2750    1.7050   20.8490 C   0  0  0  0  0  0  0  0  0  0  0  0
   13.5324    0.5493   24.8034 C   0  0  0  0  0  0  0  0  0  0  0  0
   13.6566    1.9121   22.8124 C   0  0  0  0  0  0  0  0  0  0  0  0
    3.9160    2.0630   19.5520 C   0  0  0  0  0  0  0  0  0  0  0  0
    5.4210    0.9600   21.0930 C   0  0  0  0  0  0  0  0  0  0  0  0
   12.1395    0.5746   24.7339 C   0  0  0  0  0  0  0  0  0  0  0  0
   12.2637    1.9375   22.7428 C   0  0  0  0  0  0  0  0  0  0  0  0
    4.6890    1.6810   18.4640 C   0  0  0  0  0  0  0  0  0  0  0  0
    9.0720   -1.1280   24.8640 C   0  0  0  0  0  0  0  0  0  0  0  0
    9.7200   -2.2600   22.8630 C   0  0  0  0  0  0  0  0  0  0  0  0
    8.9960   -2.3380   25.5320 C   0  0  0  0  0  0  0  0  0  0  0  0
    9.6730   -3.4710   23.5300 C   0  0  0  0  0  0  0  0  0  0  0  0
    6.1790    0.5730   19.9990 C   0  0  0  0  0  0  0  0  0  0  0  0
   11.5051    1.2687   23.7036 C   0  0  0  0  0  0  0  0  0  0  0  0
    5.8300    0.9190   18.6970 C   0  0  0  0  0  0  0  0  0  0  0  0
    9.3350   -1.0880   23.5010 C   0  0  0  0  0  0  0  0  0  0  0  0
    9.3070   -3.5340   24.8780 C   0  0  0  0  0  0  0  0  0  0  0  0
    7.3170   -0.1610   19.8550 C   0  0  0  0  0  0  0  0  0  0  0  0
    9.0420    0.3700   21.5280 C   0  0  0  0  0  0  0  0  0  0  0  0
    8.0128   -5.2151   26.1416 C   0  0  0  0  0  0  0  0  0  0  0  0
   10.4372   -5.5860   25.6589 C   0  0  0  0  0  0  0  0  0  0  0  0
   10.0059    1.2962   23.6279 C   0  0  0  0  0  0  0  0  0  0  0  0
    7.6390   -0.2680   18.5410 N   0  0  0  0  0  0  0  0  0  0  0  0
    6.7580    0.3810   17.8350 N   0  0  0  0  0  0  0  0  0  0  0  0
    8.1890   -0.7180   20.8700 N   0  0  0  0  0  0  0  0  0  0  0  0
    9.4560    0.1560   22.8130 N   0  0  0  0  0  0  0  0  0  0  0  0
    9.2543   -4.7552   25.5519 N   0  0  0  0  0  0  0  0  0  0  0  0
    9.2690    1.4140   20.9380 O   0  0  0  0  0  0  0  0  0  0  0  0
   15.3755    1.1993   23.8978 H   0  0  0  0  0  0  0  0  0  0  0  0
    3.6468    2.0173   21.6825 H   0  0  0  0  0  0  0  0  0  0  0  0
   14.0261    0.0096   25.6063 H   0  0  0  0  0  0  0  0  0  0  0  0
   14.2468    2.4338   22.0649 H   0  0  0  0  0  0  0  0  0  0  0  0
    3.0153    2.6527   19.3907 H   0  0  0  0  0  0  0  0  0  0  0  0
    5.7015    0.6980   22.1071 H   0  0  0  0  0  0  0  0  0  0  0  0
   11.5566    0.0505   25.4867 H   0  0  0  0  0  0  0  0  0  0  0  0
   11.7781    2.4807   21.9365 H   0  0  0  0  0  0  0  0  0  0  0  0
    4.4064    1.9744   17.4453 H   0  0  0  0  0  0  0  0  0  0  0  0
    8.9217   -0.1995   25.4232 H   0  0  0  0  0  0  0  0  0  0  0  0
   10.0643   -2.2341   21.8254 H   0  0  0  0  0  0  0  0  0  0  0  0
    8.6893   -2.3540   26.5808 H   0  0  0  0  0  0  0  0  0  0  0  0
    9.9257   -4.3898   22.9921 H   0  0  0  0  0  0  0  0  0  0  0  0
    8.1744   -6.1904   26.6238 H   0  0  0  0  0  0  0  0  0  0  0  0
    7.6718   -4.4870   26.8924 H   0  0  0  0  0  0  0  0  0  0  0  0
    7.2494   -5.3166   25.3561 H   0  0  0  0  0  0  0  0  0  0  0  0
   10.1946   -6.4995   26.2216 H   0  0  0  0  0  0  0  0  0  0  0  0
   10.7865   -5.8577   24.6518 H   0  0  0  0  0  0  0  0  0  0  0  0
   11.2285   -5.0312   26.1842 H   0  0  0  0  0  0  0  0  0  0  0  0
    9.5675    1.2266   24.6294 H   0  0  0  0  0  0  0  0  0  0  0  0
    9.6520    2.2318   23.1823 H   0  0  0  0  0  0  0  0  0  0  0  0
    6.8044    0.4388   16.8592 H   0  0  0  0  0  0  0  0  0  0  0  0
    8.2409   -1.5618   21.0967 H   0  0  0  0  0  0  0  0  0  0  0  0
  1  3  1  0  0  0  0
  1  4  2  0  0  0  0
  2  5  1  0  0  0  0
  2  6  2  0  0  0  0
  3  7  2  0  0  0  0
  4  8  1  0  0  0  0
  5  9  2  0  0  0  0
  6 14  1  0  0  0  0
  7 15  1  0  0  0  0
  8 15  2  0  0  0  0
  9 16  1  0  0  0  0
 10 12  2  0  0  0  0
 10 17  1  0  0  0  0
 11 13  1  0  0  0  0
 11 17  2  0  0  0  0
 12 18  1  0  0  0  0
 13 18  2  0  0  0  0
 14 16  2  0  0  0  0
 14 19  1  0  0  0  0
 15 23  1  0  0  0  0
 16 25  1  0  0  0  0
 17 27  1  0  0  0  0
 18 28  1  0  0  0  0
 19 24  2  0  0  0  0
 19 26  1  0  0  0  0
 20 26  1  0  0  0  0
 20 27  1  0  0  0  0
 20 29  2  0  0  0  0
 21 28  1  0  0  0  0
 22 28  1  0  0  0  0
 23 27  1  0  0  0  0
 24 25  1  0  0  0  0
  1 30  1  0  0  0  0
  2 31  1  0  0  0  0
  3 32  1  0  0  0  0
  4 33  1  0  0  0  0
  5 34  1  0  0  0  0
  6 35  1  0  0  0  0
  7 36  1  0  0  0  0
  8 37  1  0  0  0  0
  9 38  1  0  0  0  0
 10 39  1  0  0  0  0
 11 40  1  0  0  0  0
 12 41  1  0  0  0  0
 13 42  1  0  0  0  0
 21 43  1  0  0  0  0
 21 44  1  0  0  0  0
 21 45  1  0  0  0  0
 22 46  1  0  0  0  0
 22 47  1  0  0  0  0
 22 48  1  0  0  0  0
 23 49  1  0  0  0  0
 23 50  1  0  0  0  0
 25 51  1  0  0  0  0
 26 52  1  0  0  0  0
M  END
> <clash_score>
0

> <docking_score>
-8.777024269104004

> <overlap_score>
0.9770978093147278

$$$$
BENZO_56_1
  -OEChem-08232013433D

 49 52  0     0  0  0  0  0  0999 V2000
    4.2750    1.7050   20.8490 C   0  0  0  0  0  0  0  0  0  0  0  0
    3.9160    2.0630   19.5520 C   0  0  0  0  0  0  0  0  0  0  0  0
    5.4210    0.9600   21.0930 C   0  0  0  0  0  0  0  0  0  0  0  0
    4.6890    1.6810   18.4640 C   0  0  0  0  0  0  0  0  0  0  0  0
    9.0720   -1.1280   24.8640 C   0  0  0  0  0  0  0  0  0  0  0  0
    9.7200   -2.2600   22.8630 C   0  0  0  0  0  0  0  0  0  0  0  0
    8.9960   -2.3380   25.5320 C   0  0  0  0  0  0  0  0  0  0  0  0
    9.6730   -3.4710   23.5300 C   0  0  0  0  0  0  0  0  0  0  0  0
   12.3157    2.4334   23.8330 C   0  0  0  0  0  0  0  0  0  0  0  0
   13.6579    2.1272   23.8789 C   0  0  0  0  0  0  0  0  0  0  0  0
   12.2590    0.1166   23.6552 C   0  0  0  0  0  0  0  0  0  0  0  0
    6.1790    0.5730   19.9990 C   0  0  0  0  0  0  0  0  0  0  0  0
   11.5051    1.2687   23.7036 C   0  0  0  0  0  0  0  0  0  0  0  0
    5.8300    0.9190   18.6970 C   0  0  0  0  0  0  0  0  0  0  0  0
    9.3350   -1.0880   23.5010 C   0  0  0  0  0  0  0  0  0  0  0  0
    9.3070   -3.5340   24.8780 C   0  0  0  0  0  0  0  0  0  0  0  0
    7.3170   -0.1610   19.8550 C   0  0  0  0  0  0  0  0  0  0  0  0
    9.0420    0.3700   21.5280 C   0  0  0  0  0  0  0  0  0  0  0  0
    8.0128   -5.2151   26.1416 C   0  0  0  0  0  0  0  0  0  0  0  0
   10.4372   -5.5860   25.6589 C   0  0  0  0  0  0  0  0  0  0  0  0
   10.0059    1.2962   23.6279 C   0  0  0  0  0  0  0  0  0  0  0  0
    7.6390   -0.2680   18.5410 N   0  0  0  0  0  0  0  0  0  0  0  0
    6.7580    0.3810   17.8350 N   0  0  0  0  0  0  0  0  0  0  0  0
    8.1890   -0.7180   20.8700 N   0  0  0  0  0  0  0  0  0  0  0  0
    9.4560    0.1560   22.8130 N   0  0  0  0  0  0  0  0  0  0  0  0
    9.2543   -4.7552   25.5519 N   0  0  0  0  0  0  0  0  0  0  0  0
    9.2690    1.4140   20.9380 O   0  0  0  0  0  0  0  0  0  0  0  0
   13.9366    0.4414   23.7659 S   0  0  0  0  0  0  0  0  0  0  0  0
    3.6468    2.0173   21.6825 H   0  0  0  0  0  0  0  0  0  0  0  0
    3.0153    2.6527   19.3907 H   0  0  0  0  0  0  0  0  0  0  0  0
    5.7015    0.6980   22.1071 H   0  0  0  0  0  0  0  0  0  0  0  0
    4.4064    1.9744   17.4453 H   0  0  0  0  0  0  0  0  0  0  0  0
    8.9217   -0.1995   25.4232 H   0  0  0  0  0  0  0  0  0  0  0  0
   10.0643   -2.2341   21.8254 H   0  0  0  0  0  0  0  0  0  0  0  0
    8.6893   -2.3540   26.5808 H   0  0  0  0  0  0  0  0  0  0  0  0
    9.9257   -4.3898   22.9921 H   0  0  0  0  0  0  0  0  0  0  0  0
   11.9375    3.4463   23.8895 H   0  0  0  0  0  0  0  0  0  0  0  0
   14.4883    2.8127   23.9725 H   0  0  0  0  0  0  0  0  0  0  0  0
   11.9089   -0.9019   23.5590 H   0  0  0  0  0  0  0  0  0  0  0  0
    8.1744   -6.1904   26.6238 H   0  0  0  0  0  0  0  0  0  0  0  0
    7.6718   -4.4870   26.8924 H   0  0  0  0  0  0  0  0  0  0  0  0
    7.2494   -5.3166   25.3561 H   0  0  0  0  0  0  0  0  0  0  0  0
   10.1946   -6.4995   26.2216 H   0  0  0  0  0  0  0  0  0  0  0  0
   10.7865   -5.8577   24.6518 H   0  0  0  0  0  0  0  0  0  0  0  0
   11.2285   -5.0312   26.1842 H   0  0  0  0  0  0  0  0  0  0  0  0
    9.5675    1.2266   24.6294 H   0  0  0  0  0  0  0  0  0  0  0  0
    9.6520    2.2318   23.1823 H   0  0  0  0  0  0  0  0  0  0  0  0
    6.8044    0.4388   16.8592 H   0  0  0  0  0  0  0  0  0  0  0  0
    8.2409   -1.5618   21.0967 H   0  0  0  0  0  0  0  0  0  0  0  0
  1  2  1  0  0  0  0
  1  3  2  0  0  0  0
  2  4  2  0  0  0  0
  3 12  1  0  0  0  0
  4 14  1  0  0  0  0
  5  7  2  0  0  0  0
  5 15  1  0  0  0  0
  6  8  1  0  0  0  0
  6 15  2  0  0  0  0
  7 16  1  0  0  0  0
  8 16  2  0  0  0  0
  9 10  2  0  0  0  0
  9 13  1  0  0  0  0
 10 28  1  0  0  0  0
 11 13  2  0  0  0  0
 11 28  1  0  0  0  0
 12 14  2  0  0  0  0
 12 17  1  0  0  0  0
 13 21  1  0  0  0  0
 14 23  1  0  0  0  0
 15 25  1  0  0  0  0
 16 26  1  0  0  0  0
 17 22  2  0  0  0  0
 17 24  1  0  0  0  0
 18 24  1  0  0  0  0
 18 25  1  0  0  0  0
 18 27  2  0  0  0  0
 19 26  1  0  0  0  0
 20 26  1  0  0  0  0
 21 25  1  0  0  0  0
 22 23  1  0  0  0  0
  1 29  1  0  0  0  0
  2 30  1  0  0  0  0
  3 31  1  0  0  0  0
  4 32  1  0  0  0  0
  5 33  1  0  0  0  0
  6 34  1  0  0  0  0
  7 35  1  0  0  0  0
  8 36  1  0  0  0  0
  9 37  1  0  0  0  0
 10 38  1  0  0  0  0
 11 39  1  0  0  0  0
 19 40  1  0  0  0  0
 19 41  1  0  0  0  0
 19 42  1  0  0  0  0
 20 43  1  0  0  0  0
 20 44  1  0  0  0  0
 20 45  1  0  0  0  0
 21 46  1  0  0  0  0
 21 47  1  0  0  0  0
 23 48  1  0  0  0  0
 24 49  1  0  0  0  0
M  END
> <clash_score>
0

> <docking_score>
-7.806521415710449

> <overlap_score>
0.9637832641601562

$$$$
BENZO_54_1
  -OEChem-08232013433D

 57 61  0     0  0  0  0  0  0999 V2000
    3.9160    2.0630   19.5520 C   0  0  0  0  0  0  0  0  0  0  0  0
    4.2750    1.7050   20.8490 C   0  0  0  0  0  0  0  0  0  0  0  0
   13.6832    2.0538   22.6017 C   0  0  0  0  0  0  0  0  0  0  0  0
   12.2902    2.1061   22.6497 C   0  0  0  0  0  0  0  0  0  0  0  0
    4.6890    1.6810   18.4640 C   0  0  0  0  0  0  0  0  0  0  0  0
    5.4210    0.9600   21.0930 C   0  0  0  0  0  0  0  0  0  0  0  0
    8.9960   -2.3380   25.5320 C   0  0  0  0  0  0  0  0  0  0  0  0
    9.6730   -3.4710   23.5300 C   0  0  0  0  0  0  0  0  0  0  0  0
    9.0720   -1.1280   24.8640 C   0  0  0  0  0  0  0  0  0  0  0  0
    9.7200   -2.2600   22.8630 C   0  0  0  0  0  0  0  0  0  0  0  0
   14.3762    1.1601   23.4183 C   0  0  0  0  0  0  0  0  0  0  0  0
   12.2831    0.3711   24.3311 C   0  0  0  0  0  0  0  0  0  0  0  0
    7.6390   -0.2680   18.5410 C   0  0  0  0  0  0  0  0  0  0  0  0
   11.5901    1.2648   23.5145 C   0  0  0  0  0  0  0  0  0  0  0  0
    5.8300    0.9190   18.6970 C   0  0  0  0  0  0  0  0  0  0  0  0
    6.1790    0.5730   19.9990 C   0  0  0  0  0  0  0  0  0  0  0  0
    9.3070   -3.5340   24.8780 C   0  0  0  0  0  0  0  0  0  0  0  0
    9.3350   -1.0880   23.5010 C   0  0  0  0  0  0  0  0  0  0  0  0
   13.6762    0.3188   24.2830 C   0  0  0  0  0  0  0  0  0  0  0  0
    9.0420    0.3700   21.5280 C   0  0  0  0  0  0  0  0  0  0  0  0
    9.5174   -4.8597   26.9770 C   0  0  0  0  0  0  0  0  0  0  0  0
    8.5165   -5.8725   24.9808 C   0  0  0  0  0  0  0  0  0  0  0  0
    8.1868   -5.0439   27.6987 C   0  0  0  0  0  0  0  0  0  0  0  0
    7.2200   -6.0347   25.7755 C   0  0  0  0  0  0  0  0  0  0  0  0
   10.0908    1.3225   23.5666 C   0  0  0  0  0  0  0  0  0  0  0  0
    6.7580    0.3810   17.8350 N   0  0  0  0  0  0  0  0  0  0  0  0
    7.3170   -0.1610   19.8550 N   0  0  0  0  0  0  0  0  0  0  0  0
    9.2563   -4.7368   25.5413 N   0  0  0  0  0  0  0  0  0  0  0  0
    8.1890   -0.7180   20.8700 N   0  0  0  0  0  0  0  0  0  0  0  0
    9.4560    0.1560   22.8130 N   0  0  0  0  0  0  0  0  0  0  0  0
    9.2690    1.4140   20.9380 O   0  0  0  0  0  0  0  0  0  0  0  0
    7.4994   -6.1853   27.1719 O   0  0  0  0  0  0  0  0  0  0  0  0
   14.5318   -0.7827   25.2911 Cl  0  0  0  0  0  0  0  0  0  0  0  0
    3.0134    2.6521   19.3911 H   0  0  0  0  0  0  0  0  0  0  0  0
    3.6460    2.0127   21.6812 H   0  0  0  0  0  0  0  0  0  0  0  0
   14.2280    2.7092   21.9282 H   0  0  0  0  0  0  0  0  0  0  0  0
   11.7584    2.8056   22.0100 H   0  0  0  0  0  0  0  0  0  0  0  0
    4.4037    1.9731   17.4543 H   0  0  0  0  0  0  0  0  0  0  0  0
    5.7084    0.6923   22.1132 H   0  0  0  0  0  0  0  0  0  0  0  0
    8.6905   -2.3533   26.5810 H   0  0  0  0  0  0  0  0  0  0  0  0
    9.9266   -4.3896   22.9917 H   0  0  0  0  0  0  0  0  0  0  0  0
    8.9233   -0.1992   25.4232 H   0  0  0  0  0  0  0  0  0  0  0  0
   10.0650   -2.2330   21.8256 H   0  0  0  0  0  0  0  0  0  0  0  0
   15.4620    1.1305   23.3704 H   0  0  0  0  0  0  0  0  0  0  0  0
   11.7327   -0.2831   25.0033 H   0  0  0  0  0  0  0  0  0  0  0  0
    8.4862   -0.8060   18.1787 H   0  0  0  0  0  0  0  0  0  0  0  0
   10.0205   -3.9698   27.3609 H   0  0  0  0  0  0  0  0  0  0  0  0
   10.1535   -5.7310   27.1549 H   0  0  0  0  0  0  0  0  0  0  0  0
    9.1181   -6.7773   25.0755 H   0  0  0  0  0  0  0  0  0  0  0  0
    8.2812   -5.7064   23.9304 H   0  0  0  0  0  0  0  0  0  0  0  0
    8.3628   -5.2252   28.7611 H   0  0  0  0  0  0  0  0  0  0  0  0
    7.5530   -4.1570   27.6103 H   0  0  0  0  0  0  0  0  0  0  0  0
    6.5459   -5.1839   25.6221 H   0  0  0  0  0  0  0  0  0  0  0  0
    6.6948   -6.9354   25.4436 H   0  0  0  0  0  0  0  0  0  0  0  0
    9.7401    1.3200   24.6044 H   0  0  0  0  0  0  0  0  0  0  0  0
    9.7163    2.2391   23.0989 H   0  0  0  0  0  0  0  0  0  0  0  0
    8.2565   -1.5523   21.1108 H   0  0  0  0  0  0  0  0  0  0  0  0
  1  2  1  0  0  0  0
  1  5  2  0  0  0  0
  2  6  2  0  0  0  0
  3  4  2  0  0  0  0
  3 11  1  0  0  0  0
  4 14  1  0  0  0  0
  5 15  1  0  0  0  0
  6 16  1  0  0  0  0
  7  9  2  0  0  0  0
  7 17  1  0  0  0  0
  8 10  1  0  0  0  0
  8 17  2  0  0  0  0
  9 18  1  0  0  0  0
 10 18  2  0  0  0  0
 11 19  2  0  0  0  0
 12 14  2  0  0  0  0
 12 19  1  0  0  0  0
 13 26  2  0  0  0  0
 13 27  1  0  0  0  0
 14 25  1  0  0  0  0
 15 16  2  0  0  0  0
 15 26  1  0  0  0  0
 16 27  1  0  0  0  0
 17 28  1  0  0  0  0
 18 30  1  0  0  0  0
 19 33  1  0  0  0  0
 20 29  1  0  0  0  0
 20 30  1  0  0  0  0
 20 31  2  0  0  0  0
 21 23  1  0  0  0  0
 21 28  1  0  0  0  0
 22 24  1  0  0  0  0
 22 28  1  0  0  0  0
 23 32  1  0  0  0  0
 24 32  1  0  0  0  0
 25 30  1  0  0  0  0
 27 29  1  0  0  0  0
  1 34  1  0  0  0  0
  2 35  1  0  0  0  0
  3 36  1  0  0  0  0
  4 37  1  0  0  0  0
  5 38  1  0  0  0  0
  6 39  1  0  0  0  0
  7 40  1  0  0  0  0
  8 41  1  0  0  0  0
  9 42  1  0  0  0  0
 10 43  1  0  0  0  0
 11 44  1  0  0  0  0
 12 45  1  0  0  0  0
 13 46  1  0  0  0  0
 21 47  1  0  0  0  0
 21 48  1  0  0  0  0
 22 49  1  0  0  0  0
 22 50  1  0  0  0  0
 23 51  1  0  0  0  0
 23 52  1  0  0  0  0
 24 53  1  0  0  0  0
 24 54  1  0  0  0  0
 25 55  1  0  0  0  0
 25 56  1  0  0  0  0
 29 57  1  0  0  0  0
M  END
> <clash_score>
0.686935481487884

> <docking_score>
-7.966865062713623

> <overlap_score>
1.000719428062439

$$$$
BENZO_55_1
  -OEChem-08232013433D

 57 61  0     0  0  0  0  0  0999 V2000
    3.9160    2.0630   19.5520 C   0  0  0  0  0  0  0  0  0  0  0  0
    4.2750    1.7050   20.8490 C   0  0  0  0  0  0  0  0  0  0  0  0
    4.6890    1.6810   18.4640 C   0  0  0  0  0  0  0  0  0  0  0  0
    5.4210    0.9600   21.0930 C   0  0  0  0  0  0  0  0  0  0  0  0
    8.9960   -2.3380   25.5320 C   0  0  0  0  0  0  0  0  0  0  0  0
    9.6730   -3.4710   23.5300 C   0  0  0  0  0  0  0  0  0  0  0  0
    9.0720   -1.1280   24.8640 C   0  0  0  0  0  0  0  0  0  0  0  0
    9.7200   -2.2600   22.8630 C   0  0  0  0  0  0  0  0  0  0  0  0
   12.4566    2.0301   22.7113 C   0  0  0  0  0  0  0  0  0  0  0  0
   12.4248    0.4534   24.2435 C   0  0  0  0  0  0  0  0  0  0  0  0
    7.6390   -0.2680   18.5410 C   0  0  0  0  0  0  0  0  0  0  0  0
   11.5901    1.2648   23.5145 C   0  0  0  0  0  0  0  0  0  0  0  0
    5.8300    0.9190   18.6970 C   0  0  0  0  0  0  0  0  0  0  0  0
    6.1790    0.5730   19.9990 C   0  0  0  0  0  0  0  0  0  0  0  0
    9.3070   -3.5340   24.8780 C   0  0  0  0  0  0  0  0  0  0  0  0
    9.3350   -1.0880   23.5010 C   0  0  0  0  0  0  0  0  0  0  0  0
    9.0420    0.3700   21.5280 C   0  0  0  0  0  0  0  0  0  0  0  0
   10.0771   -5.0255   26.7193 C   0  0  0  0  0  0  0  0  0  0  0  0
    8.0926   -5.6195   25.4071 C   0  0  0  0  0  0  0  0  0  0  0  0
    9.1933   -4.9427   27.9592 C   0  0  0  0  0  0  0  0  0  0  0  0
    7.2756   -5.5290   26.6967 C   0  0  0  0  0  0  0  0  0  0  0  0
   14.9137    0.1787   24.3371 C   0  0  0  0  0  0  0  0  0  0  0  0
   10.0908    1.3225   23.5666 C   0  0  0  0  0  0  0  0  0  0  0  0
   13.7431    1.7318   22.9111 N   0  0  0  0  0  0  0  0  0  0  0  0
    6.7580    0.3810   17.8350 N   0  0  0  0  0  0  0  0  0  0  0  0
   13.6912    0.7700   23.8483 N   0  0  0  0  0  0  0  0  0  0  0  0
    7.3170   -0.1610   19.8550 N   0  0  0  0  0  0  0  0  0  0  0  0
    9.2563   -4.7368   25.5413 N   0  0  0  0  0  0  0  0  0  0  0  0
    8.1890   -0.7180   20.8700 N   0  0  0  0  0  0  0  0  0  0  0  0
    9.4560    0.1560   22.8130 N   0  0  0  0  0  0  0  0  0  0  0  0
    9.2690    1.4140   20.9380 O   0  0  0  0  0  0  0  0  0  0  0  0
    8.0883   -5.8459   27.8325 O   0  0  0  0  0  0  0  0  0  0  0  0
    3.0134    2.6521   19.3911 H   0  0  0  0  0  0  0  0  0  0  0  0
    3.6460    2.0127   21.6812 H   0  0  0  0  0  0  0  0  0  0  0  0
    4.4037    1.9731   17.4543 H   0  0  0  0  0  0  0  0  0  0  0  0
    5.7084    0.6923   22.1132 H   0  0  0  0  0  0  0  0  0  0  0  0
    8.6905   -2.3533   26.5810 H   0  0  0  0  0  0  0  0  0  0  0  0
    9.9266   -4.3896   22.9917 H   0  0  0  0  0  0  0  0  0  0  0  0
    8.9233   -0.1992   25.4232 H   0  0  0  0  0  0  0  0  0  0  0  0
   10.0650   -2.2330   21.8256 H   0  0  0  0  0  0  0  0  0  0  0  0
   12.2067    2.7940   21.9886 H   0  0  0  0  0  0  0  0  0  0  0  0
   12.2304   -0.3026   24.9922 H   0  0  0  0  0  0  0  0  0  0  0  0
    8.4862   -0.8060   18.1787 H   0  0  0  0  0  0  0  0  0  0  0  0
   10.8985   -4.3115   26.8085 H   0  0  0  0  0  0  0  0  0  0  0  0
   10.4915   -6.0334   26.6323 H   0  0  0  0  0  0  0  0  0  0  0  0
    8.4327   -6.6456   25.2620 H   0  0  0  0  0  0  0  0  0  0  0  0
    7.4725   -5.3241   24.5619 H   0  0  0  0  0  0  0  0  0  0  0  0
    9.7636   -5.2398   28.8419 H   0  0  0  0  0  0  0  0  0  0  0  0
    8.8236   -3.9268   28.1248 H   0  0  0  0  0  0  0  0  0  0  0  0
    6.8339   -4.5337   26.8232 H   0  0  0  0  0  0  0  0  0  0  0  0
    6.4550   -6.2521   26.6643 H   0  0  0  0  0  0  0  0  0  0  0  0
   15.1476   -0.6826   23.7059 H   0  0  0  0  0  0  0  0  0  0  0  0
   15.7192    0.9168   24.2904 H   0  0  0  0  0  0  0  0  0  0  0  0
   14.7739   -0.1337   25.3757 H   0  0  0  0  0  0  0  0  0  0  0  0
    9.7401    1.3200   24.6044 H   0  0  0  0  0  0  0  0  0  0  0  0
    9.7163    2.2391   23.0989 H   0  0  0  0  0  0  0  0  0  0  0  0
    8.2565   -1.5523   21.1108 H   0  0  0  0  0  0  0  0  0  0  0  0
  1  2  1  0  0  0  0
  1  3  2  0  0  0  0
  2  4  2  0  0  0  0
  3 13  1  0  0  0  0
  4 14  1  0  0  0  0
  5  7  2  0  0  0  0
  5 15  1  0  0  0  0
  6  8  1  0  0  0  0
  6 15  2  0  0  0  0
  7 16  1  0  0  0  0
  8 16  2  0  0  0  0
  9 12  1  0  0  0  0
  9 24  2  0  0  0  0
 10 12  2  0  0  0  0
 10 26  1  0  0  0  0
 11 25  2  0  0  0  0
 11 27  1  0  0  0  0
 12 23  1  0  0  0  0
 13 14  2  0  0  0  0
 13 25  1  0  0  0  0
 14 27  1  0  0  0  0
 15 28  1  0  0  0  0
 16 30  1  0  0  0  0
 17 29  1  0  0  0  0
 17 30  1  0  0  0  0
 17 31  2  0  0  0  0
 18 20  1  0  0  0  0
 18 28  1  0  0  0  0
 19 21  1  0  0  0  0
 19 28  1  0  0  0  0
 20 32  1  0  0  0  0
 21 32  1  0  0  0  0
 22 26  1  0  0  0  0
 23 30  1  0  0  0  0
 24 26  1  0  0  0  0
 27 29  1  0  0  0  0
  1 33  1  0  0  0  0
  2 34  1  0  0  0  0
  3 35  1  0  0  0  0
  4 36  1  0  0  0  0
  5 37  1  0  0  0  0
  6 38  1  0  0  0  0
  7 39  1  0  0  0  0
  8 40  1  0  0  0  0
  9 41  1  0  0  0  0
 10 42  1  0  0  0  0
 11 43  1  0  0  0  0
 18 44  1  0  0  0  0
 18 45  1  0  0  0  0
 19 46  1  0  0  0  0
 19 47  1  0  0  0  0
 20 48  1  0  0  0  0
 20 49  1  0  0  0  0
 21 50  1  0  0  0  0
 21 51  1  0  0  0  0
 22 52  1  0  0  0  0
 22 53  1  0  0  0  0
 22 54  1  0  0  0  0
 23 55  1  0  0  0  0
 23 56  1  0  0  0  0
 29 57  1  0  0  0  0
M  END
> <clash_score>
0

> <docking_score>
-8.832551956176758

> <overlap_score>
0.9950060248374939

$$$$
BENZO_59_1
  -OEChem-08232013433D

 52 55  0     0  0  0  0  0  0999 V2000
    4.2750    1.7050   20.8490 C   0  0  0  0  0  0  0  0  0  0  0  0
    3.9160    2.0630   19.5520 C   0  0  0  0  0  0  0  0  0  0  0  0
    5.4210    0.9600   21.0930 C   0  0  0  0  0  0  0  0  0  0  0  0
    4.6890    1.6810   18.4640 C   0  0  0  0  0  0  0  0  0  0  0  0
    9.0720   -1.1280   24.8640 C   0  0  0  0  0  0  0  0  0  0  0  0
    9.7200   -2.2600   22.8630 C   0  0  0  0  0  0  0  0  0  0  0  0
    8.9960   -2.3380   25.5320 C   0  0  0  0  0  0  0  0  0  0  0  0
    9.6730   -3.4710   23.5300 C   0  0  0  0  0  0  0  0  0  0  0  0
   12.4196    2.0953   23.0237 C   0  0  0  0  0  0  0  0  0  0  0  0
   12.2925    0.4312   24.4553 C   0  0  0  0  0  0  0  0  0  0  0  0
    6.1790    0.5730   19.9990 C   0  0  0  0  0  0  0  0  0  0  0  0
   11.5051    1.2687   23.7036 C   0  0  0  0  0  0  0  0  0  0  0  0
    5.8300    0.9190   18.6970 C   0  0  0  0  0  0  0  0  0  0  0  0
    9.3350   -1.0880   23.5010 C   0  0  0  0  0  0  0  0  0  0  0  0
    9.3070   -3.5340   24.8780 C   0  0  0  0  0  0  0  0  0  0  0  0
    7.3170   -0.1610   19.8550 C   0  0  0  0  0  0  0  0  0  0  0  0
    9.0420    0.3700   21.5280 C   0  0  0  0  0  0  0  0  0  0  0  0
   14.7698    0.1964   24.7497 C   0  0  0  0  0  0  0  0  0  0  0  0
    8.0128   -5.2151   26.1416 C   0  0  0  0  0  0  0  0  0  0  0  0
   10.4372   -5.5860   25.6589 C   0  0  0  0  0  0  0  0  0  0  0  0
   10.0059    1.2962   23.6279 C   0  0  0  0  0  0  0  0  0  0  0  0
   13.6907    1.8091   23.3177 N   0  0  0  0  0  0  0  0  0  0  0  0
    7.6390   -0.2680   18.5410 N   0  0  0  0  0  0  0  0  0  0  0  0
    6.7580    0.3810   17.8350 N   0  0  0  0  0  0  0  0  0  0  0  0
   13.5805    0.7932   24.1907 N   0  0  0  0  0  0  0  0  0  0  0  0
    8.1890   -0.7180   20.8700 N   0  0  0  0  0  0  0  0  0  0  0  0
    9.4560    0.1560   22.8130 N   0  0  0  0  0  0  0  0  0  0  0  0
    9.2543   -4.7552   25.5519 N   0  0  0  0  0  0  0  0  0  0  0  0
    9.2690    1.4140   20.9380 O   0  0  0  0  0  0  0  0  0  0  0  0
    3.6468    2.0173   21.6825 H   0  0  0  0  0  0  0  0  0  0  0  0
    3.0153    2.6527   19.3907 H   0  0  0  0  0  0  0  0  0  0  0  0
    5.7015    0.6980   22.1071 H   0  0  0  0  0  0  0  0  0  0  0  0
    4.4064    1.9744   17.4453 H   0  0  0  0  0  0  0  0  0  0  0  0
    8.9217   -0.1995   25.4232 H   0  0  0  0  0  0  0  0  0  0  0  0
   10.0643   -2.2341   21.8254 H   0  0  0  0  0  0  0  0  0  0  0  0
    8.6893   -2.3540   26.5808 H   0  0  0  0  0  0  0  0  0  0  0  0
    9.9257   -4.3898   22.9921 H   0  0  0  0  0  0  0  0  0  0  0  0
   12.2152    2.8956   22.3266 H   0  0  0  0  0  0  0  0  0  0  0  0
   12.0519   -0.3708   25.1401 H   0  0  0  0  0  0  0  0  0  0  0  0
   15.0768   -0.6221   24.0934 H   0  0  0  0  0  0  0  0  0  0  0  0
   15.5591    0.9504   24.8155 H   0  0  0  0  0  0  0  0  0  0  0  0
   14.5485   -0.1788   25.7528 H   0  0  0  0  0  0  0  0  0  0  0  0
    8.1744   -6.1904   26.6238 H   0  0  0  0  0  0  0  0  0  0  0  0
    7.6718   -4.4870   26.8924 H   0  0  0  0  0  0  0  0  0  0  0  0
    7.2494   -5.3166   25.3561 H   0  0  0  0  0  0  0  0  0  0  0  0
   10.1946   -6.4995   26.2216 H   0  0  0  0  0  0  0  0  0  0  0  0
   10.7865   -5.8577   24.6518 H   0  0  0  0  0  0  0  0  0  0  0  0
   11.2285   -5.0312   26.1842 H   0  0  0  0  0  0  0  0  0  0  0  0
    9.5675    1.2266   24.6294 H   0  0  0  0  0  0  0  0  0  0  0  0
    9.6520    2.2318   23.1823 H   0  0  0  0  0  0  0  0  0  0  0  0
    6.8044    0.4388   16.8592 H   0  0  0  0  0  0  0  0  0  0  0  0
    8.2409   -1.5618   21.0967 H   0  0  0  0  0  0  0  0  0  0  0  0
  1  2  1  0  0  0  0
  1  3  2  0  0  0  0
  2  4  2  0  0  0  0
  3 11  1  0  0  0  0
  4 13  1  0  0  0  0
  5  7  2  0  0  0  0
  5 14  1  0  0  0  0
  6  8  1  0  0  0  0
  6 14  2  0  0  0  0
  7 15  1  0  0  0  0
  8 15  2  0  0  0  0
  9 12  1  0  0  0  0
  9 22  2  0  0  0  0
 10 12  2  0  0  0  0
 10 25  1  0  0  0  0
 11 13  2  0  0  0  0
 11 16  1  0  0  0  0
 12 21  1  0  0  0  0
 13 24  1  0  0  0  0
 14 27  1  0  0  0  0
 15 28  1  0  0  0  0
 16 23  2  0  0  0  0
 16 26  1  0  0  0  0
 17 26  1  0  0  0  0
 17 27  1  0  0  0  0
 17 29  2  0  0  0  0
 18 25  1  0  0  0  0
 19 28  1  0  0  0  0
 20 28  1  0  0  0  0
 21 27  1  0  0  0  0
 22 25  1  0  0  0  0
 23 24  1  0  0  0  0
  1 30  1  0  0  0  0
  2 31  1  0  0  0  0
  3 32  1  0  0  0  0
  4 33  1  0  0  0  0
  5 34  1  0  0  0  0
  6 35  1  0  0  0  0
  7 36  1  0  0  0  0
  8 37  1  0  0  0  0
  9 38  1  0  0  0  0
 10 39  1  0  0  0  0
 18 40  1  0  0  0  0
 18 41  1  0  0  0  0
 18 42  1  0  0  0  0
 19 43  1  0  0  0  0
 19 44  1  0  0  0  0
 19 45  1  0  0  0  0
 20 46  1  0  0  0  0
 20 47  1  0  0  0  0
 20 48  1  0  0  0  0
 21 49  1  0  0  0  0
 21 50  1  0  0  0  0
 24 51  1  0  0  0  0
 26 52  1  0  0  0  0
M  END
> <clash_score>
0

> <docking_score>
-8.357868194580078

> <overlap_score>
0.9770057201385498

$$$$
BENZO_58_1
  -OEChem-08232013433D

 52 55  0     0  0  0  0  0  0999 V2000
    4.2750    1.7050   20.8490 C   0  0  0  0  0  0  0  0  0  0  0  0
    3.9160    2.0630   19.5520 C   0  0  0  0  0  0  0  0  0  0  0  0
   13.6502    2.1475   23.0230 C   0  0  0  0  0  0  0  0  0  0  0  0
    5.4210    0.9600   21.0930 C   0  0  0  0  0  0  0  0  0  0  0  0
   12.2574    2.1717   22.9523 C   0  0  0  0  0  0  0  0  0  0  0  0
    4.6890    1.6810   18.4640 C   0  0  0  0  0  0  0  0  0  0  0  0
    9.0720   -1.1280   24.8640 C   0  0  0  0  0  0  0  0  0  0  0  0
    9.7200   -2.2600   22.8630 C   0  0  0  0  0  0  0  0  0  0  0  0
    8.9960   -2.3380   25.5320 C   0  0  0  0  0  0  0  0  0  0  0  0
    9.6730   -3.4710   23.5300 C   0  0  0  0  0  0  0  0  0  0  0  0
   14.2909    1.2202   23.8448 C   0  0  0  0  0  0  0  0  0  0  0  0
   12.1457    0.3414   24.5254 C   0  0  0  0  0  0  0  0  0  0  0  0
    6.1790    0.5730   19.9990 C   0  0  0  0  0  0  0  0  0  0  0  0
   11.5051    1.2687   23.7036 C   0  0  0  0  0  0  0  0  0  0  0  0
    5.8300    0.9190   18.6970 C   0  0  0  0  0  0  0  0  0  0  0  0
    9.3350   -1.0880   23.5010 C   0  0  0  0  0  0  0  0  0  0  0  0
    9.3070   -3.5340   24.8780 C   0  0  0  0  0  0  0  0  0  0  0  0
   13.5386    0.3171   24.5960 C   0  0  0  0  0  0  0  0  0  0  0  0
    7.3170   -0.1610   19.8550 C   0  0  0  0  0  0  0  0  0  0  0  0
    9.0420    0.3700   21.5280 C   0  0  0  0  0  0  0  0  0  0  0  0
    8.0128   -5.2151   26.1416 C   0  0  0  0  0  0  0  0  0  0  0  0
   10.4372   -5.5860   25.6589 C   0  0  0  0  0  0  0  0  0  0  0  0
   10.0059    1.2962   23.6279 C   0  0  0  0  0  0  0  0  0  0  0  0
    7.6390   -0.2680   18.5410 N   0  0  0  0  0  0  0  0  0  0  0  0
    6.7580    0.3810   17.8350 N   0  0  0  0  0  0  0  0  0  0  0  0
    8.1890   -0.7180   20.8700 N   0  0  0  0  0  0  0  0  0  0  0  0
    9.4560    0.1560   22.8130 N   0  0  0  0  0  0  0  0  0  0  0  0
    9.2543   -4.7552   25.5519 N   0  0  0  0  0  0  0  0  0  0  0  0
    9.2690    1.4140   20.9380 O   0  0  0  0  0  0  0  0  0  0  0  0
   14.3296   -0.8260   25.6106 Cl  0  0  0  0  0  0  0  0  0  0  0  0
    3.6468    2.0173   21.6825 H   0  0  0  0  0  0  0  0  0  0  0  0
    3.0153    2.6527   19.3907 H   0  0  0  0  0  0  0  0  0  0  0  0
   14.2356    2.8510   22.4380 H   0  0  0  0  0  0  0  0  0  0  0  0
    5.7015    0.6980   22.1071 H   0  0  0  0  0  0  0  0  0  0  0  0
   11.7666    2.8978   22.3094 H   0  0  0  0  0  0  0  0  0  0  0  0
    4.4064    1.9744   17.4453 H   0  0  0  0  0  0  0  0  0  0  0  0
    8.9217   -0.1995   25.4232 H   0  0  0  0  0  0  0  0  0  0  0  0
   10.0643   -2.2341   21.8254 H   0  0  0  0  0  0  0  0  0  0  0  0
    8.6893   -2.3540   26.5808 H   0  0  0  0  0  0  0  0  0  0  0  0
    9.9257   -4.3898   22.9921 H   0  0  0  0  0  0  0  0  0  0  0  0
   15.3771    1.2130   23.8902 H   0  0  0  0  0  0  0  0  0  0  0  0
   11.5548   -0.3609   25.1088 H   0  0  0  0  0  0  0  0  0  0  0  0
    8.1744   -6.1904   26.6238 H   0  0  0  0  0  0  0  0  0  0  0  0
    7.6718   -4.4870   26.8924 H   0  0  0  0  0  0  0  0  0  0  0  0
    7.2494   -5.3166   25.3561 H   0  0  0  0  0  0  0  0  0  0  0  0
   10.1946   -6.4995   26.2216 H   0  0  0  0  0  0  0  0  0  0  0  0
   10.7865   -5.8577   24.6518 H   0  0  0  0  0  0  0  0  0  0  0  0
   11.2285   -5.0312   26.1842 H   0  0  0  0  0  0  0  0  0  0  0  0
    9.5675    1.2266   24.6294 H   0  0  0  0  0  0  0  0  0  0  0  0
    9.6520    2.2318   23.1823 H   0  0  0  0  0  0  0  0  0  0  0  0
    6.8044    0.4388   16.8592 H   0  0  0  0  0  0  0  0  0  0  0  0
    8.2409   -1.5618   21.0967 H   0  0  0  0  0  0  0  0  0  0  0  0
  1  2  1  0  0  0  0
  1  4  2  0  0  0  0
  2  6  2  0  0  0  0
  3  5  2  0  0  0  0
  3 11  1  0  0  0  0
  4 13  1  0  0  0  0
  5 14  1  0  0  0  0
  6 15  1  0  0  0  0
  7  9  2  0  0  0  0
  7 16  1  0  0  0  0
  8 10  1  0  0  0  0
  8 16  2  0  0  0  0
  9 17  1  0  0  0  0
 10 17  2  0  0  0  0
 11 18  2  0  0  0  0
 12 14  2  0  0  0  0
 12 18  1  0  0  0  0
 13 15  2  0  0  0  0
 13 19  1  0  0  0  0
 14 23  1  0  0  0  0
 15 25  1  0  0  0  0
 16 27  1  0  0  0  0
 17 28  1  0  0  0  0
 18 30  1  0  0  0  0
 19 24  2  0  0  0  0
 19 26  1  0  0  0  0
 20 26  1  0  0  0  0
 20 27  1  0  0  0  0
 20 29  2  0  0  0  0
 21 28  1  0  0  0  0
 22 28  1  0  0  0  0
 23 27  1  0  0  0  0
 24 25  1  0  0  0  0
  1 31  1  0  0  0  0
  2 32  1  0  0  0  0
  3 33  1  0  0  0  0
  4 34  1  0  0  0  0
  5 35  1  0  0  0  0
  6 36  1  0  0  0  0
  7 37  1  0  0  0  0
  8 38  1  0  0  0  0
  9 39  1  0  0  0  0
 10 40  1  0  0  0  0
 11 41  1  0  0  0  0
 12 42  1  0  0  0  0
 21 43  1  0  0  0  0
 21 44  1  0  0  0  0
 21 45  1  0  0  0  0
 22 46  1  0  0  0  0
 22 47  1  0  0  0  0
 22 48  1  0  0  0  0
 23 49  1  0  0  0  0
 23 50  1  0  0  0  0
 25 51  1  0  0  0  0
 26 52  1  0  0  0  0
M  END
> <clash_score>
0.6657049438822022

> <docking_score>
-7.607782363891602

> <overlap_score>
0.9811633825302124

$$$$
BENZO_60_1
  -OEChem-08232013443D

 51 54  0     0  0  0  0  0  0999 V2000
    4.2750    1.7050   20.8490 C   0  0  0  0  0  0  0  0  0  0  0  0
    3.9160    2.0630   19.5520 C   0  0  0  0  0  0  0  0  0  0  0  0
    5.4210    0.9600   21.0930 C   0  0  0  0  0  0  0  0  0  0  0  0
    4.6890    1.6810   18.4640 C   0  0  0  0  0  0  0  0  0  0  0  0
    8.9960   -2.3380   25.5320 C   0  0  0  0  0  0  0  0  0  0  0  0
    9.6730   -3.4710   23.5300 C   0  0  0  0  0  0  0  0  0  0  0  0
    9.0720   -1.1280   24.8640 C   0  0  0  0  0  0  0  0  0  0  0  0
    9.7200   -2.2600   22.8630 C   0  0  0  0  0  0  0  0  0  0  0  0
   12.3157    2.4334   23.8330 C   0  0  0  0  0  0  0  0  0  0  0  0
   13.6579    2.1272   23.8789 C   0  0  0  0  0  0  0  0  0  0  0  0
   12.2590    0.1166   23.6552 C   0  0  0  0  0  0  0  0  0  0  0  0
    6.1790    0.5730   19.9990 C   0  0  0  0  0  0  0  0  0  0  0  0
   11.5051    1.2687   23.7036 C   0  0  0  0  0  0  0  0  0  0  0  0
    5.8300    0.9190   18.6970 C   0  0  0  0  0  0  0  0  0  0  0  0
    9.3070   -3.5340   24.8780 C   0  0  0  0  0  0  0  0  0  0  0  0
    9.3350   -1.0880   23.5010 C   0  0  0  0  0  0  0  0  0  0  0  0
    7.3170   -0.1610   19.8550 C   0  0  0  0  0  0  0  0  0  0  0  0
    9.5334   -6.0236   25.0414 C   0  0  0  0  0  0  0  0  0  0  0  0
    9.0420    0.3700   21.5280 C   0  0  0  0  0  0  0  0  0  0  0  0
   10.6330   -7.3746   26.8775 C   0  0  0  0  0  0  0  0  0  0  0  0
   10.0059    1.2962   23.6279 C   0  0  0  0  0  0  0  0  0  0  0  0
    9.3523   -7.0865   26.1149 C   0  0  0  0  0  0  0  0  0  0  0  0
    7.6390   -0.2680   18.5410 N   0  0  0  0  0  0  0  0  0  0  0  0
    6.7580    0.3810   17.8350 N   0  0  0  0  0  0  0  0  0  0  0  0
    9.2546   -4.7422   25.5438 N   0  0  0  0  0  0  0  0  0  0  0  0
    8.1890   -0.7180   20.8700 N   0  0  0  0  0  0  0  0  0  0  0  0
    9.4560    0.1560   22.8130 N   0  0  0  0  0  0  0  0  0  0  0  0
    9.8806   -6.3053   23.8992 O   0  0  0  0  0  0  0  0  0  0  0  0
    9.2690    1.4140   20.9380 O   0  0  0  0  0  0  0  0  0  0  0  0
   13.9366    0.4414   23.7659 S   0  0  0  0  0  0  0  0  0  0  0  0
    3.6468    2.0173   21.6825 H   0  0  0  0  0  0  0  0  0  0  0  0
    3.0153    2.6527   19.3907 H   0  0  0  0  0  0  0  0  0  0  0  0
    5.7015    0.6980   22.1071 H   0  0  0  0  0  0  0  0  0  0  0  0
    4.4064    1.9744   17.4453 H   0  0  0  0  0  0  0  0  0  0  0  0
    8.6895   -2.3529   26.5807 H   0  0  0  0  0  0  0  0  0  0  0  0
    9.9262   -4.3897   22.9916 H   0  0  0  0  0  0  0  0  0  0  0  0
    8.9224   -0.1998   25.4238 H   0  0  0  0  0  0  0  0  0  0  0  0
   10.0649   -2.2343   21.8258 H   0  0  0  0  0  0  0  0  0  0  0  0
   11.9375    3.4463   23.8895 H   0  0  0  0  0  0  0  0  0  0  0  0
   14.4883    2.8127   23.9725 H   0  0  0  0  0  0  0  0  0  0  0  0
   11.9089   -0.9019   23.5590 H   0  0  0  0  0  0  0  0  0  0  0  0
   11.4241   -7.7171   26.2024 H   0  0  0  0  0  0  0  0  0  0  0  0
   10.4629   -8.1530   27.6277 H   0  0  0  0  0  0  0  0  0  0  0  0
   10.9949   -6.4779   27.3912 H   0  0  0  0  0  0  0  0  0  0  0  0
    9.5675    1.2266   24.6294 H   0  0  0  0  0  0  0  0  0  0  0  0
    9.6520    2.2318   23.1823 H   0  0  0  0  0  0  0  0  0  0  0  0
    8.5795   -6.7463   26.8138 H   0  0  0  0  0  0  0  0  0  0  0  0
    8.9966   -8.0064   25.6368 H   0  0  0  0  0  0  0  0  0  0  0  0
    6.8044    0.4388   16.8592 H   0  0  0  0  0  0  0  0  0  0  0  0
    8.9776   -4.7057   26.5317 H   0  0  0  0  0  0  0  0  0  0  0  0
    8.2409   -1.5618   21.0967 H   0  0  0  0  0  0  0  0  0  0  0  0
  1  2  1  0  0  0  0
  1  3  2  0  0  0  0
  2  4  2  0  0  0  0
  3 12  1  0  0  0  0
  4 14  1  0  0  0  0
  5  7  2  0  0  0  0
  5 15  1  0  0  0  0
  6  8  1  0  0  0  0
  6 15  2  0  0  0  0
  7 16  1  0  0  0  0
  8 16  2  0  0  0  0
  9 10  2  0  0  0  0
  9 13  1  0  0  0  0
 10 30  1  0  0  0  0
 11 13  2  0  0  0  0
 11 30  1  0  0  0  0
 12 14  2  0  0  0  0
 12 17  1  0  0  0  0
 13 21  1  0  0  0  0
 14 24  1  0  0  0  0
 15 25  1  0  0  0  0
 16 27  1  0  0  0  0
 17 23  2  0  0  0  0
 17 26  1  0  0  0  0
 18 22  1  0  0  0  0
 18 25  1  0  0  0  0
 18 28  2  0  0  0  0
 19 26  1  0  0  0  0
 19 27  1  0  0  0  0
 19 29  2  0  0  0  0
 20 22  1  0  0  0  0
 21 27  1  0  0  0  0
 23 24  1  0  0  0  0
  1 31  1  0  0  0  0
  2 32  1  0  0  0  0
  3 33  1  0  0  0  0
  4 34  1  0  0  0  0
  5 35  1  0  0  0  0
  6 36  1  0  0  0  0
  7 37  1  0  0  0  0
  8 38  1  0  0  0  0
  9 39  1  0  0  0  0
 10 40  1  0  0  0  0
 11 41  1  0  0  0  0
 20 42  1  0  0  0  0
 20 43  1  0  0  0  0
 20 44  1  0  0  0  0
 21 45  1  0  0  0  0
 21 46  1  0  0  0  0
 22 47  1  0  0  0  0
 22 48  1  0  0  0  0
 24 49  1  0  0  0  0
 25 50  1  0  0  0  0
 26 51  1  0  0  0  0
M  END
> <clash_score>
1.4986627179605445

> <docking_score>
-4.61224365234375

> <overlap_score>
0.96605384349823

$$$$
BENZO_61_1
  -OEChem-08232013443D

 54 57  0     0  0  0  0  0  0999 V2000
   14.2909    1.2180   23.8427 C   0  0  0  0  0  0  0  0  0  0  0  0
    4.2750    1.7050   20.8490 C   0  0  0  0  0  0  0  0  0  0  0  0
   13.5324    0.5493   24.8034 C   0  0  0  0  0  0  0  0  0  0  0  0
   13.6566    1.9121   22.8124 C   0  0  0  0  0  0  0  0  0  0  0  0
    3.9160    2.0630   19.5520 C   0  0  0  0  0  0  0  0  0  0  0  0
    5.4210    0.9600   21.0930 C   0  0  0  0  0  0  0  0  0  0  0  0
   12.1395    0.5746   24.7339 C   0  0  0  0  0  0  0  0  0  0  0  0
   12.2637    1.9375   22.7428 C   0  0  0  0  0  0  0  0  0  0  0  0
    4.6890    1.6810   18.4640 C   0  0  0  0  0  0  0  0  0  0  0  0
    8.9960   -2.3380   25.5320 C   0  0  0  0  0  0  0  0  0  0  0  0
    9.6730   -3.4710   23.5300 C   0  0  0  0  0  0  0  0  0  0  0  0
    9.0720   -1.1280   24.8640 C   0  0  0  0  0  0  0  0  0  0  0  0
    9.7200   -2.2600   22.8630 C   0  0  0  0  0  0  0  0  0  0  0  0
    6.1790    0.5730   19.9990 C   0  0  0  0  0  0  0  0  0  0  0  0
   11.5051    1.2687   23.7036 C   0  0  0  0  0  0  0  0  0  0  0  0
    5.8300    0.9190   18.6970 C   0  0  0  0  0  0  0  0  0  0  0  0
    9.3070   -3.5340   24.8780 C   0  0  0  0  0  0  0  0  0  0  0  0
    9.3350   -1.0880   23.5010 C   0  0  0  0  0  0  0  0  0  0  0  0
    7.3170   -0.1610   19.8550 C   0  0  0  0  0  0  0  0  0  0  0  0
    9.5334   -6.0236   25.0414 C   0  0  0  0  0  0  0  0  0  0  0  0
    9.0420    0.3700   21.5280 C   0  0  0  0  0  0  0  0  0  0  0  0
   10.6330   -7.3746   26.8775 C   0  0  0  0  0  0  0  0  0  0  0  0
   10.0059    1.2962   23.6279 C   0  0  0  0  0  0  0  0  0  0  0  0
    9.3523   -7.0865   26.1149 C   0  0  0  0  0  0  0  0  0  0  0  0
    7.6390   -0.2680   18.5410 N   0  0  0  0  0  0  0  0  0  0  0  0
    6.7580    0.3810   17.8350 N   0  0  0  0  0  0  0  0  0  0  0  0
    9.2546   -4.7422   25.5438 N   0  0  0  0  0  0  0  0  0  0  0  0
    8.1890   -0.7180   20.8700 N   0  0  0  0  0  0  0  0  0  0  0  0
    9.4560    0.1560   22.8130 N   0  0  0  0  0  0  0  0  0  0  0  0
    9.8806   -6.3053   23.8992 O   0  0  0  0  0  0  0  0  0  0  0  0
    9.2690    1.4140   20.9380 O   0  0  0  0  0  0  0  0  0  0  0  0
   15.3755    1.1993   23.8978 H   0  0  0  0  0  0  0  0  0  0  0  0
    3.6468    2.0173   21.6825 H   0  0  0  0  0  0  0  0  0  0  0  0
   14.0261    0.0096   25.6063 H   0  0  0  0  0  0  0  0  0  0  0  0
   14.2468    2.4338   22.0649 H   0  0  0  0  0  0  0  0  0  0  0  0
    3.0153    2.6527   19.3907 H   0  0  0  0  0  0  0  0  0  0  0  0
    5.7015    0.6980   22.1071 H   0  0  0  0  0  0  0  0  0  0  0  0
   11.5566    0.0505   25.4867 H   0  0  0  0  0  0  0  0  0  0  0  0
   11.7781    2.4807   21.9365 H   0  0  0  0  0  0  0  0  0  0  0  0
    4.4064    1.9744   17.4453 H   0  0  0  0  0  0  0  0  0  0  0  0
    8.6895   -2.3529   26.5807 H   0  0  0  0  0  0  0  0  0  0  0  0
    9.9262   -4.3897   22.9916 H   0  0  0  0  0  0  0  0  0  0  0  0
    8.9224   -0.1998   25.4238 H   0  0  0  0  0  0  0  0  0  0  0  0
   10.0649   -2.2343   21.8258 H   0  0  0  0  0  0  0  0  0  0  0  0
   11.4241   -7.7171   26.2024 H   0  0  0  0  0  0  0  0  0  0  0  0
   10.4629   -8.1530   27.6277 H   0  0  0  0  0  0  0  0  0  0  0  0
   10.9949   -6.4779   27.3912 H   0  0  0  0  0  0  0  0  0  0  0  0
    9.5675    1.2266   24.6294 H   0  0  0  0  0  0  0  0  0  0  0  0
    9.6520    2.2318   23.1823 H   0  0  0  0  0  0  0  0  0  0  0  0
    8.5795   -6.7463   26.8138 H   0  0  0  0  0  0  0  0  0  0  0  0
    8.9966   -8.0064   25.6368 H   0  0  0  0  0  0  0  0  0  0  0  0
    6.8044    0.4388   16.8592 H   0  0  0  0  0  0  0  0  0  0  0  0
    8.9776   -4.7057   26.5317 H   0  0  0  0  0  0  0  0  0  0  0  0
    8.2409   -1.5618   21.0967 H   0  0  0  0  0  0  0  0  0  0  0  0
  1  3  1  0  0  0  0
  1  4  2  0  0  0  0
  2  5  1  0  0  0  0
  2  6  2  0  0  0  0
  3  7  2  0  0  0  0
  4  8  1  0  0  0  0
  5  9  2  0  0  0  0
  6 14  1  0  0  0  0
  7 15  1  0  0  0  0
  8 15  2  0  0  0  0
  9 16  1  0  0  0  0
 10 12  2  0  0  0  0
 10 17  1  0  0  0  0
 11 13  1  0  0  0  0
 11 17  2  0  0  0  0
 12 18  1  0  0  0  0
 13 18  2  0  0  0  0
 14 16  2  0  0  0  0
 14 19  1  0  0  0  0
 15 23  1  0  0  0  0
 16 26  1  0  0  0  0
 17 27  1  0  0  0  0
 18 29  1  0  0  0  0
 19 25  2  0  0  0  0
 19 28  1  0  0  0  0
 20 24  1  0  0  0  0
 20 27  1  0  0  0  0
 20 30  2  0  0  0  0
 21 28  1  0  0  0  0
 21 29  1  0  0  0  0
 21 31  2  0  0  0  0
 22 24  1  0  0  0  0
 23 29  1  0  0  0  0
 25 26  1  0  0  0  0
  1 32  1  0  0  0  0
  2 33  1  0  0  0  0
  3 34  1  0  0  0  0
  4 35  1  0  0  0  0
  5 36  1  0  0  0  0
  6 37  1  0  0  0  0
  7 38  1  0  0  0  0
  8 39  1  0  0  0  0
  9 40  1  0  0  0  0
 10 41  1  0  0  0  0
 11 42  1  0  0  0  0
 12 43  1  0  0  0  0
 13 44  1  0  0  0  0
 22 45  1  0  0  0  0
 22 46  1  0  0  0  0
 22 47  1  0  0  0  0
 23 48  1  0  0  0  0
 23 49  1  0  0  0  0
 24 50  1  0  0  0  0
 24 51  1  0  0  0  0
 26 52  1  0  0  0  0
 27 53  1  0  0  0  0
 28 54  1  0  0  0  0
M  END
> <clash_score>
1.4986627179605445

> <docking_score>
-5.5827484130859375

> <overlap_score>
0.9793186187744141

$$$$
BENZO_65_1
  -OEChem-08232013443D

 59 63  0     0  0  0  0  0  0999 V2000
   14.2935    1.3712   23.7867 C   0  0  0  0  0  0  0  0  0  0  0  0
    4.2750    1.7050   20.8490 C   0  0  0  0  0  0  0  0  0  0  0  0
   13.5637    0.6911   24.7616 C   0  0  0  0  0  0  0  0  0  0  0  0
   13.6297    2.0345   22.7546 C   0  0  0  0  0  0  0  0  0  0  0  0
    3.9160    2.0630   19.5520 C   0  0  0  0  0  0  0  0  0  0  0  0
    5.4210    0.9600   21.0930 C   0  0  0  0  0  0  0  0  0  0  0  0
   12.1701    0.6742   24.7044 C   0  0  0  0  0  0  0  0  0  0  0  0
   12.2361    2.0176   22.6974 C   0  0  0  0  0  0  0  0  0  0  0  0
    4.6890    1.6810   18.4640 C   0  0  0  0  0  0  0  0  0  0  0  0
    8.9960   -2.3380   25.5320 C   0  0  0  0  0  0  0  0  0  0  0  0
    9.6730   -3.4710   23.5300 C   0  0  0  0  0  0  0  0  0  0  0  0
    9.0720   -1.1280   24.8640 C   0  0  0  0  0  0  0  0  0  0  0  0
    9.7200   -2.2600   22.8630 C   0  0  0  0  0  0  0  0  0  0  0  0
    6.1790    0.5730   19.9990 C   0  0  0  0  0  0  0  0  0  0  0  0
   11.5063    1.3375   23.6723 C   0  0  0  0  0  0  0  0  0  0  0  0
    5.8300    0.9190   18.6970 C   0  0  0  0  0  0  0  0  0  0  0  0
    9.3070   -3.5340   24.8780 C   0  0  0  0  0  0  0  0  0  0  0  0
    9.3350   -1.0880   23.5010 C   0  0  0  0  0  0  0  0  0  0  0  0
    7.3170   -0.1610   19.8550 C   0  0  0  0  0  0  0  0  0  0  0  0
    9.0420    0.3700   21.5280 C   0  0  0  0  0  0  0  0  0  0  0  0
    7.3635   -6.1361   27.1888 C   0  0  0  0  0  0  0  0  0  0  0  0
    8.1961   -4.9735   27.7341 C   0  0  0  0  0  0  0  0  0  0  0  0
    7.1942   -6.0394   25.6709 C   0  0  0  0  0  0  0  0  0  0  0  0
    9.5196   -4.8490   26.9797 C   0  0  0  0  0  0  0  0  0  0  0  0
    8.5442   -5.8838   24.9639 C   0  0  0  0  0  0  0  0  0  0  0  0
   10.0063    1.3195   23.6101 C   0  0  0  0  0  0  0  0  0  0  0  0
    7.6390   -0.2680   18.5410 N   0  0  0  0  0  0  0  0  0  0  0  0
    6.7580    0.3810   17.8350 N   0  0  0  0  0  0  0  0  0  0  0  0
    9.2562   -4.7384   25.5422 N   0  0  0  0  0  0  0  0  0  0  0  0
    8.1890   -0.7180   20.8700 N   0  0  0  0  0  0  0  0  0  0  0  0
    9.4560    0.1560   22.8130 N   0  0  0  0  0  0  0  0  0  0  0  0
    9.2690    1.4140   20.9380 O   0  0  0  0  0  0  0  0  0  0  0  0
   15.3785    1.3854   23.8321 H   0  0  0  0  0  0  0  0  0  0  0  0
    3.6468    2.0173   21.6825 H   0  0  0  0  0  0  0  0  0  0  0  0
   14.0803    0.1755   25.5659 H   0  0  0  0  0  0  0  0  0  0  0  0
   14.1975    2.5650   21.9960 H   0  0  0  0  0  0  0  0  0  0  0  0
    3.0153    2.6527   19.3907 H   0  0  0  0  0  0  0  0  0  0  0  0
    5.7015    0.6980   22.1071 H   0  0  0  0  0  0  0  0  0  0  0  0
   11.6097    0.1416   25.4683 H   0  0  0  0  0  0  0  0  0  0  0  0
   11.7275    2.5370   21.8896 H   0  0  0  0  0  0  0  0  0  0  0  0
    4.4064    1.9744   17.4453 H   0  0  0  0  0  0  0  0  0  0  0  0
    8.6905   -2.3533   26.5810 H   0  0  0  0  0  0  0  0  0  0  0  0
    9.9266   -4.3896   22.9917 H   0  0  0  0  0  0  0  0  0  0  0  0
    8.9233   -0.1992   25.4231 H   0  0  0  0  0  0  0  0  0  0  0  0
   10.0650   -2.2330   21.8256 H   0  0  0  0  0  0  0  0  0  0  0  0
    7.8482   -7.0901   27.4469 H   0  0  0  0  0  0  0  0  0  0  0  0
    6.3760   -6.1438   27.6724 H   0  0  0  0  0  0  0  0  0  0  0  0
    7.6307   -4.0424   27.6403 H   0  0  0  0  0  0  0  0  0  0  0  0
    8.3915   -5.1310   28.7968 H   0  0  0  0  0  0  0  0  0  0  0  0
    6.6888   -6.9376   25.3010 H   0  0  0  0  0  0  0  0  0  0  0  0
    6.5515   -5.1859   25.4257 H   0  0  0  0  0  0  0  0  0  0  0  0
   10.0492   -3.9640   27.3414 H   0  0  0  0  0  0  0  0  0  0  0  0
   10.1431   -5.7254   27.1778 H   0  0  0  0  0  0  0  0  0  0  0  0
    9.1338   -6.7931   25.0868 H   0  0  0  0  0  0  0  0  0  0  0  0
    8.3656   -5.7264   23.8998 H   0  0  0  0  0  0  0  0  0  0  0  0
    9.5785    1.2746   24.6176 H   0  0  0  0  0  0  0  0  0  0  0  0
    9.6218    2.2274   23.1337 H   0  0  0  0  0  0  0  0  0  0  0  0
    6.8044    0.4388   16.8592 H   0  0  0  0  0  0  0  0  0  0  0  0
    8.2565   -1.5523   21.1108 H   0  0  0  0  0  0  0  0  0  0  0  0
  1  3  1  0  0  0  0
  1  4  2  0  0  0  0
  2  5  1  0  0  0  0
  2  6  2  0  0  0  0
  3  7  2  0  0  0  0
  4  8  1  0  0  0  0
  5  9  2  0  0  0  0
  6 14  1  0  0  0  0
  7 15  1  0  0  0  0
  8 15  2  0  0  0  0
  9 16  1  0  0  0  0
 10 12  2  0  0  0  0
 10 17  1  0  0  0  0
 11 13  1  0  0  0  0
 11 17  2  0  0  0  0
 12 18  1  0  0  0  0
 13 18  2  0  0  0  0
 14 16  2  0  0  0  0
 14 19  1  0  0  0  0
 15 26  1  0  0  0  0
 16 28  1  0  0  0  0
 17 29  1  0  0  0  0
 18 31  1  0  0  0  0
 19 27  2  0  0  0  0
 19 30  1  0  0  0  0
 20 30  1  0  0  0  0
 20 31  1  0  0  0  0
 20 32  2  0  0  0  0
 21 22  1  0  0  0  0
 21 23  1  0  0  0  0
 22 24  1  0  0  0  0
 23 25  1  0  0  0  0
 24 29  1  0  0  0  0
 25 29  1  0  0  0  0
 26 31  1  0  0  0  0
 27 28  1  0  0  0  0
  1 33  1  0  0  0  0
  2 34  1  0  0  0  0
  3 35  1  0  0  0  0
  4 36  1  0  0  0  0
  5 37  1  0  0  0  0
  6 38  1  0  0  0  0
  7 39  1  0  0  0  0
  8 40  1  0  0  0  0
  9 41  1  0  0  0  0
 10 42  1  0  0  0  0
 11 43  1  0  0  0  0
 12 44  1  0  0  0  0
 13 45  1  0  0  0  0
 21 46  1  0  0  0  0
 21 47  1  0  0  0  0
 22 48  1  0  0  0  0
 22 49  1  0  0  0  0
 23 50  1  0  0  0  0
 23 51  1  0  0  0  0
 24 52  1  0  0  0  0
 24 53  1  0  0  0  0
 25 54  1  0  0  0  0
 25 55  1  0  0  0  0
 26 56  1  0  0  0  0
 26 57  1  0  0  0  0
 28 58  1  0  0  0  0
 30 59  1  0  0  0  0
M  END
> <clash_score>
0

> <docking_score>
-7.843269348144531

> <overlap_score>
0.9949210286140442

$$$$
BENZO_62_1
  -OEChem-08232013443D

 54 57  0     0  0  0  0  0  0999 V2000
    4.2750    1.7050   20.8490 C   0  0  0  0  0  0  0  0  0  0  0  0
    3.9160    2.0630   19.5520 C   0  0  0  0  0  0  0  0  0  0  0  0
   13.6502    2.1475   23.0230 C   0  0  0  0  0  0  0  0  0  0  0  0
    5.4210    0.9600   21.0930 C   0  0  0  0  0  0  0  0  0  0  0  0
   12.2574    2.1717   22.9523 C   0  0  0  0  0  0  0  0  0  0  0  0
    4.6890    1.6810   18.4640 C   0  0  0  0  0  0  0  0  0  0  0  0
    8.9960   -2.3380   25.5320 C   0  0  0  0  0  0  0  0  0  0  0  0
    9.6730   -3.4710   23.5300 C   0  0  0  0  0  0  0  0  0  0  0  0
    9.0720   -1.1280   24.8640 C   0  0  0  0  0  0  0  0  0  0  0  0
    9.7200   -2.2600   22.8630 C   0  0  0  0  0  0  0  0  0  0  0  0
   14.2909    1.2202   23.8448 C   0  0  0  0  0  0  0  0  0  0  0  0
   12.1457    0.3414   24.5254 C   0  0  0  0  0  0  0  0  0  0  0  0
    6.1790    0.5730   19.9990 C   0  0  0  0  0  0  0  0  0  0  0  0
   11.5051    1.2687   23.7036 C   0  0  0  0  0  0  0  0  0  0  0  0
    5.8300    0.9190   18.6970 C   0  0  0  0  0  0  0  0  0  0  0  0
    9.3070   -3.5340   24.8780 C   0  0  0  0  0  0  0  0  0  0  0  0
    9.3350   -1.0880   23.5010 C   0  0  0  0  0  0  0  0  0  0  0  0
   13.5386    0.3171   24.5960 C   0  0  0  0  0  0  0  0  0  0  0  0
    7.3170   -0.1610   19.8550 C   0  0  0  0  0  0  0  0  0  0  0  0
    9.5334   -6.0236   25.0414 C   0  0  0  0  0  0  0  0  0  0  0  0
    9.0420    0.3700   21.5280 C   0  0  0  0  0  0  0  0  0  0  0  0
   10.6330   -7.3746   26.8775 C   0  0  0  0  0  0  0  0  0  0  0  0
   10.0059    1.2962   23.6279 C   0  0  0  0  0  0  0  0  0  0  0  0
    9.3523   -7.0865   26.1149 C   0  0  0  0  0  0  0  0  0  0  0  0
    7.6390   -0.2680   18.5410 N   0  0  0  0  0  0  0  0  0  0  0  0
    6.7580    0.3810   17.8350 N   0  0  0  0  0  0  0  0  0  0  0  0
    9.2546   -4.7422   25.5438 N   0  0  0  0  0  0  0  0  0  0  0  0
    8.1890   -0.7180   20.8700 N   0  0  0  0  0  0  0  0  0  0  0  0
    9.4560    0.1560   22.8130 N   0  0  0  0  0  0  0  0  0  0  0  0
    9.8806   -6.3053   23.8992 O   0  0  0  0  0  0  0  0  0  0  0  0
    9.2690    1.4140   20.9380 O   0  0  0  0  0  0  0  0  0  0  0  0
   14.3296   -0.8260   25.6106 Cl  0  0  0  0  0  0  0  0  0  0  0  0
    3.6468    2.0173   21.6825 H   0  0  0  0  0  0  0  0  0  0  0  0
    3.0153    2.6527   19.3907 H   0  0  0  0  0  0  0  0  0  0  0  0
   14.2356    2.8510   22.4380 H   0  0  0  0  0  0  0  0  0  0  0  0
    5.7015    0.6980   22.1071 H   0  0  0  0  0  0  0  0  0  0  0  0
   11.7666    2.8978   22.3094 H   0  0  0  0  0  0  0  0  0  0  0  0
    4.4064    1.9744   17.4453 H   0  0  0  0  0  0  0  0  0  0  0  0
    8.6895   -2.3529   26.5807 H   0  0  0  0  0  0  0  0  0  0  0  0
    9.9262   -4.3897   22.9916 H   0  0  0  0  0  0  0  0  0  0  0  0
    8.9224   -0.1998   25.4238 H   0  0  0  0  0  0  0  0  0  0  0  0
   10.0649   -2.2343   21.8258 H   0  0  0  0  0  0  0  0  0  0  0  0
   15.3771    1.2130   23.8902 H   0  0  0  0  0  0  0  0  0  0  0  0
   11.5548   -0.3609   25.1088 H   0  0  0  0  0  0  0  0  0  0  0  0
   11.4241   -7.7171   26.2024 H   0  0  0  0  0  0  0  0  0  0  0  0
   10.4629   -8.1530   27.6277 H   0  0  0  0  0  0  0  0  0  0  0  0
   10.9949   -6.4779   27.3912 H   0  0  0  0  0  0  0  0  0  0  0  0
    9.5675    1.2266   24.6294 H   0  0  0  0  0  0  0  0  0  0  0  0
    9.6520    2.2318   23.1823 H   0  0  0  0  0  0  0  0  0  0  0  0
    8.5795   -6.7463   26.8138 H   0  0  0  0  0  0  0  0  0  0  0  0
    8.9966   -8.0064   25.6368 H   0  0  0  0  0  0  0  0  0  0  0  0
    6.8044    0.4388   16.8592 H   0  0  0  0  0  0  0  0  0  0  0  0
    8.9776   -4.7057   26.5317 H   0  0  0  0  0  0  0  0  0  0  0  0
    8.2409   -1.5618   21.0967 H   0  0  0  0  0  0  0  0  0  0  0  0
  1  2  1  0  0  0  0
  1  4  2  0  0  0  0
  2  6  2  0  0  0  0
  3  5  2  0  0  0  0
  3 11  1  0  0  0  0
  4 13  1  0  0  0  0
  5 14  1  0  0  0  0
  6 15  1  0  0  0  0
  7  9  2  0  0  0  0
  7 16  1  0  0  0  0
  8 10  1  0  0  0  0
  8 16  2  0  0  0  0
  9 17  1  0  0  0  0
 10 17  2  0  0  0  0
 11 18  2  0  0  0  0
 12 14  2  0  0  0  0
 12 18  1  0  0  0  0
 13 15  2  0  0  0  0
 13 19  1  0  0  0  0
 14 23  1  0  0  0  0
 15 26  1  0  0  0  0
 16 27  1  0  0  0  0
 17 29  1  0  0  0  0
 18 32  1  0  0  0  0
 19 25  2  0  0  0  0
 19 28  1  0  0  0  0
 20 24  1  0  0  0  0
 20 27  1  0  0  0  0
 20 30  2  0  0  0  0
 21 28  1  0  0  0  0
 21 29  1  0  0  0  0
 21 31  2  0  0  0  0
 22 24  1  0  0  0  0
 23 29  1  0  0  0  0
 25 26  1  0  0  0  0
  1 33  1  0  0  0  0
  2 34  1  0  0  0  0
  3 35  1  0  0  0  0
  4 36  1  0  0  0  0
  5 37  1  0  0  0  0
  6 38  1  0  0  0  0
  7 39  1  0  0  0  0
  8 40  1  0  0  0  0
  9 41  1  0  0  0  0
 10 42  1  0  0  0  0
 11 43  1  0  0  0  0
 12 44  1  0  0  0  0
 22 45  1  0  0  0  0
 22 46  1  0  0  0  0
 22 47  1  0  0  0  0
 23 48  1  0  0  0  0
 23 49  1  0  0  0  0
 24 50  1  0  0  0  0
 24 51  1  0  0  0  0
 26 52  1  0  0  0  0
 27 53  1  0  0  0  0
 28 54  1  0  0  0  0
M  END
> <clash_score>
2.1643676618427468

> <docking_score>
-4.413505554199219

> <overlap_score>
0.9833675026893616

$$$$
BENZO_63_1
  -OEChem-08232013443D

 54 57  0     0  0  0  0  0  0999 V2000
    4.2750    1.7050   20.8490 C   0  0  0  0  0  0  0  0  0  0  0  0
    3.9160    2.0630   19.5520 C   0  0  0  0  0  0  0  0  0  0  0  0
    5.4210    0.9600   21.0930 C   0  0  0  0  0  0  0  0  0  0  0  0
    4.6890    1.6810   18.4640 C   0  0  0  0  0  0  0  0  0  0  0  0
    8.9960   -2.3380   25.5320 C   0  0  0  0  0  0  0  0  0  0  0  0
    9.6730   -3.4710   23.5300 C   0  0  0  0  0  0  0  0  0  0  0  0
    9.0720   -1.1280   24.8640 C   0  0  0  0  0  0  0  0  0  0  0  0
    9.7200   -2.2600   22.8630 C   0  0  0  0  0  0  0  0  0  0  0  0
   12.4196    2.0953   23.0237 C   0  0  0  0  0  0  0  0  0  0  0  0
   12.2925    0.4312   24.4553 C   0  0  0  0  0  0  0  0  0  0  0  0
    6.1790    0.5730   19.9990 C   0  0  0  0  0  0  0  0  0  0  0  0
   11.5051    1.2687   23.7036 C   0  0  0  0  0  0  0  0  0  0  0  0
    5.8300    0.9190   18.6970 C   0  0  0  0  0  0  0  0  0  0  0  0
    9.3070   -3.5340   24.8780 C   0  0  0  0  0  0  0  0  0  0  0  0
    9.3350   -1.0880   23.5010 C   0  0  0  0  0  0  0  0  0  0  0  0
    7.3170   -0.1610   19.8550 C   0  0  0  0  0  0  0  0  0  0  0  0
    9.5334   -6.0236   25.0414 C   0  0  0  0  0  0  0  0  0  0  0  0
    9.0420    0.3700   21.5280 C   0  0  0  0  0  0  0  0  0  0  0  0
   10.6330   -7.3746   26.8775 C   0  0  0  0  0  0  0  0  0  0  0  0
   14.7698    0.1964   24.7497 C   0  0  0  0  0  0  0  0  0  0  0  0
   10.0059    1.2962   23.6279 C   0  0  0  0  0  0  0  0  0  0  0  0
    9.3523   -7.0865   26.1149 C   0  0  0  0  0  0  0  0  0  0  0  0
   13.6907    1.8091   23.3177 N   0  0  0  0  0  0  0  0  0  0  0  0
    7.6390   -0.2680   18.5410 N   0  0  0  0  0  0  0  0  0  0  0  0
    6.7580    0.3810   17.8350 N   0  0  0  0  0  0  0  0  0  0  0  0
   13.5805    0.7932   24.1907 N   0  0  0  0  0  0  0  0  0  0  0  0
    9.2546   -4.7422   25.5438 N   0  0  0  0  0  0  0  0  0  0  0  0
    8.1890   -0.7180   20.8700 N   0  0  0  0  0  0  0  0  0  0  0  0
    9.4560    0.1560   22.8130 N   0  0  0  0  0  0  0  0  0  0  0  0
    9.8806   -6.3053   23.8992 O   0  0  0  0  0  0  0  0  0  0  0  0
    9.2690    1.4140   20.9380 O   0  0  0  0  0  0  0  0  0  0  0  0
    3.6468    2.0173   21.6825 H   0  0  0  0  0  0  0  0  0  0  0  0
    3.0153    2.6527   19.3907 H   0  0  0  0  0  0  0  0  0  0  0  0
    5.7015    0.6980   22.1071 H   0  0  0  0  0  0  0  0  0  0  0  0
    4.4064    1.9744   17.4453 H   0  0  0  0  0  0  0  0  0  0  0  0
    8.6895   -2.3529   26.5807 H   0  0  0  0  0  0  0  0  0  0  0  0
    9.9262   -4.3897   22.9916 H   0  0  0  0  0  0  0  0  0  0  0  0
    8.9224   -0.1998   25.4238 H   0  0  0  0  0  0  0  0  0  0  0  0
   10.0649   -2.2343   21.8258 H   0  0  0  0  0  0  0  0  0  0  0  0
   12.2152    2.8956   22.3266 H   0  0  0  0  0  0  0  0  0  0  0  0
   12.0519   -0.3708   25.1401 H   0  0  0  0  0  0  0  0  0  0  0  0
   11.4241   -7.7171   26.2024 H   0  0  0  0  0  0  0  0  0  0  0  0
   10.4629   -8.1530   27.6277 H   0  0  0  0  0  0  0  0  0  0  0  0
   10.9949   -6.4779   27.3912 H   0  0  0  0  0  0  0  0  0  0  0  0
   15.0768   -0.6221   24.0934 H   0  0  0  0  0  0  0  0  0  0  0  0
   15.5591    0.9504   24.8155 H   0  0  0  0  0  0  0  0  0  0  0  0
   14.5485   -0.1788   25.7528 H   0  0  0  0  0  0  0  0  0  0  0  0
    9.5675    1.2266   24.6294 H   0  0  0  0  0  0  0  0  0  0  0  0
    9.6520    2.2318   23.1823 H   0  0  0  0  0  0  0  0  0  0  0  0
    8.5795   -6.7463   26.8138 H   0  0  0  0  0  0  0  0  0  0  0  0
    8.9966   -8.0064   25.6368 H   0  0  0  0  0  0  0  0  0  0  0  0
    6.8044    0.4388   16.8592 H   0  0  0  0  0  0  0  0  0  0  0  0
    8.9776   -4.7057   26.5317 H   0  0  0  0  0  0  0  0  0  0  0  0
    8.2409   -1.5618   21.0967 H   0  0  0  0  0  0  0  0  0  0  0  0
  1  2  1  0  0  0  0
  1  3  2  0  0  0  0
  2  4  2  0  0  0  0
  3 11  1  0  0  0  0
  4 13  1  0  0  0  0
  5  7  2  0  0  0  0
  5 14  1  0  0  0  0
  6  8  1  0  0  0  0
  6 14  2  0  0  0  0
  7 15  1  0  0  0  0
  8 15  2  0  0  0  0
  9 12  1  0  0  0  0
  9 23  2  0  0  0  0
 10 12  2  0  0  0  0
 10 26  1  0  0  0  0
 11 13  2  0  0  0  0
 11 16  1  0  0  0  0
 12 21  1  0  0  0  0
 13 25  1  0  0  0  0
 14 27  1  0  0  0  0
 15 29  1  0  0  0  0
 16 24  2  0  0  0  0
 16 28  1  0  0  0  0
 17 22  1  0  0  0  0
 17 27  1  0  0  0  0
 17 30  2  0  0  0  0
 18 28  1  0  0  0  0
 18 29  1  0  0  0  0
 18 31  2  0  0  0  0
 19 22  1  0  0  0  0
 20 26  1  0  0  0  0
 21 29  1  0  0  0  0
 23 26  1  0  0  0  0
 24 25  1  0  0  0  0
  1 32  1  0  0  0  0
  2 33  1  0  0  0  0
  3 34  1  0  0  0  0
  4 35  1  0  0  0  0
  5 36  1  0  0  0  0
  6 37  1  0  0  0  0
  7 38  1  0  0  0  0
  8 39  1  0  0  0  0
  9 40  1  0  0  0  0
 10 41  1  0  0  0  0
 19 42  1  0  0  0  0
 19 43  1  0  0  0  0
 19 44  1  0  0  0  0
 20 45  1  0  0  0  0
 20 46  1  0  0  0  0
 20 47  1  0  0  0  0
 21 48  1  0  0  0  0
 21 49  1  0  0  0  0
 22 50  1  0  0  0  0
 22 51  1  0  0  0  0
 25 52  1  0  0  0  0
 27 53  1  0  0  0  0
 28 54  1  0  0  0  0
M  END
> <clash_score>
1.4986627179605445

> <docking_score>
-5.16359281539917

> <overlap_score>
0.9792261123657227

$$$$
BENZO_64_1
  -OEChem-08232013443D

 56 60  0     0  0  0  0  0  0999 V2000
    4.2750    1.7050   20.8490 C   0  0  0  0  0  0  0  0  0  0  0  0
    3.9160    2.0630   19.5520 C   0  0  0  0  0  0  0  0  0  0  0  0
    5.4210    0.9600   21.0930 C   0  0  0  0  0  0  0  0  0  0  0  0
    4.6890    1.6810   18.4640 C   0  0  0  0  0  0  0  0  0  0  0  0
    8.9960   -2.3380   25.5320 C   0  0  0  0  0  0  0  0  0  0  0  0
    9.6730   -3.4710   23.5300 C   0  0  0  0  0  0  0  0  0  0  0  0
    9.0720   -1.1280   24.8640 C   0  0  0  0  0  0  0  0  0  0  0  0
    9.7200   -2.2600   22.8630 C   0  0  0  0  0  0  0  0  0  0  0  0
   12.3486    1.3935   22.5245 C   0  0  0  0  0  0  0  0  0  0  0  0
   13.6840    1.3978   22.8623 C   0  0  0  0  0  0  0  0  0  0  0  0
   12.2302    1.3009   24.8439 C   0  0  0  0  0  0  0  0  0  0  0  0
    6.1790    0.5730   19.9990 C   0  0  0  0  0  0  0  0  0  0  0  0
   11.5063    1.3375   23.6723 C   0  0  0  0  0  0  0  0  0  0  0  0
    5.8300    0.9190   18.6970 C   0  0  0  0  0  0  0  0  0  0  0  0
    9.3070   -3.5340   24.8780 C   0  0  0  0  0  0  0  0  0  0  0  0
    9.3350   -1.0880   23.5010 C   0  0  0  0  0  0  0  0  0  0  0  0
    7.3170   -0.1610   19.8550 C   0  0  0  0  0  0  0  0  0  0  0  0
    9.0420    0.3700   21.5280 C   0  0  0  0  0  0  0  0  0  0  0  0
    7.6075   -7.0890   25.4795 C   0  0  0  0  0  0  0  0  0  0  0  0
    7.1392   -5.7989   26.1565 C   0  0  0  0  0  0  0  0  0  0  0  0
    8.6478   -6.8051   24.3935 C   0  0  0  0  0  0  0  0  0  0  0  0
    8.3303   -4.9793   26.6524 C   0  0  0  0  0  0  0  0  0  0  0  0
    9.8033   -5.9551   24.9309 C   0  0  0  0  0  0  0  0  0  0  0  0
   10.0063    1.3195   23.6101 C   0  0  0  0  0  0  0  0  0  0  0  0
    7.6390   -0.2680   18.5410 N   0  0  0  0  0  0  0  0  0  0  0  0
    6.7580    0.3810   17.8350 N   0  0  0  0  0  0  0  0  0  0  0  0
    9.2562   -4.7384   25.5422 N   0  0  0  0  0  0  0  0  0  0  0  0
    8.1890   -0.7180   20.8700 N   0  0  0  0  0  0  0  0  0  0  0  0
    9.4560    0.1560   22.8130 N   0  0  0  0  0  0  0  0  0  0  0  0
    9.2690    1.4140   20.9380 O   0  0  0  0  0  0  0  0  0  0  0  0
   13.9181    1.3344   24.5574 S   0  0  0  0  0  0  0  0  0  0  0  0
    3.6468    2.0173   21.6825 H   0  0  0  0  0  0  0  0  0  0  0  0
    3.0153    2.6527   19.3907 H   0  0  0  0  0  0  0  0  0  0  0  0
    5.7015    0.6980   22.1071 H   0  0  0  0  0  0  0  0  0  0  0  0
    4.4064    1.9744   17.4453 H   0  0  0  0  0  0  0  0  0  0  0  0
    8.6905   -2.3533   26.5810 H   0  0  0  0  0  0  0  0  0  0  0  0
    9.9266   -4.3896   22.9917 H   0  0  0  0  0  0  0  0  0  0  0  0
    8.9233   -0.1992   25.4231 H   0  0  0  0  0  0  0  0  0  0  0  0
   10.0650   -2.2330   21.8256 H   0  0  0  0  0  0  0  0  0  0  0  0
   11.9970    1.4285   21.5010 H   0  0  0  0  0  0  0  0  0  0  0  0
   14.5334    1.4345   22.1949 H   0  0  0  0  0  0  0  0  0  0  0  0
   11.8527    1.2549   25.8560 H   0  0  0  0  0  0  0  0  0  0  0  0
    8.0356   -7.7671   26.2335 H   0  0  0  0  0  0  0  0  0  0  0  0
    6.7454   -7.6111   25.0398 H   0  0  0  0  0  0  0  0  0  0  0  0
    6.5539   -5.2055   25.4489 H   0  0  0  0  0  0  0  0  0  0  0  0
    6.4855   -6.0435   26.9963 H   0  0  0  0  0  0  0  0  0  0  0  0
    9.0392   -7.7512   24.0053 H   0  0  0  0  0  0  0  0  0  0  0  0
    8.1711   -6.2867   23.5535 H   0  0  0  0  0  0  0  0  0  0  0  0
    7.9625   -4.0328   27.0569 H   0  0  0  0  0  0  0  0  0  0  0  0
    8.8426   -5.5180   27.4546 H   0  0  0  0  0  0  0  0  0  0  0  0
   10.3696   -6.5240   25.6692 H   0  0  0  0  0  0  0  0  0  0  0  0
   10.4665   -5.7029   24.1030 H   0  0  0  0  0  0  0  0  0  0  0  0
    9.5785    1.2746   24.6176 H   0  0  0  0  0  0  0  0  0  0  0  0
    9.6218    2.2274   23.1337 H   0  0  0  0  0  0  0  0  0  0  0  0
    6.8044    0.4388   16.8592 H   0  0  0  0  0  0  0  0  0  0  0  0
    8.2565   -1.5523   21.1108 H   0  0  0  0  0  0  0  0  0  0  0  0
  1  2  1  0  0  0  0
  1  3  2  0  0  0  0
  2  4  2  0  0  0  0
  3 12  1  0  0  0  0
  4 14  1  0  0  0  0
  5  7  2  0  0  0  0
  5 15  1  0  0  0  0
  6  8  1  0  0  0  0
  6 15  2  0  0  0  0
  7 16  1  0  0  0  0
  8 16  2  0  0  0  0
  9 10  2  0  0  0  0
  9 13  1  0  0  0  0
 10 31  1  0  0  0  0
 11 13  2  0  0  0  0
 11 31  1  0  0  0  0
 12 14  2  0  0  0  0
 12 17  1  0  0  0  0
 13 24  1  0  0  0  0
 14 26  1  0  0  0  0
 15 27  1  0  0  0  0
 16 29  1  0  0  0  0
 17 25  2  0  0  0  0
 17 28  1  0  0  0  0
 18 28  1  0  0  0  0
 18 29  1  0  0  0  0
 18 30  2  0  0  0  0
 19 20  1  0  0  0  0
 19 21  1  0  0  0  0
 20 22  1  0  0  0  0
 21 23  1  0  0  0  0
 22 27  1  0  0  0  0
 23 27  1  0  0  0  0
 24 29  1  0  0  0  0
 25 26  1  0  0  0  0
  1 32  1  0  0  0  0
  2 33  1  0  0  0  0
  3 34  1  0  0  0  0
  4 35  1  0  0  0  0
  5 36  1  0  0  0  0
  6 37  1  0  0  0  0
  7 38  1  0  0  0  0
  8 39  1  0  0  0  0
  9 40  1  0  0  0  0
 10 41  1  0  0  0  0
 11 42  1  0  0  0  0
 19 43  1  0  0  0  0
 19 44  1  0  0  0  0
 20 45  1  0  0  0  0
 20 46  1  0  0  0  0
 21 47  1  0  0  0  0
 21 48  1  0  0  0  0
 22 49  1  0  0  0  0
 22 50  1  0  0  0  0
 23 51  1  0  0  0  0
 23 52  1  0  0  0  0
 24 53  1  0  0  0  0
 24 54  1  0  0  0  0
 26 55  1  0  0  0  0
 28 56  1  0  0  0  0
M  END
> <clash_score>
0

> <docking_score>
-7.366827964782715

> <overlap_score>
0.9799782037734985

$$$$
BENZO_69_1
  -OEChem-08232013443D

 47 50  0     0  0  0  0  0  0999 V2000
   14.2909    1.2180   23.8427 C   0  0  0  0  0  0  0  0  0  0  0  0
    4.2750    1.7050   20.8490 C   0  0  0  0  0  0  0  0  0  0  0  0
   13.5324    0.5493   24.8034 C   0  0  0  0  0  0  0  0  0  0  0  0
   13.6566    1.9121   22.8124 C   0  0  0  0  0  0  0  0  0  0  0  0
    3.9160    2.0630   19.5520 C   0  0  0  0  0  0  0  0  0  0  0  0
    5.4210    0.9600   21.0930 C   0  0  0  0  0  0  0  0  0  0  0  0
   12.1395    0.5746   24.7339 C   0  0  0  0  0  0  0  0  0  0  0  0
   12.2637    1.9375   22.7428 C   0  0  0  0  0  0  0  0  0  0  0  0
    8.9960   -2.3380   25.5320 C   0  0  0  0  0  0  0  0  0  0  0  0
    9.6730   -3.4710   23.5300 C   0  0  0  0  0  0  0  0  0  0  0  0
    4.6890    1.6810   18.4640 C   0  0  0  0  0  0  0  0  0  0  0  0
    9.0720   -1.1280   24.8640 C   0  0  0  0  0  0  0  0  0  0  0  0
    9.7200   -2.2600   22.8630 C   0  0  0  0  0  0  0  0  0  0  0  0
    6.1790    0.5730   19.9990 C   0  0  0  0  0  0  0  0  0  0  0  0
    9.3070   -3.5340   24.8780 C   0  0  0  0  0  0  0  0  0  0  0  0
   11.5051    1.2687   23.7036 C   0  0  0  0  0  0  0  0  0  0  0  0
    5.8300    0.9190   18.6970 C   0  0  0  0  0  0  0  0  0  0  0  0
    9.3350   -1.0880   23.5010 C   0  0  0  0  0  0  0  0  0  0  0  0
    7.3170   -0.1610   19.8550 C   0  0  0  0  0  0  0  0  0  0  0  0
    9.0420    0.3700   21.5280 C   0  0  0  0  0  0  0  0  0  0  0  0
    9.2505   -4.8264   25.5904 C   0  0  0  0  0  0  0  0  0  0  0  0
   10.0059    1.2962   23.6279 C   0  0  0  0  0  0  0  0  0  0  0  0
    7.6390   -0.2680   18.5410 N   0  0  0  0  0  0  0  0  0  0  0  0
    6.7580    0.3810   17.8350 N   0  0  0  0  0  0  0  0  0  0  0  0
    8.1890   -0.7180   20.8700 N   0  0  0  0  0  0  0  0  0  0  0  0
    9.4560    0.1560   22.8130 N   0  0  0  0  0  0  0  0  0  0  0  0
    9.2690    1.4140   20.9380 O   0  0  0  0  0  0  0  0  0  0  0  0
   15.3755    1.1993   23.8978 H   0  0  0  0  0  0  0  0  0  0  0  0
    3.6468    2.0173   21.6825 H   0  0  0  0  0  0  0  0  0  0  0  0
   14.0261    0.0096   25.6063 H   0  0  0  0  0  0  0  0  0  0  0  0
   14.2468    2.4338   22.0649 H   0  0  0  0  0  0  0  0  0  0  0  0
    3.0153    2.6527   19.3907 H   0  0  0  0  0  0  0  0  0  0  0  0
    5.7015    0.6980   22.1071 H   0  0  0  0  0  0  0  0  0  0  0  0
   11.5566    0.0505   25.4867 H   0  0  0  0  0  0  0  0  0  0  0  0
   11.7781    2.4807   21.9365 H   0  0  0  0  0  0  0  0  0  0  0  0
    8.6919   -2.3557   26.5813 H   0  0  0  0  0  0  0  0  0  0  0  0
    9.9267   -4.3907   22.9939 H   0  0  0  0  0  0  0  0  0  0  0  0
    4.4064    1.9744   17.4453 H   0  0  0  0  0  0  0  0  0  0  0  0
    8.9217   -0.1995   25.4231 H   0  0  0  0  0  0  0  0  0  0  0  0
   10.0653   -2.2339   21.8256 H   0  0  0  0  0  0  0  0  0  0  0  0
    8.2503   -5.2678   25.5020 H   0  0  0  0  0  0  0  0  0  0  0  0
    9.9817   -5.5374   25.1845 H   0  0  0  0  0  0  0  0  0  0  0  0
    9.4841   -4.7043   26.6562 H   0  0  0  0  0  0  0  0  0  0  0  0
    9.5675    1.2266   24.6294 H   0  0  0  0  0  0  0  0  0  0  0  0
    9.6520    2.2318   23.1823 H   0  0  0  0  0  0  0  0  0  0  0  0
    6.8044    0.4388   16.8592 H   0  0  0  0  0  0  0  0  0  0  0  0
    8.2409   -1.5618   21.0967 H   0  0  0  0  0  0  0  0  0  0  0  0
  1  3  1  0  0  0  0
  1  4  2  0  0  0  0
  2  5  1  0  0  0  0
  2  6  2  0  0  0  0
  3  7  2  0  0  0  0
  4  8  1  0  0  0  0
  5 11  2  0  0  0  0
  6 14  1  0  0  0  0
  7 16  1  0  0  0  0
  8 16  2  0  0  0  0
  9 12  2  0  0  0  0
  9 15  1  0  0  0  0
 10 13  1  0  0  0  0
 10 15  2  0  0  0  0
 11 17  1  0  0  0  0
 12 18  1  0  0  0  0
 13 18  2  0  0  0  0
 14 17  2  0  0  0  0
 14 19  1  0  0  0  0
 15 21  1  0  0  0  0
 16 22  1  0  0  0  0
 17 24  1  0  0  0  0
 18 26  1  0  0  0  0
 19 23  2  0  0  0  0
 19 25  1  0  0  0  0
 20 25  1  0  0  0  0
 20 26  1  0  0  0  0
 20 27  2  0  0  0  0
 22 26  1  0  0  0  0
 23 24  1  0  0  0  0
  1 28  1  0  0  0  0
  2 29  1  0  0  0  0
  3 30  1  0  0  0  0
  4 31  1  0  0  0  0
  5 32  1  0  0  0  0
  6 33  1  0  0  0  0
  7 34  1  0  0  0  0
  8 35  1  0  0  0  0
  9 36  1  0  0  0  0
 10 37  1  0  0  0  0
 11 38  1  0  0  0  0
 12 39  1  0  0  0  0
 13 40  1  0  0  0  0
 21 41  1  0  0  0  0
 21 42  1  0  0  0  0
 21 43  1  0  0  0  0
 22 44  1  0  0  0  0
 22 45  1  0  0  0  0
 24 46  1  0  0  0  0
 25 47  1  0  0  0  0
M  END
> <clash_score>
0

> <docking_score>
-8.117822647094727

> <overlap_score>
0.938532292842865

$$$$
BENZO_68_1
  -OEChem-08232013443D

 44 47  0     0  0  0  0  0  0999 V2000
    4.2750    1.7050   20.8490 C   0  0  0  0  0  0  0  0  0  0  0  0
    3.9160    2.0630   19.5520 C   0  0  0  0  0  0  0  0  0  0  0  0
    5.4210    0.9600   21.0930 C   0  0  0  0  0  0  0  0  0  0  0  0
    8.9960   -2.3380   25.5320 C   0  0  0  0  0  0  0  0  0  0  0  0
    9.6730   -3.4710   23.5300 C   0  0  0  0  0  0  0  0  0  0  0  0
    4.6890    1.6810   18.4640 C   0  0  0  0  0  0  0  0  0  0  0  0
    9.0720   -1.1280   24.8640 C   0  0  0  0  0  0  0  0  0  0  0  0
    9.7200   -2.2600   22.8630 C   0  0  0  0  0  0  0  0  0  0  0  0
   12.3157    2.4334   23.8330 C   0  0  0  0  0  0  0  0  0  0  0  0
   13.6579    2.1272   23.8789 C   0  0  0  0  0  0  0  0  0  0  0  0
   12.2590    0.1166   23.6552 C   0  0  0  0  0  0  0  0  0  0  0  0
    6.1790    0.5730   19.9990 C   0  0  0  0  0  0  0  0  0  0  0  0
    9.3070   -3.5340   24.8780 C   0  0  0  0  0  0  0  0  0  0  0  0
   11.5051    1.2687   23.7036 C   0  0  0  0  0  0  0  0  0  0  0  0
    5.8300    0.9190   18.6970 C   0  0  0  0  0  0  0  0  0  0  0  0
    9.3350   -1.0880   23.5010 C   0  0  0  0  0  0  0  0  0  0  0  0
    7.3170   -0.1610   19.8550 C   0  0  0  0  0  0  0  0  0  0  0  0
    9.0420    0.3700   21.5280 C   0  0  0  0  0  0  0  0  0  0  0  0
    9.2505   -4.8264   25.5904 C   0  0  0  0  0  0  0  0  0  0  0  0
   10.0059    1.2962   23.6279 C   0  0  0  0  0  0  0  0  0  0  0  0
    7.6390   -0.2680   18.5410 N   0  0  0  0  0  0  0  0  0  0  0  0
    6.7580    0.3810   17.8350 N   0  0  0  0  0  0  0  0  0  0  0  0
    8.1890   -0.7180   20.8700 N   0  0  0  0  0  0  0  0  0  0  0  0
    9.4560    0.1560   22.8130 N   0  0  0  0  0  0  0  0  0  0  0  0
    9.2690    1.4140   20.9380 O   0  0  0  0  0  0  0  0  0  0  0  0
   13.9366    0.4414   23.7659 S   0  0  0  0  0  0  0  0  0  0  0  0
    3.6468    2.0173   21.6825 H   0  0  0  0  0  0  0  0  0  0  0  0
    3.0153    2.6527   19.3907 H   0  0  0  0  0  0  0  0  0  0  0  0
    5.7015    0.6980   22.1071 H   0  0  0  0  0  0  0  0  0  0  0  0
    8.6919   -2.3557   26.5813 H   0  0  0  0  0  0  0  0  0  0  0  0
    9.9267   -4.3907   22.9939 H   0  0  0  0  0  0  0  0  0  0  0  0
    4.4064    1.9744   17.4453 H   0  0  0  0  0  0  0  0  0  0  0  0
    8.9217   -0.1995   25.4231 H   0  0  0  0  0  0  0  0  0  0  0  0
   10.0653   -2.2339   21.8256 H   0  0  0  0  0  0  0  0  0  0  0  0
   11.9375    3.4463   23.8895 H   0  0  0  0  0  0  0  0  0  0  0  0
   14.4883    2.8127   23.9725 H   0  0  0  0  0  0  0  0  0  0  0  0
   11.9089   -0.9019   23.5590 H   0  0  0  0  0  0  0  0  0  0  0  0
    8.2503   -5.2678   25.5020 H   0  0  0  0  0  0  0  0  0  0  0  0
    9.9817   -5.5374   25.1845 H   0  0  0  0  0  0  0  0  0  0  0  0
    9.4841   -4.7043   26.6562 H   0  0  0  0  0  0  0  0  0  0  0  0
    9.5675    1.2266   24.6294 H   0  0  0  0  0  0  0  0  0  0  0  0
    9.6520    2.2318   23.1823 H   0  0  0  0  0  0  0  0  0  0  0  0
    6.8044    0.4388   16.8592 H   0  0  0  0  0  0  0  0  0  0  0  0
    8.2409   -1.5618   21.0967 H   0  0  0  0  0  0  0  0  0  0  0  0
  1  2  1  0  0  0  0
  1  3  2  0  0  0  0
  2  6  2  0  0  0  0
  3 12  1  0  0  0  0
  4  7  2  0  0  0  0
  4 13  1  0  0  0  0
  5  8  1  0  0  0  0
  5 13  2  0  0  0  0
  6 15  1  0  0  0  0
  7 16  1  0  0  0  0
  8 16  2  0  0  0  0
  9 10  2  0  0  0  0
  9 14  1  0  0  0  0
 10 26  1  0  0  0  0
 11 14  2  0  0  0  0
 11 26  1  0  0  0  0
 12 15  2  0  0  0  0
 12 17  1  0  0  0  0
 13 19  1  0  0  0  0
 14 20  1  0  0  0  0
 15 22  1  0  0  0  0
 16 24  1  0  0  0  0
 17 21  2  0  0  0  0
 17 23  1  0  0  0  0
 18 23  1  0  0  0  0
 18 24  1  0  0  0  0
 18 25  2  0  0  0  0
 20 24  1  0  0  0  0
 21 22  1  0  0  0  0
  1 27  1  0  0  0  0
  2 28  1  0  0  0  0
  3 29  1  0  0  0  0
  4 30  1  0  0  0  0
  5 31  1  0  0  0  0
  6 32  1  0  0  0  0
  7 33  1  0  0  0  0
  8 34  1  0  0  0  0
  9 35  1  0  0  0  0
 10 36  1  0  0  0  0
 11 37  1  0  0  0  0
 19 38  1  0  0  0  0
 19 39  1  0  0  0  0
 19 40  1  0  0  0  0
 20 41  1  0  0  0  0
 20 42  1  0  0  0  0
 22 43  1  0  0  0  0
 23 44  1  0  0  0  0
M  END
> <clash_score>
0

> <docking_score>
-7.147319793701172

> <overlap_score>
0.9250838756561279

$$$$
BENZO_67_1
  -OEChem-08232013443D

 59 63  0     0  0  0  0  0  0999 V2000
    4.2750    1.7050   20.8490 C   0  0  0  0  0  0  0  0  0  0  0  0
    3.9160    2.0630   19.5520 C   0  0  0  0  0  0  0  0  0  0  0  0
    5.4210    0.9600   21.0930 C   0  0  0  0  0  0  0  0  0  0  0  0
    4.6890    1.6810   18.4640 C   0  0  0  0  0  0  0  0  0  0  0  0
    8.9960   -2.3380   25.5320 C   0  0  0  0  0  0  0  0  0  0  0  0
    9.6730   -3.4710   23.5300 C   0  0  0  0  0  0  0  0  0  0  0  0
    9.0720   -1.1280   24.8640 C   0  0  0  0  0  0  0  0  0  0  0  0
    9.7200   -2.2600   22.8630 C   0  0  0  0  0  0  0  0  0  0  0  0
   12.3908    2.1640   22.9539 C   0  0  0  0  0  0  0  0  0  0  0  0
   12.3237    0.5511   24.4468 C   0  0  0  0  0  0  0  0  0  0  0  0
    6.1790    0.5730   19.9990 C   0  0  0  0  0  0  0  0  0  0  0  0
   11.5063    1.3375   23.6723 C   0  0  0  0  0  0  0  0  0  0  0  0
    5.8300    0.9190   18.6970 C   0  0  0  0  0  0  0  0  0  0  0  0
    9.3070   -3.5340   24.8780 C   0  0  0  0  0  0  0  0  0  0  0  0
    9.3350   -1.0880   23.5010 C   0  0  0  0  0  0  0  0  0  0  0  0
    7.3170   -0.1610   19.8550 C   0  0  0  0  0  0  0  0  0  0  0  0
    9.0420    0.3700   21.5280 C   0  0  0  0  0  0  0  0  0  0  0  0
    7.3635   -6.1361   27.1888 C   0  0  0  0  0  0  0  0  0  0  0  0
    8.1961   -4.9735   27.7341 C   0  0  0  0  0  0  0  0  0  0  0  0
    7.1942   -6.0394   25.6709 C   0  0  0  0  0  0  0  0  0  0  0  0
    9.5196   -4.8490   26.9797 C   0  0  0  0  0  0  0  0  0  0  0  0
    8.5442   -5.8838   24.9639 C   0  0  0  0  0  0  0  0  0  0  0  0
   14.8092    0.3979   24.7260 C   0  0  0  0  0  0  0  0  0  0  0  0
   10.0063    1.3195   23.6101 C   0  0  0  0  0  0  0  0  0  0  0  0
   13.6720    1.9251   23.2461 N   0  0  0  0  0  0  0  0  0  0  0  0
    7.6390   -0.2680   18.5410 N   0  0  0  0  0  0  0  0  0  0  0  0
    6.7580    0.3810   17.8350 N   0  0  0  0  0  0  0  0  0  0  0  0
   13.5986    0.9396   24.1568 N   0  0  0  0  0  0  0  0  0  0  0  0
    9.2562   -4.7384   25.5422 N   0  0  0  0  0  0  0  0  0  0  0  0
    8.1890   -0.7180   20.8700 N   0  0  0  0  0  0  0  0  0  0  0  0
    9.4560    0.1560   22.8130 N   0  0  0  0  0  0  0  0  0  0  0  0
    9.2690    1.4140   20.9380 O   0  0  0  0  0  0  0  0  0  0  0  0
    3.6468    2.0173   21.6825 H   0  0  0  0  0  0  0  0  0  0  0  0
    3.0153    2.6527   19.3907 H   0  0  0  0  0  0  0  0  0  0  0  0
    5.7015    0.6980   22.1071 H   0  0  0  0  0  0  0  0  0  0  0  0
    4.4064    1.9744   17.4453 H   0  0  0  0  0  0  0  0  0  0  0  0
    8.6905   -2.3533   26.5810 H   0  0  0  0  0  0  0  0  0  0  0  0
    9.9266   -4.3896   22.9917 H   0  0  0  0  0  0  0  0  0  0  0  0
    8.9233   -0.1992   25.4231 H   0  0  0  0  0  0  0  0  0  0  0  0
   10.0650   -2.2330   21.8256 H   0  0  0  0  0  0  0  0  0  0  0  0
   12.1576    2.9318   22.2298 H   0  0  0  0  0  0  0  0  0  0  0  0
   12.1121   -0.2315   25.1628 H   0  0  0  0  0  0  0  0  0  0  0  0
    7.8482   -7.0901   27.4469 H   0  0  0  0  0  0  0  0  0  0  0  0
    6.3760   -6.1438   27.6724 H   0  0  0  0  0  0  0  0  0  0  0  0
    7.6307   -4.0424   27.6403 H   0  0  0  0  0  0  0  0  0  0  0  0
    8.3915   -5.1310   28.7968 H   0  0  0  0  0  0  0  0  0  0  0  0
    6.6888   -6.9376   25.3010 H   0  0  0  0  0  0  0  0  0  0  0  0
    6.5515   -5.1859   25.4257 H   0  0  0  0  0  0  0  0  0  0  0  0
   10.0492   -3.9640   27.3414 H   0  0  0  0  0  0  0  0  0  0  0  0
   10.1431   -5.7254   27.1778 H   0  0  0  0  0  0  0  0  0  0  0  0
    9.1338   -6.7931   25.0868 H   0  0  0  0  0  0  0  0  0  0  0  0
    8.3656   -5.7264   23.8998 H   0  0  0  0  0  0  0  0  0  0  0  0
   15.1341   -0.4353   24.0973 H   0  0  0  0  0  0  0  0  0  0  0  0
   15.5770    1.1760   24.7565 H   0  0  0  0  0  0  0  0  0  0  0  0
   14.6073    0.0540   25.7443 H   0  0  0  0  0  0  0  0  0  0  0  0
    9.5785    1.2746   24.6176 H   0  0  0  0  0  0  0  0  0  0  0  0
    9.6218    2.2274   23.1337 H   0  0  0  0  0  0  0  0  0  0  0  0
    6.8044    0.4388   16.8592 H   0  0  0  0  0  0  0  0  0  0  0  0
    8.2565   -1.5523   21.1108 H   0  0  0  0  0  0  0  0  0  0  0  0
  1  2  1  0  0  0  0
  1  3  2  0  0  0  0
  2  4  2  0  0  0  0
  3 11  1  0  0  0  0
  4 13  1  0  0  0  0
  5  7  2  0  0  0  0
  5 14  1  0  0  0  0
  6  8  1  0  0  0  0
  6 14  2  0  0  0  0
  7 15  1  0  0  0  0
  8 15  2  0  0  0  0
  9 12  1  0  0  0  0
  9 25  2  0  0  0  0
 10 12  2  0  0  0  0
 10 28  1  0  0  0  0
 11 13  2  0  0  0  0
 11 16  1  0  0  0  0
 12 24  1  0  0  0  0
 13 27  1  0  0  0  0
 14 29  1  0  0  0  0
 15 31  1  0  0  0  0
 16 26  2  0  0  0  0
 16 30  1  0  0  0  0
 17 30  1  0  0  0  0
 17 31  1  0  0  0  0
 17 32  2  0  0  0  0
 18 19  1  0  0  0  0
 18 20  1  0  0  0  0
 19 21  1  0  0  0  0
 20 22  1  0  0  0  0
 21 29  1  0  0  0  0
 22 29  1  0  0  0  0
 23 28  1  0  0  0  0
 24 31  1  0  0  0  0
 25 28  1  0  0  0  0
 26 27  1  0  0  0  0
  1 33  1  0  0  0  0
  2 34  1  0  0  0  0
  3 35  1  0  0  0  0
  4 36  1  0  0  0  0
  5 37  1  0  0  0  0
  6 38  1  0  0  0  0
  7 39  1  0  0  0  0
  8 40  1  0  0  0  0
  9 41  1  0  0  0  0
 10 42  1  0  0  0  0
 18 43  1  0  0  0  0
 18 44  1  0  0  0  0
 19 45  1  0  0  0  0
 19 46  1  0  0  0  0
 20 47  1  0  0  0  0
 20 48  1  0  0  0  0
 21 49  1  0  0  0  0
 21 50  1  0  0  0  0
 22 51  1  0  0  0  0
 22 52  1  0  0  0  0
 23 53  1  0  0  0  0
 23 54  1  0  0  0  0
 23 55  1  0  0  0  0
 24 56  1  0  0  0  0
 24 57  1  0  0  0  0
 27 58  1  0  0  0  0
 30 59  1  0  0  0  0
M  END
> <clash_score>
0

> <docking_score>
-7.638177394866943

> <overlap_score>
0.9954401850700378

$$$$
BENZO_66_1
  -OEChem-08232013443D

 59 63  0     0  0  0  0  0  0999 V2000
    4.2750    1.7050   20.8490 C   0  0  0  0  0  0  0  0  0  0  0  0
    3.9160    2.0630   19.5520 C   0  0  0  0  0  0  0  0  0  0  0  0
   13.5726    0.4739   24.5787 C   0  0  0  0  0  0  0  0  0  0  0  0
    5.4210    0.9600   21.0930 C   0  0  0  0  0  0  0  0  0  0  0  0
   12.1790    0.4585   24.5212 C   0  0  0  0  0  0  0  0  0  0  0  0
    4.6890    1.6810   18.4640 C   0  0  0  0  0  0  0  0  0  0  0  0
    8.9960   -2.3380   25.5320 C   0  0  0  0  0  0  0  0  0  0  0  0
    9.6730   -3.4710   23.5300 C   0  0  0  0  0  0  0  0  0  0  0  0
    9.0720   -1.1280   24.8640 C   0  0  0  0  0  0  0  0  0  0  0  0
    9.7200   -2.2600   22.8630 C   0  0  0  0  0  0  0  0  0  0  0  0
   14.2935    1.3684   23.7874 C   0  0  0  0  0  0  0  0  0  0  0  0
   12.2271    2.2319   22.8810 C   0  0  0  0  0  0  0  0  0  0  0  0
    6.1790    0.5730   19.9990 C   0  0  0  0  0  0  0  0  0  0  0  0
   11.5063    1.3375   23.6723 C   0  0  0  0  0  0  0  0  0  0  0  0
    5.8300    0.9190   18.6970 C   0  0  0  0  0  0  0  0  0  0  0  0
    9.3070   -3.5340   24.8780 C   0  0  0  0  0  0  0  0  0  0  0  0
    9.3350   -1.0880   23.5010 C   0  0  0  0  0  0  0  0  0  0  0  0
   13.6207    2.2473   22.9386 C   0  0  0  0  0  0  0  0  0  0  0  0
    7.3170   -0.1610   19.8550 C   0  0  0  0  0  0  0  0  0  0  0  0
    9.0420    0.3700   21.5280 C   0  0  0  0  0  0  0  0  0  0  0  0
    7.3635   -6.1361   27.1888 C   0  0  0  0  0  0  0  0  0  0  0  0
    8.1961   -4.9735   27.7341 C   0  0  0  0  0  0  0  0  0  0  0  0
    7.1942   -6.0394   25.6709 C   0  0  0  0  0  0  0  0  0  0  0  0
    9.5196   -4.8490   26.9797 C   0  0  0  0  0  0  0  0  0  0  0  0
    8.5442   -5.8838   24.9639 C   0  0  0  0  0  0  0  0  0  0  0  0
   10.0063    1.3195   23.6101 C   0  0  0  0  0  0  0  0  0  0  0  0
    7.6390   -0.2680   18.5410 N   0  0  0  0  0  0  0  0  0  0  0  0
    6.7580    0.3810   17.8350 N   0  0  0  0  0  0  0  0  0  0  0  0
    9.2562   -4.7384   25.5422 N   0  0  0  0  0  0  0  0  0  0  0  0
    8.1890   -0.7180   20.8700 N   0  0  0  0  0  0  0  0  0  0  0  0
    9.4560    0.1560   22.8130 N   0  0  0  0  0  0  0  0  0  0  0  0
    9.2690    1.4140   20.9380 O   0  0  0  0  0  0  0  0  0  0  0  0
   14.5107    3.3498   21.9617 Cl  0  0  0  0  0  0  0  0  0  0  0  0
    3.6468    2.0173   21.6825 H   0  0  0  0  0  0  0  0  0  0  0  0
    3.0153    2.6527   19.3907 H   0  0  0  0  0  0  0  0  0  0  0  0
   14.0961   -0.2107   25.2397 H   0  0  0  0  0  0  0  0  0  0  0  0
    5.7015    0.6980   22.1071 H   0  0  0  0  0  0  0  0  0  0  0  0
   11.6255   -0.2418   25.1412 H   0  0  0  0  0  0  0  0  0  0  0  0
    4.4064    1.9744   17.4453 H   0  0  0  0  0  0  0  0  0  0  0  0
    8.6905   -2.3533   26.5810 H   0  0  0  0  0  0  0  0  0  0  0  0
    9.9266   -4.3896   22.9917 H   0  0  0  0  0  0  0  0  0  0  0  0
    8.9233   -0.1992   25.4231 H   0  0  0  0  0  0  0  0  0  0  0  0
   10.0650   -2.2330   21.8256 H   0  0  0  0  0  0  0  0  0  0  0  0
   15.3793    1.3690   23.8424 H   0  0  0  0  0  0  0  0  0  0  0  0
   11.6979    2.9155   22.2212 H   0  0  0  0  0  0  0  0  0  0  0  0
    7.8482   -7.0901   27.4469 H   0  0  0  0  0  0  0  0  0  0  0  0
    6.3760   -6.1438   27.6724 H   0  0  0  0  0  0  0  0  0  0  0  0
    7.6307   -4.0424   27.6403 H   0  0  0  0  0  0  0  0  0  0  0  0
    8.3915   -5.1310   28.7968 H   0  0  0  0  0  0  0  0  0  0  0  0
    6.6888   -6.9376   25.3010 H   0  0  0  0  0  0  0  0  0  0  0  0
    6.5515   -5.1859   25.4257 H   0  0  0  0  0  0  0  0  0  0  0  0
   10.0492   -3.9640   27.3414 H   0  0  0  0  0  0  0  0  0  0  0  0
   10.1431   -5.7254   27.1778 H   0  0  0  0  0  0  0  0  0  0  0  0
    9.1338   -6.7931   25.0868 H   0  0  0  0  0  0  0  0  0  0  0  0
    8.3656   -5.7264   23.8998 H   0  0  0  0  0  0  0  0  0  0  0  0
    9.5785    1.2746   24.6176 H   0  0  0  0  0  0  0  0  0  0  0  0
    9.6218    2.2274   23.1337 H   0  0  0  0  0  0  0  0  0  0  0  0
    6.8044    0.4388   16.8592 H   0  0  0  0  0  0  0  0  0  0  0  0
    8.2565   -1.5523   21.1108 H   0  0  0  0  0  0  0  0  0  0  0  0
  1  2  1  0  0  0  0
  1  4  2  0  0  0  0
  2  6  2  0  0  0  0
  3  5  2  0  0  0  0
  3 11  1  0  0  0  0
  4 13  1  0  0  0  0
  5 14  1  0  0  0  0
  6 15  1  0  0  0  0
  7  9  2  0  0  0  0
  7 16  1  0  0  0  0
  8 10  1  0  0  0  0
  8 16  2  0  0  0  0
  9 17  1  0  0  0  0
 10 17  2  0  0  0  0
 11 18  2  0  0  0  0
 12 14  2  0  0  0  0
 12 18  1  0  0  0  0
 13 15  2  0  0  0  0
 13 19  1  0  0  0  0
 14 26  1  0  0  0  0
 15 28  1  0  0  0  0
 16 29  1  0  0  0  0
 17 31  1  0  0  0  0
 18 33  1  0  0  0  0
 19 27  2  0  0  0  0
 19 30  1  0  0  0  0
 20 30  1  0  0  0  0
 20 31  1  0  0  0  0
 20 32  2  0  0  0  0
 21 22  1  0  0  0  0
 21 23  1  0  0  0  0
 22 24  1  0  0  0  0
 23 25  1  0  0  0  0
 24 29  1  0  0  0  0
 25 29  1  0  0  0  0
 26 31  1  0  0  0  0
 27 28  1  0  0  0  0
  1 34  1  0  0  0  0
  2 35  1  0  0  0  0
  3 36  1  0  0  0  0
  4 37  1  0  0  0  0
  5 38  1  0  0  0  0
  6 39  1  0  0  0  0
  7 40  1  0  0  0  0
  8 41  1  0  0  0  0
  9 42  1  0  0  0  0
 10 43  1  0  0  0  0
 11 44  1  0  0  0  0
 12 45  1  0  0  0  0
 21 46  1  0  0  0  0
 21 47  1  0  0  0  0
 22 48  1  0  0  0  0
 22 49  1  0  0  0  0
 23 50  1  0  0  0  0
 23 51  1  0  0  0  0
 24 52  1  0  0  0  0
 24 53  1  0  0  0  0
 25 54  1  0  0  0  0
 25 55  1  0  0  0  0
 26 56  1  0  0  0  0
 26 57  1  0  0  0  0
 28 58  1  0  0  0  0
 30 59  1  0  0  0  0
M  END
> <clash_score>
0

> <docking_score>
-6.772126197814941

> <overlap_score>
1.0056053400039673

$$$$
BENZO_71_1
  -OEChem-08232013443D

 47 50  0     0  0  0  0  0  0999 V2000
    4.2750    1.7050   20.8490 C   0  0  0  0  0  0  0  0  0  0  0  0
    3.9160    2.0630   19.5520 C   0  0  0  0  0  0  0  0  0  0  0  0
    5.4210    0.9600   21.0930 C   0  0  0  0  0  0  0  0  0  0  0  0
    8.9960   -2.3380   25.5320 C   0  0  0  0  0  0  0  0  0  0  0  0
    9.6730   -3.4710   23.5300 C   0  0  0  0  0  0  0  0  0  0  0  0
    4.6890    1.6810   18.4640 C   0  0  0  0  0  0  0  0  0  0  0  0
    9.0720   -1.1280   24.8640 C   0  0  0  0  0  0  0  0  0  0  0  0
    9.7200   -2.2600   22.8630 C   0  0  0  0  0  0  0  0  0  0  0  0
   12.4196    2.0953   23.0237 C   0  0  0  0  0  0  0  0  0  0  0  0
   12.2925    0.4312   24.4553 C   0  0  0  0  0  0  0  0  0  0  0  0
    6.1790    0.5730   19.9990 C   0  0  0  0  0  0  0  0  0  0  0  0
    9.3070   -3.5340   24.8780 C   0  0  0  0  0  0  0  0  0  0  0  0
   11.5051    1.2687   23.7036 C   0  0  0  0  0  0  0  0  0  0  0  0
    5.8300    0.9190   18.6970 C   0  0  0  0  0  0  0  0  0  0  0  0
    9.3350   -1.0880   23.5010 C   0  0  0  0  0  0  0  0  0  0  0  0
    7.3170   -0.1610   19.8550 C   0  0  0  0  0  0  0  0  0  0  0  0
    9.0420    0.3700   21.5280 C   0  0  0  0  0  0  0  0  0  0  0  0
    9.2505   -4.8264   25.5904 C   0  0  0  0  0  0  0  0  0  0  0  0
   14.7698    0.1964   24.7497 C   0  0  0  0  0  0  0  0  0  0  0  0
   10.0059    1.2962   23.6279 C   0  0  0  0  0  0  0  0  0  0  0  0
   13.6907    1.8091   23.3177 N   0  0  0  0  0  0  0  0  0  0  0  0
    7.6390   -0.2680   18.5410 N   0  0  0  0  0  0  0  0  0  0  0  0
    6.7580    0.3810   17.8350 N   0  0  0  0  0  0  0  0  0  0  0  0
   13.5805    0.7932   24.1907 N   0  0  0  0  0  0  0  0  0  0  0  0
    8.1890   -0.7180   20.8700 N   0  0  0  0  0  0  0  0  0  0  0  0
    9.4560    0.1560   22.8130 N   0  0  0  0  0  0  0  0  0  0  0  0
    9.2690    1.4140   20.9380 O   0  0  0  0  0  0  0  0  0  0  0  0
    3.6468    2.0173   21.6825 H   0  0  0  0  0  0  0  0  0  0  0  0
    3.0153    2.6527   19.3907 H   0  0  0  0  0  0  0  0  0  0  0  0
    5.7015    0.6980   22.1071 H   0  0  0  0  0  0  0  0  0  0  0  0
    8.6919   -2.3557   26.5813 H   0  0  0  0  0  0  0  0  0  0  0  0
    9.9267   -4.3907   22.9939 H   0  0  0  0  0  0  0  0  0  0  0  0
    4.4064    1.9744   17.4453 H   0  0  0  0  0  0  0  0  0  0  0  0
    8.9217   -0.1995   25.4231 H   0  0  0  0  0  0  0  0  0  0  0  0
   10.0653   -2.2339   21.8256 H   0  0  0  0  0  0  0  0  0  0  0  0
   12.2152    2.8956   22.3266 H   0  0  0  0  0  0  0  0  0  0  0  0
   12.0519   -0.3708   25.1401 H   0  0  0  0  0  0  0  0  0  0  0  0
    8.2503   -5.2678   25.5020 H   0  0  0  0  0  0  0  0  0  0  0  0
    9.9817   -5.5374   25.1845 H   0  0  0  0  0  0  0  0  0  0  0  0
    9.4841   -4.7043   26.6562 H   0  0  0  0  0  0  0  0  0  0  0  0
   15.0768   -0.6221   24.0934 H   0  0  0  0  0  0  0  0  0  0  0  0
   15.5591    0.9504   24.8155 H   0  0  0  0  0  0  0  0  0  0  0  0
   14.5485   -0.1788   25.7528 H   0  0  0  0  0  0  0  0  0  0  0  0
    9.5675    1.2266   24.6294 H   0  0  0  0  0  0  0  0  0  0  0  0
    9.6520    2.2318   23.1823 H   0  0  0  0  0  0  0  0  0  0  0  0
    6.8044    0.4388   16.8592 H   0  0  0  0  0  0  0  0  0  0  0  0
    8.2409   -1.5618   21.0967 H   0  0  0  0  0  0  0  0  0  0  0  0
  1  2  1  0  0  0  0
  1  3  2  0  0  0  0
  2  6  2  0  0  0  0
  3 11  1  0  0  0  0
  4  7  2  0  0  0  0
  4 12  1  0  0  0  0
  5  8  1  0  0  0  0
  5 12  2  0  0  0  0
  6 14  1  0  0  0  0
  7 15  1  0  0  0  0
  8 15  2  0  0  0  0
  9 13  1  0  0  0  0
  9 21  2  0  0  0  0
 10 13  2  0  0  0  0
 10 24  1  0  0  0  0
 11 14  2  0  0  0  0
 11 16  1  0  0  0  0
 12 18  1  0  0  0  0
 13 20  1  0  0  0  0
 14 23  1  0  0  0  0
 15 26  1  0  0  0  0
 16 22  2  0  0  0  0
 16 25  1  0  0  0  0
 17 25  1  0  0  0  0
 17 26  1  0  0  0  0
 17 27  2  0  0  0  0
 19 24  1  0  0  0  0
 20 26  1  0  0  0  0
 21 24  1  0  0  0  0
 22 23  1  0  0  0  0
  1 28  1  0  0  0  0
  2 29  1  0  0  0  0
  3 30  1  0  0  0  0
  4 31  1  0  0  0  0
  5 32  1  0  0  0  0
  6 33  1  0  0  0  0
  7 34  1  0  0  0  0
  8 35  1  0  0  0  0
  9 36  1  0  0  0  0
 10 37  1  0  0  0  0
 18 38  1  0  0  0  0
 18 39  1  0  0  0  0
 18 40  1  0  0  0  0
 19 41  1  0  0  0  0
 19 42  1  0  0  0  0
 19 43  1  0  0  0  0
 20 44  1  0  0  0  0
 20 45  1  0  0  0  0
 23 46  1  0  0  0  0
 25 47  1  0  0  0  0
M  END
> <clash_score>
0

> <docking_score>
-7.698667526245117

> <overlap_score>
0.9384521842002869

$$$$
BENZO_70_1
  -OEChem-08232013443D

 47 50  0     0  0  0  0  0  0999 V2000
    4.2750    1.7050   20.8490 C   0  0  0  0  0  0  0  0  0  0  0  0
    3.9160    2.0630   19.5520 C   0  0  0  0  0  0  0  0  0  0  0  0
   13.6502    2.1475   23.0230 C   0  0  0  0  0  0  0  0  0  0  0  0
    5.4210    0.9600   21.0930 C   0  0  0  0  0  0  0  0  0  0  0  0
   12.2574    2.1717   22.9523 C   0  0  0  0  0  0  0  0  0  0  0  0
    8.9960   -2.3380   25.5320 C   0  0  0  0  0  0  0  0  0  0  0  0
    9.6730   -3.4710   23.5300 C   0  0  0  0  0  0  0  0  0  0  0  0
    4.6890    1.6810   18.4640 C   0  0  0  0  0  0  0  0  0  0  0  0
    9.0720   -1.1280   24.8640 C   0  0  0  0  0  0  0  0  0  0  0  0
    9.7200   -2.2600   22.8630 C   0  0  0  0  0  0  0  0  0  0  0  0
   14.2909    1.2202   23.8448 C   0  0  0  0  0  0  0  0  0  0  0  0
   12.1457    0.3414   24.5254 C   0  0  0  0  0  0  0  0  0  0  0  0
    6.1790    0.5730   19.9990 C   0  0  0  0  0  0  0  0  0  0  0  0
    9.3070   -3.5340   24.8780 C   0  0  0  0  0  0  0  0  0  0  0  0
   11.5051    1.2687   23.7036 C   0  0  0  0  0  0  0  0  0  0  0  0
    5.8300    0.9190   18.6970 C   0  0  0  0  0  0  0  0  0  0  0  0
    9.3350   -1.0880   23.5010 C   0  0  0  0  0  0  0  0  0  0  0  0
   13.5386    0.3171   24.5960 C   0  0  0  0  0  0  0  0  0  0  0  0
    7.3170   -0.1610   19.8550 C   0  0  0  0  0  0  0  0  0  0  0  0
    9.0420    0.3700   21.5280 C   0  0  0  0  0  0  0  0  0  0  0  0
    9.2505   -4.8264   25.5904 C   0  0  0  0  0  0  0  0  0  0  0  0
   10.0059    1.2962   23.6279 C   0  0  0  0  0  0  0  0  0  0  0  0
    7.6390   -0.2680   18.5410 N   0  0  0  0  0  0  0  0  0  0  0  0
    6.7580    0.3810   17.8350 N   0  0  0  0  0  0  0  0  0  0  0  0
    8.1890   -0.7180   20.8700 N   0  0  0  0  0  0  0  0  0  0  0  0
    9.4560    0.1560   22.8130 N   0  0  0  0  0  0  0  0  0  0  0  0
    9.2690    1.4140   20.9380 O   0  0  0  0  0  0  0  0  0  0  0  0
   14.3296   -0.8260   25.6106 Cl  0  0  0  0  0  0  0  0  0  0  0  0
    3.6468    2.0173   21.6825 H   0  0  0  0  0  0  0  0  0  0  0  0
    3.0153    2.6527   19.3907 H   0  0  0  0  0  0  0  0  0  0  0  0
   14.2356    2.8510   22.4380 H   0  0  0  0  0  0  0  0  0  0  0  0
    5.7015    0.6980   22.1071 H   0  0  0  0  0  0  0  0  0  0  0  0
   11.7666    2.8978   22.3094 H   0  0  0  0  0  0  0  0  0  0  0  0
    8.6919   -2.3557   26.5813 H   0  0  0  0  0  0  0  0  0  0  0  0
    9.9267   -4.3907   22.9939 H   0  0  0  0  0  0  0  0  0  0  0  0
    4.4064    1.9744   17.4453 H   0  0  0  0  0  0  0  0  0  0  0  0
    8.9217   -0.1995   25.4231 H   0  0  0  0  0  0  0  0  0  0  0  0
   10.0653   -2.2339   21.8256 H   0  0  0  0  0  0  0  0  0  0  0  0
   15.3771    1.2130   23.8902 H   0  0  0  0  0  0  0  0  0  0  0  0
   11.5548   -0.3609   25.1088 H   0  0  0  0  0  0  0  0  0  0  0  0
    8.2503   -5.2678   25.5020 H   0  0  0  0  0  0  0  0  0  0  0  0
    9.9817   -5.5374   25.1845 H   0  0  0  0  0  0  0  0  0  0  0  0
    9.4841   -4.7043   26.6562 H   0  0  0  0  0  0  0  0  0  0  0  0
    9.5675    1.2266   24.6294 H   0  0  0  0  0  0  0  0  0  0  0  0
    9.6520    2.2318   23.1823 H   0  0  0  0  0  0  0  0  0  0  0  0
    6.8044    0.4388   16.8592 H   0  0  0  0  0  0  0  0  0  0  0  0
    8.2409   -1.5618   21.0967 H   0  0  0  0  0  0  0  0  0  0  0  0
  1  2  1  0  0  0  0
  1  4  2  0  0  0  0
  2  8  2  0  0  0  0
  3  5  2  0  0  0  0
  3 11  1  0  0  0  0
  4 13  1  0  0  0  0
  5 15  1  0  0  0  0
  6  9  2  0  0  0  0
  6 14  1  0  0  0  0
  7 10  1  0  0  0  0
  7 14  2  0  0  0  0
  8 16  1  0  0  0  0
  9 17  1  0  0  0  0
 10 17  2  0  0  0  0
 11 18  2  0  0  0  0
 12 15  2  0  0  0  0
 12 18  1  0  0  0  0
 13 16  2  0  0  0  0
 13 19  1  0  0  0  0
 14 21  1  0  0  0  0
 15 22  1  0  0  0  0
 16 24  1  0  0  0  0
 17 26  1  0  0  0  0
 18 28  1  0  0  0  0
 19 23  2  0  0  0  0
 19 25  1  0  0  0  0
 20 25  1  0  0  0  0
 20 26  1  0  0  0  0
 20 27  2  0  0  0  0
 22 26  1  0  0  0  0
 23 24  1  0  0  0  0
  1 29  1  0  0  0  0
  2 30  1  0  0  0  0
  3 31  1  0  0  0  0
  4 32  1  0  0  0  0
  5 33  1  0  0  0  0
  6 34  1  0  0  0  0
  7 35  1  0  0  0  0
  8 36  1  0  0  0  0
  9 37  1  0  0  0  0
 10 38  1  0  0  0  0
 11 39  1  0  0  0  0
 12 40  1  0  0  0  0
 21 41  1  0  0  0  0
 21 42  1  0  0  0  0
 21 43  1  0  0  0  0
 22 44  1  0  0  0  0
 22 45  1  0  0  0  0
 24 46  1  0  0  0  0
 25 47  1  0  0  0  0
M  END
> <clash_score>
0.6657049438822022

> <docking_score>
-6.948580741882324

> <overlap_score>
0.9426653385162354

$$$$
BENZO_72_1
  -OEChem-08232013443D

 45 48  0     0  0  0  0  0  0999 V2000
    4.2750    1.7050   20.8490 C   0  0  0  0  0  0  0  0  0  0  0  0
    3.9160    2.0630   19.5520 C   0  0  0  0  0  0  0  0  0  0  0  0
    5.4210    0.9600   21.0930 C   0  0  0  0  0  0  0  0  0  0  0  0
    4.6890    1.6810   18.4640 C   0  0  0  0  0  0  0  0  0  0  0  0
    9.0720   -1.1280   24.8640 C   0  0  0  0  0  0  0  0  0  0  0  0
    9.7200   -2.2600   22.8630 C   0  0  0  0  0  0  0  0  0  0  0  0
    8.9960   -2.3380   25.5320 C   0  0  0  0  0  0  0  0  0  0  0  0
    9.6730   -3.4710   23.5300 C   0  0  0  0  0  0  0  0  0  0  0  0
   12.3157    2.4334   23.8330 C   0  0  0  0  0  0  0  0  0  0  0  0
   13.6579    2.1272   23.8789 C   0  0  0  0  0  0  0  0  0  0  0  0
   12.2590    0.1166   23.6552 C   0  0  0  0  0  0  0  0  0  0  0  0
    6.1790    0.5730   19.9990 C   0  0  0  0  0  0  0  0  0  0  0  0
   11.5051    1.2687   23.7036 C   0  0  0  0  0  0  0  0  0  0  0  0
    5.8300    0.9190   18.6970 C   0  0  0  0  0  0  0  0  0  0  0  0
    9.3350   -1.0880   23.5010 C   0  0  0  0  0  0  0  0  0  0  0  0
    9.3070   -3.5340   24.8780 C   0  0  0  0  0  0  0  0  0  0  0  0
    7.3170   -0.1610   19.8550 C   0  0  0  0  0  0  0  0  0  0  0  0
    9.0420    0.3700   21.5280 C   0  0  0  0  0  0  0  0  0  0  0  0
    8.8720   -4.6805   26.9013 C   0  0  0  0  0  0  0  0  0  0  0  0
   10.0059    1.2962   23.6279 C   0  0  0  0  0  0  0  0  0  0  0  0
    7.6390   -0.2680   18.5410 N   0  0  0  0  0  0  0  0  0  0  0  0
    6.7580    0.3810   17.8350 N   0  0  0  0  0  0  0  0  0  0  0  0
    8.1890   -0.7180   20.8700 N   0  0  0  0  0  0  0  0  0  0  0  0
    9.4560    0.1560   22.8130 N   0  0  0  0  0  0  0  0  0  0  0  0
    9.2690    1.4140   20.9380 O   0  0  0  0  0  0  0  0  0  0  0  0
    9.2555   -4.7124   25.5274 O   0  0  0  0  0  0  0  0  0  0  0  0
   13.9366    0.4414   23.7659 S   0  0  0  0  0  0  0  0  0  0  0  0
    3.6468    2.0173   21.6825 H   0  0  0  0  0  0  0  0  0  0  0  0
    3.0153    2.6527   19.3907 H   0  0  0  0  0  0  0  0  0  0  0  0
    5.7015    0.6980   22.1071 H   0  0  0  0  0  0  0  0  0  0  0  0
    4.4064    1.9744   17.4453 H   0  0  0  0  0  0  0  0  0  0  0  0
    8.9221   -0.1995   25.4231 H   0  0  0  0  0  0  0  0  0  0  0  0
   10.0642   -2.2347   21.8253 H   0  0  0  0  0  0  0  0  0  0  0  0
    8.6902   -2.3588   26.5805 H   0  0  0  0  0  0  0  0  0  0  0  0
    9.9254   -4.3921   22.9961 H   0  0  0  0  0  0  0  0  0  0  0  0
   11.9375    3.4463   23.8895 H   0  0  0  0  0  0  0  0  0  0  0  0
   14.4883    2.8127   23.9725 H   0  0  0  0  0  0  0  0  0  0  0  0
   11.9089   -0.9019   23.5590 H   0  0  0  0  0  0  0  0  0  0  0  0
    8.8711   -5.6964   27.3038 H   0  0  0  0  0  0  0  0  0  0  0  0
    7.8758   -4.2402   26.9923 H   0  0  0  0  0  0  0  0  0  0  0  0
    9.5894   -4.0716   27.4566 H   0  0  0  0  0  0  0  0  0  0  0  0
    9.5675    1.2266   24.6294 H   0  0  0  0  0  0  0  0  0  0  0  0
    9.6520    2.2318   23.1823 H   0  0  0  0  0  0  0  0  0  0  0  0
    6.8044    0.4388   16.8592 H   0  0  0  0  0  0  0  0  0  0  0  0
    8.2409   -1.5618   21.0967 H   0  0  0  0  0  0  0  0  0  0  0  0
  1  2  1  0  0  0  0
  1  3  2  0  0  0  0
  2  4  2  0  0  0  0
  3 12  1  0  0  0  0
  4 14  1  0  0  0  0
  5  7  2  0  0  0  0
  5 15  1  0  0  0  0
  6  8  1  0  0  0  0
  6 15  2  0  0  0  0
  7 16  1  0  0  0  0
  8 16  2  0  0  0  0
  9 10  2  0  0  0  0
  9 13  1  0  0  0  0
 10 27  1  0  0  0  0
 11 13  2  0  0  0  0
 11 27  1  0  0  0  0
 12 14  2  0  0  0  0
 12 17  1  0  0  0  0
 13 20  1  0  0  0  0
 14 22  1  0  0  0  0
 15 24  1  0  0  0  0
 16 26  1  0  0  0  0
 17 21  2  0  0  0  0
 17 23  1  0  0  0  0
 18 23  1  0  0  0  0
 18 24  1  0  0  0  0
 18 25  2  0  0  0  0
 19 26  1  0  0  0  0
 20 24  1  0  0  0  0
 21 22  1  0  0  0  0
  1 28  1  0  0  0  0
  2 29  1  0  0  0  0
  3 30  1  0  0  0  0
  4 31  1  0  0  0  0
  5 32  1  0  0  0  0
  6 33  1  0  0  0  0
  7 34  1  0  0  0  0
  8 35  1  0  0  0  0
  9 36  1  0  0  0  0
 10 37  1  0  0  0  0
 11 38  1  0  0  0  0
 19 39  1  0  0  0  0
 19 40  1  0  0  0  0
 19 41  1  0  0  0  0
 20 42  1  0  0  0  0
 20 43  1  0  0  0  0
 22 44  1  0  0  0  0
 23 45  1  0  0  0  0
M  END
> <clash_score>
0

> <docking_score>
-6.883617877960205

> <overlap_score>
0.94752037525177

$$$$
BENZO_73_1
  -OEChem-08232013443D

 48 51  0     0  0  0  0  0  0999 V2000
   14.2909    1.2180   23.8427 C   0  0  0  0  0  0  0  0  0  0  0  0
    4.2750    1.7050   20.8490 C   0  0  0  0  0  0  0  0  0  0  0  0
   13.5324    0.5493   24.8034 C   0  0  0  0  0  0  0  0  0  0  0  0
   13.6566    1.9121   22.8124 C   0  0  0  0  0  0  0  0  0  0  0  0
    3.9160    2.0630   19.5520 C   0  0  0  0  0  0  0  0  0  0  0  0
    5.4210    0.9600   21.0930 C   0  0  0  0  0  0  0  0  0  0  0  0
   12.1395    0.5746   24.7339 C   0  0  0  0  0  0  0  0  0  0  0  0
   12.2637    1.9375   22.7428 C   0  0  0  0  0  0  0  0  0  0  0  0
    4.6890    1.6810   18.4640 C   0  0  0  0  0  0  0  0  0  0  0  0
    9.0720   -1.1280   24.8640 C   0  0  0  0  0  0  0  0  0  0  0  0
    9.7200   -2.2600   22.8630 C   0  0  0  0  0  0  0  0  0  0  0  0
    8.9960   -2.3380   25.5320 C   0  0  0  0  0  0  0  0  0  0  0  0
    9.6730   -3.4710   23.5300 C   0  0  0  0  0  0  0  0  0  0  0  0
    6.1790    0.5730   19.9990 C   0  0  0  0  0  0  0  0  0  0  0  0
   11.5051    1.2687   23.7036 C   0  0  0  0  0  0  0  0  0  0  0  0
    5.8300    0.9190   18.6970 C   0  0  0  0  0  0  0  0  0  0  0  0
    9.3350   -1.0880   23.5010 C   0  0  0  0  0  0  0  0  0  0  0  0
    9.3070   -3.5340   24.8780 C   0  0  0  0  0  0  0  0  0  0  0  0
    7.3170   -0.1610   19.8550 C   0  0  0  0  0  0  0  0  0  0  0  0
    9.0420    0.3700   21.5280 C   0  0  0  0  0  0  0  0  0  0  0  0
    9.5894   -5.8809   24.7798 C   0  0  0  0  0  0  0  0  0  0  0  0
   10.0059    1.2962   23.6279 C   0  0  0  0  0  0  0  0  0  0  0  0
    7.6390   -0.2680   18.5410 N   0  0  0  0  0  0  0  0  0  0  0  0
    6.7580    0.3810   17.8350 N   0  0  0  0  0  0  0  0  0  0  0  0
    8.1890   -0.7180   20.8700 N   0  0  0  0  0  0  0  0  0  0  0  0
    9.4560    0.1560   22.8130 N   0  0  0  0  0  0  0  0  0  0  0  0
    9.2690    1.4140   20.9380 O   0  0  0  0  0  0  0  0  0  0  0  0
    9.2555   -4.7124   25.5274 O   0  0  0  0  0  0  0  0  0  0  0  0
   15.3755    1.1993   23.8978 H   0  0  0  0  0  0  0  0  0  0  0  0
    3.6468    2.0173   21.6825 H   0  0  0  0  0  0  0  0  0  0  0  0
   14.0261    0.0096   25.6063 H   0  0  0  0  0  0  0  0  0  0  0  0
   14.2468    2.4338   22.0649 H   0  0  0  0  0  0  0  0  0  0  0  0
    3.0153    2.6527   19.3907 H   0  0  0  0  0  0  0  0  0  0  0  0
    5.7015    0.6980   22.1071 H   0  0  0  0  0  0  0  0  0  0  0  0
   11.5566    0.0505   25.4867 H   0  0  0  0  0  0  0  0  0  0  0  0
   11.7781    2.4807   21.9365 H   0  0  0  0  0  0  0  0  0  0  0  0
    4.4064    1.9744   17.4453 H   0  0  0  0  0  0  0  0  0  0  0  0
    8.9221   -0.1995   25.4231 H   0  0  0  0  0  0  0  0  0  0  0  0
   10.0642   -2.2347   21.8253 H   0  0  0  0  0  0  0  0  0  0  0  0
    8.6902   -2.3588   26.5805 H   0  0  0  0  0  0  0  0  0  0  0  0
    9.9254   -4.3921   22.9961 H   0  0  0  0  0  0  0  0  0  0  0  0
    9.5074   -6.7611   25.4222 H   0  0  0  0  0  0  0  0  0  0  0  0
   10.6088   -5.7902   24.3963 H   0  0  0  0  0  0  0  0  0  0  0  0
    8.8944   -5.9778   23.9424 H   0  0  0  0  0  0  0  0  0  0  0  0
    9.5675    1.2266   24.6294 H   0  0  0  0  0  0  0  0  0  0  0  0
    9.6520    2.2318   23.1823 H   0  0  0  0  0  0  0  0  0  0  0  0
    6.8044    0.4388   16.8592 H   0  0  0  0  0  0  0  0  0  0  0  0
    8.2409   -1.5618   21.0967 H   0  0  0  0  0  0  0  0  0  0  0  0
  1  3  1  0  0  0  0
  1  4  2  0  0  0  0
  2  5  1  0  0  0  0
  2  6  2  0  0  0  0
  3  7  2  0  0  0  0
  4  8  1  0  0  0  0
  5  9  2  0  0  0  0
  6 14  1  0  0  0  0
  7 15  1  0  0  0  0
  8 15  2  0  0  0  0
  9 16  1  0  0  0  0
 10 12  2  0  0  0  0
 10 17  1  0  0  0  0
 11 13  1  0  0  0  0
 11 17  2  0  0  0  0
 12 18  1  0  0  0  0
 13 18  2  0  0  0  0
 14 16  2  0  0  0  0
 14 19  1  0  0  0  0
 15 22  1  0  0  0  0
 16 24  1  0  0  0  0
 17 26  1  0  0  0  0
 18 28  1  0  0  0  0
 19 23  2  0  0  0  0
 19 25  1  0  0  0  0
 20 25  1  0  0  0  0
 20 26  1  0  0  0  0
 20 27  2  0  0  0  0
 21 28  1  0  0  0  0
 22 26  1  0  0  0  0
 23 24  1  0  0  0  0
  1 29  1  0  0  0  0
  2 30  1  0  0  0  0
  3 31  1  0  0  0  0
  4 32  1  0  0  0  0
  5 33  1  0  0  0  0
  6 34  1  0  0  0  0
  7 35  1  0  0  0  0
  8 36  1  0  0  0  0
  9 37  1  0  0  0  0
 10 38  1  0  0  0  0
 11 39  1  0  0  0  0
 12 40  1  0  0  0  0
 13 41  1  0  0  0  0
 21 42  1  0  0  0  0
 21 43  1  0  0  0  0
 21 44  1  0  0  0  0
 22 45  1  0  0  0  0
 22 46  1  0  0  0  0
 24 47  1  0  0  0  0
 25 48  1  0  0  0  0
M  END
> <clash_score>
0

> <docking_score>
-7.823936462402344

> <overlap_score>
0.9633382558822632

$$$$
BENZO_75_1
  -OEChem-08232013443D

 48 51  0     0  0  0  0  0  0999 V2000
    4.2750    1.7050   20.8490 C   0  0  0  0  0  0  0  0  0  0  0  0
    3.9160    2.0630   19.5520 C   0  0  0  0  0  0  0  0  0  0  0  0
    5.4210    0.9600   21.0930 C   0  0  0  0  0  0  0  0  0  0  0  0
    4.6890    1.6810   18.4640 C   0  0  0  0  0  0  0  0  0  0  0  0
    9.0720   -1.1280   24.8640 C   0  0  0  0  0  0  0  0  0  0  0  0
    9.7200   -2.2600   22.8630 C   0  0  0  0  0  0  0  0  0  0  0  0
    8.9960   -2.3380   25.5320 C   0  0  0  0  0  0  0  0  0  0  0  0
    9.6730   -3.4710   23.5300 C   0  0  0  0  0  0  0  0  0  0  0  0
   12.4196    2.0953   23.0237 C   0  0  0  0  0  0  0  0  0  0  0  0
   12.2925    0.4312   24.4553 C   0  0  0  0  0  0  0  0  0  0  0  0
    6.1790    0.5730   19.9990 C   0  0  0  0  0  0  0  0  0  0  0  0
   11.5051    1.2687   23.7036 C   0  0  0  0  0  0  0  0  0  0  0  0
    5.8300    0.9190   18.6970 C   0  0  0  0  0  0  0  0  0  0  0  0
    9.3350   -1.0880   23.5010 C   0  0  0  0  0  0  0  0  0  0  0  0
    9.3070   -3.5340   24.8780 C   0  0  0  0  0  0  0  0  0  0  0  0
    7.3170   -0.1610   19.8550 C   0  0  0  0  0  0  0  0  0  0  0  0
    9.0420    0.3700   21.5280 C   0  0  0  0  0  0  0  0  0  0  0  0
   14.7698    0.1964   24.7497 C   0  0  0  0  0  0  0  0  0  0  0  0
    8.8720   -4.6805   26.9013 C   0  0  0  0  0  0  0  0  0  0  0  0
   10.0059    1.2962   23.6279 C   0  0  0  0  0  0  0  0  0  0  0  0
   13.6907    1.8091   23.3177 N   0  0  0  0  0  0  0  0  0  0  0  0
    7.6390   -0.2680   18.5410 N   0  0  0  0  0  0  0  0  0  0  0  0
    6.7580    0.3810   17.8350 N   0  0  0  0  0  0  0  0  0  0  0  0
   13.5805    0.7932   24.1907 N   0  0  0  0  0  0  0  0  0  0  0  0
    8.1890   -0.7180   20.8700 N   0  0  0  0  0  0  0  0  0  0  0  0
    9.4560    0.1560   22.8130 N   0  0  0  0  0  0  0  0  0  0  0  0
    9.2690    1.4140   20.9380 O   0  0  0  0  0  0  0  0  0  0  0  0
    9.2555   -4.7124   25.5274 O   0  0  0  0  0  0  0  0  0  0  0  0
    3.6468    2.0173   21.6825 H   0  0  0  0  0  0  0  0  0  0  0  0
    3.0153    2.6527   19.3907 H   0  0  0  0  0  0  0  0  0  0  0  0
    5.7015    0.6980   22.1071 H   0  0  0  0  0  0  0  0  0  0  0  0
    4.4064    1.9744   17.4453 H   0  0  0  0  0  0  0  0  0  0  0  0
    8.9221   -0.1995   25.4231 H   0  0  0  0  0  0  0  0  0  0  0  0
   10.0642   -2.2347   21.8253 H   0  0  0  0  0  0  0  0  0  0  0  0
    8.6902   -2.3588   26.5805 H   0  0  0  0  0  0  0  0  0  0  0  0
    9.9254   -4.3921   22.9961 H   0  0  0  0  0  0  0  0  0  0  0  0
   12.2152    2.8956   22.3266 H   0  0  0  0  0  0  0  0  0  0  0  0
   12.0519   -0.3708   25.1401 H   0  0  0  0  0  0  0  0  0  0  0  0
   15.0768   -0.6221   24.0934 H   0  0  0  0  0  0  0  0  0  0  0  0
   15.5591    0.9504   24.8155 H   0  0  0  0  0  0  0  0  0  0  0  0
   14.5485   -0.1788   25.7528 H   0  0  0  0  0  0  0  0  0  0  0  0
    8.8711   -5.6964   27.3038 H   0  0  0  0  0  0  0  0  0  0  0  0
    7.8758   -4.2402   26.9923 H   0  0  0  0  0  0  0  0  0  0  0  0
    9.5894   -4.0716   27.4566 H   0  0  0  0  0  0  0  0  0  0  0  0
    9.5675    1.2266   24.6294 H   0  0  0  0  0  0  0  0  0  0  0  0
    9.6520    2.2318   23.1823 H   0  0  0  0  0  0  0  0  0  0  0  0
    6.8044    0.4388   16.8592 H   0  0  0  0  0  0  0  0  0  0  0  0
    8.2409   -1.5618   21.0967 H   0  0  0  0  0  0  0  0  0  0  0  0
  1  2  1  0  0  0  0
  1  3  2  0  0  0  0
  2  4  2  0  0  0  0
  3 11  1  0  0  0  0
  4 13  1  0  0  0  0
  5  7  2  0  0  0  0
  5 14  1  0  0  0  0
  6  8  1  0  0  0  0
  6 14  2  0  0  0  0
  7 15  1  0  0  0  0
  8 15  2  0  0  0  0
  9 12  1  0  0  0  0
  9 21  2  0  0  0  0
 10 12  2  0  0  0  0
 10 24  1  0  0  0  0
 11 13  2  0  0  0  0
 11 16  1  0  0  0  0
 12 20  1  0  0  0  0
 13 23  1  0  0  0  0
 14 26  1  0  0  0  0
 15 28  1  0  0  0  0
 16 22  2  0  0  0  0
 16 25  1  0  0  0  0
 17 25  1  0  0  0  0
 17 26  1  0  0  0  0
 17 27  2  0  0  0  0
 18 24  1  0  0  0  0
 19 28  1  0  0  0  0
 20 26  1  0  0  0  0
 21 24  1  0  0  0  0
 22 23  1  0  0  0  0
  1 29  1  0  0  0  0
  2 30  1  0  0  0  0
  3 31  1  0  0  0  0
  4 32  1  0  0  0  0
  5 33  1  0  0  0  0
  6 34  1  0  0  0  0
  7 35  1  0  0  0  0
  8 36  1  0  0  0  0
  9 37  1  0  0  0  0
 10 38  1  0  0  0  0
 18 39  1  0  0  0  0
 18 40  1  0  0  0  0
 18 41  1  0  0  0  0
 19 42  1  0  0  0  0
 19 43  1  0  0  0  0
 19 44  1  0  0  0  0
 20 45  1  0  0  0  0
 20 46  1  0  0  0  0
 23 47  1  0  0  0  0
 25 48  1  0  0  0  0
M  END
> <clash_score>
0

> <docking_score>
-7.434966087341309

> <overlap_score>
0.9608055353164673

$$$$
BENZO_74_1
  -OEChem-08232013443D

 48 51  0     0  0  0  0  0  0999 V2000
    4.2750    1.7050   20.8490 C   0  0  0  0  0  0  0  0  0  0  0  0
    3.9160    2.0630   19.5520 C   0  0  0  0  0  0  0  0  0  0  0  0
   13.6502    2.1475   23.0230 C   0  0  0  0  0  0  0  0  0  0  0  0
    5.4210    0.9600   21.0930 C   0  0  0  0  0  0  0  0  0  0  0  0
   12.2574    2.1717   22.9523 C   0  0  0  0  0  0  0  0  0  0  0  0
    4.6890    1.6810   18.4640 C   0  0  0  0  0  0  0  0  0  0  0  0
    9.0720   -1.1280   24.8640 C   0  0  0  0  0  0  0  0  0  0  0  0
    9.7200   -2.2600   22.8630 C   0  0  0  0  0  0  0  0  0  0  0  0
    8.9960   -2.3380   25.5320 C   0  0  0  0  0  0  0  0  0  0  0  0
    9.6730   -3.4710   23.5300 C   0  0  0  0  0  0  0  0  0  0  0  0
   14.2909    1.2202   23.8448 C   0  0  0  0  0  0  0  0  0  0  0  0
   12.1457    0.3414   24.5254 C   0  0  0  0  0  0  0  0  0  0  0  0
    6.1790    0.5730   19.9990 C   0  0  0  0  0  0  0  0  0  0  0  0
   11.5051    1.2687   23.7036 C   0  0  0  0  0  0  0  0  0  0  0  0
    5.8300    0.9190   18.6970 C   0  0  0  0  0  0  0  0  0  0  0  0
    9.3350   -1.0880   23.5010 C   0  0  0  0  0  0  0  0  0  0  0  0
    9.3070   -3.5340   24.8780 C   0  0  0  0  0  0  0  0  0  0  0  0
   13.5386    0.3171   24.5960 C   0  0  0  0  0  0  0  0  0  0  0  0
    7.3170   -0.1610   19.8550 C   0  0  0  0  0  0  0  0  0  0  0  0
    9.0420    0.3700   21.5280 C   0  0  0  0  0  0  0  0  0  0  0  0
    8.8720   -4.6805   26.9013 C   0  0  0  0  0  0  0  0  0  0  0  0
   10.0059    1.2962   23.6279 C   0  0  0  0  0  0  0  0  0  0  0  0
    7.6390   -0.2680   18.5410 N   0  0  0  0  0  0  0  0  0  0  0  0
    6.7580    0.3810   17.8350 N   0  0  0  0  0  0  0  0  0  0  0  0
    8.1890   -0.7180   20.8700 N   0  0  0  0  0  0  0  0  0  0  0  0
    9.4560    0.1560   22.8130 N   0  0  0  0  0  0  0  0  0  0  0  0
    9.2690    1.4140   20.9380 O   0  0  0  0  0  0  0  0  0  0  0  0
    9.2555   -4.7124   25.5274 O   0  0  0  0  0  0  0  0  0  0  0  0
   14.3296   -0.8260   25.6106 Cl  0  0  0  0  0  0  0  0  0  0  0  0
    3.6468    2.0173   21.6825 H   0  0  0  0  0  0  0  0  0  0  0  0
    3.0153    2.6527   19.3907 H   0  0  0  0  0  0  0  0  0  0  0  0
   14.2356    2.8510   22.4380 H   0  0  0  0  0  0  0  0  0  0  0  0
    5.7015    0.6980   22.1071 H   0  0  0  0  0  0  0  0  0  0  0  0
   11.7666    2.8978   22.3094 H   0  0  0  0  0  0  0  0  0  0  0  0
    4.4064    1.9744   17.4453 H   0  0  0  0  0  0  0  0  0  0  0  0
    8.9221   -0.1995   25.4231 H   0  0  0  0  0  0  0  0  0  0  0  0
   10.0642   -2.2347   21.8253 H   0  0  0  0  0  0  0  0  0  0  0  0
    8.6902   -2.3588   26.5805 H   0  0  0  0  0  0  0  0  0  0  0  0
    9.9254   -4.3921   22.9961 H   0  0  0  0  0  0  0  0  0  0  0  0
   15.3771    1.2130   23.8902 H   0  0  0  0  0  0  0  0  0  0  0  0
   11.5548   -0.3609   25.1088 H   0  0  0  0  0  0  0  0  0  0  0  0
    8.8711   -5.6964   27.3038 H   0  0  0  0  0  0  0  0  0  0  0  0
    7.8758   -4.2402   26.9923 H   0  0  0  0  0  0  0  0  0  0  0  0
    9.5894   -4.0716   27.4566 H   0  0  0  0  0  0  0  0  0  0  0  0
    9.5675    1.2266   24.6294 H   0  0  0  0  0  0  0  0  0  0  0  0
    9.6520    2.2318   23.1823 H   0  0  0  0  0  0  0  0  0  0  0  0
    6.8044    0.4388   16.8592 H   0  0  0  0  0  0  0  0  0  0  0  0
    8.2409   -1.5618   21.0967 H   0  0  0  0  0  0  0  0  0  0  0  0
  1  2  1  0  0  0  0
  1  4  2  0  0  0  0
  2  6  2  0  0  0  0
  3  5  2  0  0  0  0
  3 11  1  0  0  0  0
  4 13  1  0  0  0  0
  5 14  1  0  0  0  0
  6 15  1  0  0  0  0
  7  9  2  0  0  0  0
  7 16  1  0  0  0  0
  8 10  1  0  0  0  0
  8 16  2  0  0  0  0
  9 17  1  0  0  0  0
 10 17  2  0  0  0  0
 11 18  2  0  0  0  0
 12 14  2  0  0  0  0
 12 18  1  0  0  0  0
 13 15  2  0  0  0  0
 13 19  1  0  0  0  0
 14 22  1  0  0  0  0
 15 24  1  0  0  0  0
 16 26  1  0  0  0  0
 17 28  1  0  0  0  0
 18 29  1  0  0  0  0
 19 23  2  0  0  0  0
 19 25  1  0  0  0  0
 20 25  1  0  0  0  0
 20 26  1  0  0  0  0
 20 27  2  0  0  0  0
 21 28  1  0  0  0  0
 22 26  1  0  0  0  0
 23 24  1  0  0  0  0
  1 30  1  0  0  0  0
  2 31  1  0  0  0  0
  3 32  1  0  0  0  0
  4 33  1  0  0  0  0
  5 34  1  0  0  0  0
  6 35  1  0  0  0  0
  7 36  1  0  0  0  0
  8 37  1  0  0  0  0
  9 38  1  0  0  0  0
 10 39  1  0  0  0  0
 11 40  1  0  0  0  0
 12 41  1  0  0  0  0
 21 42  1  0  0  0  0
 21 43  1  0  0  0  0
 21 44  1  0  0  0  0
 22 45  1  0  0  0  0
 22 46  1  0  0  0  0
 24 47  1  0  0  0  0
 25 48  1  0  0  0  0
M  END
> <clash_score>
0.6657049438822022

> <docking_score>
-6.684878826141357

> <overlap_score>
0.9649870991706848

$$$$
BENZO_77_1
  -OEChem-08232013443D

 58 62  0     0  0  0  0  0  0999 V2000
   14.2901    1.2070   23.8342 C   0  0  0  0  0  0  0  0  0  0  0  0
    4.2750    1.7050   20.8490 C   0  0  0  0  0  0  0  0  0  0  0  0
   13.5239    0.5665   24.8080 C   0  0  0  0  0  0  0  0  0  0  0  0
   13.6638    1.8841   22.7878 C   0  0  0  0  0  0  0  0  0  0  0  0
    3.9160    2.0630   19.5520 C   0  0  0  0  0  0  0  0  0  0  0  0
    5.4210    0.9600   21.0930 C   0  0  0  0  0  0  0  0  0  0  0  0
   12.1314    0.6030   24.7354 C   0  0  0  0  0  0  0  0  0  0  0  0
   12.2713    1.9205   22.7152 C   0  0  0  0  0  0  0  0  0  0  0  0
    4.6890    1.6810   18.4640 C   0  0  0  0  0  0  0  0  0  0  0  0
    8.9960   -2.3380   25.5320 C   0  0  0  0  0  0  0  0  0  0  0  0
    9.6730   -3.4710   23.5300 C   0  0  0  0  0  0  0  0  0  0  0  0
    9.0720   -1.1280   24.8640 C   0  0  0  0  0  0  0  0  0  0  0  0
    9.7200   -2.2600   22.8630 C   0  0  0  0  0  0  0  0  0  0  0  0
    6.1790    0.5730   19.9990 C   0  0  0  0  0  0  0  0  0  0  0  0
   11.5051    1.2800   23.6890 C   0  0  0  0  0  0  0  0  0  0  0  0
    5.8300    0.9190   18.6970 C   0  0  0  0  0  0  0  0  0  0  0  0
    9.3070   -3.5340   24.8780 C   0  0  0  0  0  0  0  0  0  0  0  0
    9.3350   -1.0880   23.5010 C   0  0  0  0  0  0  0  0  0  0  0  0
    7.3170   -0.1610   19.8550 C   0  0  0  0  0  0  0  0  0  0  0  0
    8.3597   -5.0073   26.6307 C   0  0  0  0  0  0  0  0  0  0  0  0
    9.0420    0.3700   21.5280 C   0  0  0  0  0  0  0  0  0  0  0  0
    8.4720   -6.3981   27.2296 C   0  0  0  0  0  0  0  0  0  0  0  0
    9.9252   -6.7605   27.4803 C   0  0  0  0  0  0  0  0  0  0  0  0
   10.7833   -6.6094   26.2282 C   0  0  0  0  0  0  0  0  0  0  0  0
   10.0539   -5.9099   25.0823 C   0  0  0  0  0  0  0  0  0  0  0  0
   10.0063    1.3195   23.6101 C   0  0  0  0  0  0  0  0  0  0  0  0
    7.6390   -0.2680   18.5410 N   0  0  0  0  0  0  0  0  0  0  0  0
    6.7580    0.3810   17.8350 N   0  0  0  0  0  0  0  0  0  0  0  0
    9.2529   -4.7797   25.5644 N   0  0  0  0  0  0  0  0  0  0  0  0
    8.1890   -0.7180   20.8700 N   0  0  0  0  0  0  0  0  0  0  0  0
    9.4560    0.1560   22.8130 N   0  0  0  0  0  0  0  0  0  0  0  0
    7.4954   -4.2356   27.0449 O   0  0  0  0  0  0  0  0  0  0  0  0
    9.2690    1.4140   20.9380 O   0  0  0  0  0  0  0  0  0  0  0  0
   15.3743    1.1796   23.8917 H   0  0  0  0  0  0  0  0  0  0  0  0
    3.6468    2.0173   21.6825 H   0  0  0  0  0  0  0  0  0  0  0  0
   14.0114    0.0402   25.6235 H   0  0  0  0  0  0  0  0  0  0  0  0
   14.2600    2.3838   22.0300 H   0  0  0  0  0  0  0  0  0  0  0  0
    3.0153    2.6527   19.3907 H   0  0  0  0  0  0  0  0  0  0  0  0
    5.7015    0.6980   22.1071 H   0  0  0  0  0  0  0  0  0  0  0  0
   11.5425    0.1009   25.4985 H   0  0  0  0  0  0  0  0  0  0  0  0
   11.7920    2.4504   21.8962 H   0  0  0  0  0  0  0  0  0  0  0  0
    4.4064    1.9744   17.4453 H   0  0  0  0  0  0  0  0  0  0  0  0
    8.6895   -2.3529   26.5807 H   0  0  0  0  0  0  0  0  0  0  0  0
    9.9262   -4.3897   22.9916 H   0  0  0  0  0  0  0  0  0  0  0  0
    8.9224   -0.1998   25.4238 H   0  0  0  0  0  0  0  0  0  0  0  0
   10.0649   -2.2343   21.8258 H   0  0  0  0  0  0  0  0  0  0  0  0
    7.9325   -6.4148   28.1641 H   0  0  0  0  0  0  0  0  0  0  0  0
    8.0254   -7.0920   26.5333 H   0  0  0  0  0  0  0  0  0  0  0  0
   10.3387   -6.1267   28.2923 H   0  0  0  0  0  0  0  0  0  0  0  0
    9.9904   -7.8023   27.8537 H   0  0  0  0  0  0  0  0  0  0  0  0
   11.7037   -6.0404   26.4771 H   0  0  0  0  0  0  0  0  0  0  0  0
   11.1411   -7.6068   25.8918 H   0  0  0  0  0  0  0  0  0  0  0  0
   10.7782   -5.5162   24.3756 H   0  0  0  0  0  0  0  0  0  0  0  0
    9.4042   -6.6189   24.5807 H   0  0  0  0  0  0  0  0  0  0  0  0
    9.5651    1.2527   24.6105 H   0  0  0  0  0  0  0  0  0  0  0  0
    9.6608    2.2581   23.1642 H   0  0  0  0  0  0  0  0  0  0  0  0
    6.8044    0.4388   16.8592 H   0  0  0  0  0  0  0  0  0  0  0  0
    8.2565   -1.5523   21.1108 H   0  0  0  0  0  0  0  0  0  0  0  0
  1  3  1  0  0  0  0
  1  4  2  0  0  0  0
  2  5  1  0  0  0  0
  2  6  2  0  0  0  0
  3  7  2  0  0  0  0
  4  8  1  0  0  0  0
  5  9  2  0  0  0  0
  6 14  1  0  0  0  0
  7 15  1  0  0  0  0
  8 15  2  0  0  0  0
  9 16  1  0  0  0  0
 10 12  2  0  0  0  0
 10 17  1  0  0  0  0
 11 13  1  0  0  0  0
 11 17  2  0  0  0  0
 12 18  1  0  0  0  0
 13 18  2  0  0  0  0
 14 16  2  0  0  0  0
 14 19  1  0  0  0  0
 15 26  1  0  0  0  0
 16 28  1  0  0  0  0
 17 29  1  0  0  0  0
 18 31  1  0  0  0  0
 19 27  2  0  0  0  0
 19 30  1  0  0  0  0
 20 22  1  0  0  0  0
 20 29  1  0  0  0  0
 20 32  2  0  0  0  0
 21 30  1  0  0  0  0
 21 31  1  0  0  0  0
 21 33  2  0  0  0  0
 22 23  1  0  0  0  0
 23 24  1  0  0  0  0
 24 25  1  0  0  0  0
 25 29  1  0  0  0  0
 26 31  1  0  0  0  0
 27 28  1  0  0  0  0
  1 34  1  0  0  0  0
  2 35  1  0  0  0  0
  3 36  1  0  0  0  0
  4 37  1  0  0  0  0
  5 38  1  0  0  0  0
  6 39  1  0  0  0  0
  7 40  1  0  0  0  0
  8 41  1  0  0  0  0
  9 42  1  0  0  0  0
 10 43  1  0  0  0  0
 11 44  1  0  0  0  0
 12 45  1  0  0  0  0
 13 46  1  0  0  0  0
 22 47  1  0  0  0  0
 22 48  1  0  0  0  0
 23 49  1  0  0  0  0
 23 50  1  0  0  0  0
 24 51  1  0  0  0  0
 24 52  1  0  0  0  0
 25 53  1  0  0  0  0
 25 54  1  0  0  0  0
 26 55  1  0  0  0  0
 26 56  1  0  0  0  0
 28 57  1  0  0  0  0
 30 58  1  0  0  0  0
M  END
> <clash_score>
0.7790751876189459

> <docking_score>
-7.232506275177002

> <overlap_score>
1.0030076503753662

$$$$
BENZO_76_1
  -OEChem-08232013443D

 55 59  0     0  0  0  0  0  0999 V2000
    4.2750    1.7050   20.8490 C   0  0  0  0  0  0  0  0  0  0  0  0
    3.9160    2.0630   19.5520 C   0  0  0  0  0  0  0  0  0  0  0  0
    5.4210    0.9600   21.0930 C   0  0  0  0  0  0  0  0  0  0  0  0
    4.6890    1.6810   18.4640 C   0  0  0  0  0  0  0  0  0  0  0  0
    8.9960   -2.3380   25.5320 C   0  0  0  0  0  0  0  0  0  0  0  0
    9.6730   -3.4710   23.5300 C   0  0  0  0  0  0  0  0  0  0  0  0
    9.0720   -1.1280   24.8640 C   0  0  0  0  0  0  0  0  0  0  0  0
    9.7200   -2.2600   22.8630 C   0  0  0  0  0  0  0  0  0  0  0  0
   12.3626    1.3479   22.5531 C   0  0  0  0  0  0  0  0  0  0  0  0
   13.6932    1.2905   22.9051 C   0  0  0  0  0  0  0  0  0  0  0  0
   12.2130    1.1731   24.8660 C   0  0  0  0  0  0  0  0  0  0  0  0
    6.1790    0.5730   19.9990 C   0  0  0  0  0  0  0  0  0  0  0  0
   11.5051    1.2800   23.6890 C   0  0  0  0  0  0  0  0  0  0  0  0
    5.8300    0.9190   18.6970 C   0  0  0  0  0  0  0  0  0  0  0  0
    9.3070   -3.5340   24.8780 C   0  0  0  0  0  0  0  0  0  0  0  0
    9.3350   -1.0880   23.5010 C   0  0  0  0  0  0  0  0  0  0  0  0
    7.3170   -0.1610   19.8550 C   0  0  0  0  0  0  0  0  0  0  0  0
    8.3596   -5.0074   26.6308 C   0  0  0  0  0  0  0  0  0  0  0  0
    9.0420    0.3700   21.5280 C   0  0  0  0  0  0  0  0  0  0  0  0
    8.4579   -6.4047   27.2169 C   0  0  0  0  0  0  0  0  0  0  0  0
    8.4717   -7.4504   26.1159 C   0  0  0  0  0  0  0  0  0  0  0  0
    9.5645   -7.1893   25.0842 C   0  0  0  0  0  0  0  0  0  0  0  0
   10.2327   -5.8252   25.2501 C   0  0  0  0  0  0  0  0  0  0  0  0
   10.0063    1.3195   23.6101 C   0  0  0  0  0  0  0  0  0  0  0  0
    7.6390   -0.2680   18.5410 N   0  0  0  0  0  0  0  0  0  0  0  0
    6.7580    0.3810   17.8350 N   0  0  0  0  0  0  0  0  0  0  0  0
    9.2529   -4.7798   25.5645 N   0  0  0  0  0  0  0  0  0  0  0  0
    8.1890   -0.7180   20.8700 N   0  0  0  0  0  0  0  0  0  0  0  0
    9.4560    0.1560   22.8130 N   0  0  0  0  0  0  0  0  0  0  0  0
    7.5990   -4.1865   27.1424 O   0  0  0  0  0  0  0  0  0  0  0  0
    9.2690    1.4140   20.9380 O   0  0  0  0  0  0  0  0  0  0  0  0
   13.9044    1.1553   24.5990 S   0  0  0  0  0  0  0  0  0  0  0  0
    3.6468    2.0173   21.6825 H   0  0  0  0  0  0  0  0  0  0  0  0
    3.0153    2.6527   19.3907 H   0  0  0  0  0  0  0  0  0  0  0  0
    5.7015    0.6980   22.1071 H   0  0  0  0  0  0  0  0  0  0  0  0
    4.4064    1.9744   17.4453 H   0  0  0  0  0  0  0  0  0  0  0  0
    8.6895   -2.3529   26.5807 H   0  0  0  0  0  0  0  0  0  0  0  0
    9.9262   -4.3897   22.9916 H   0  0  0  0  0  0  0  0  0  0  0  0
    8.9224   -0.1998   25.4238 H   0  0  0  0  0  0  0  0  0  0  0  0
   10.0649   -2.2343   21.8258 H   0  0  0  0  0  0  0  0  0  0  0  0
   12.0249    1.4340   21.5280 H   0  0  0  0  0  0  0  0  0  0  0  0
   14.5513    1.3208   22.2486 H   0  0  0  0  0  0  0  0  0  0  0  0
   11.8219    1.1033   25.8716 H   0  0  0  0  0  0  0  0  0  0  0  0
    9.3706   -6.4745   27.7885 H   0  0  0  0  0  0  0  0  0  0  0  0
    7.6055   -6.5497   27.8636 H   0  0  0  0  0  0  0  0  0  0  0  0
    8.6095   -8.4604   26.5550 H   0  0  0  0  0  0  0  0  0  0  0  0
    7.4835   -7.4763   25.6142 H   0  0  0  0  0  0  0  0  0  0  0  0
   10.3359   -7.9850   25.1531 H   0  0  0  0  0  0  0  0  0  0  0  0
    9.1458   -7.2796   24.0582 H   0  0  0  0  0  0  0  0  0  0  0  0
   10.9408   -5.8640   26.0725 H   0  0  0  0  0  0  0  0  0  0  0  0
   10.7521   -5.5631   24.3347 H   0  0  0  0  0  0  0  0  0  0  0  0
    9.5651    1.2527   24.6105 H   0  0  0  0  0  0  0  0  0  0  0  0
    9.6608    2.2581   23.1642 H   0  0  0  0  0  0  0  0  0  0  0  0
    6.8044    0.4388   16.8592 H   0  0  0  0  0  0  0  0  0  0  0  0
    8.2565   -1.5523   21.1108 H   0  0  0  0  0  0  0  0  0  0  0  0
  1  2  1  0  0  0  0
  1  3  2  0  0  0  0
  2  4  2  0  0  0  0
  3 12  1  0  0  0  0
  4 14  1  0  0  0  0
  5  7  2  0  0  0  0
  5 15  1  0  0  0  0
  6  8  1  0  0  0  0
  6 15  2  0  0  0  0
  7 16  1  0  0  0  0
  8 16  2  0  0  0  0
  9 10  2  0  0  0  0
  9 13  1  0  0  0  0
 10 32  1  0  0  0  0
 11 13  2  0  0  0  0
 11 32  1  0  0  0  0
 12 14  2  0  0  0  0
 12 17  1  0  0  0  0
 13 24  1  0  0  0  0
 14 26  1  0  0  0  0
 15 27  1  0  0  0  0
 16 29  1  0  0  0  0
 17 25  2  0  0  0  0
 17 28  1  0  0  0  0
 18 20  1  0  0  0  0
 18 27  1  0  0  0  0
 18 30  2  0  0  0  0
 19 28  1  0  0  0  0
 19 29  1  0  0  0  0
 19 31  2  0  0  0  0
 20 21  1  0  0  0  0
 21 22  1  0  0  0  0
 22 23  1  0  0  0  0
 23 27  1  0  0  0  0
 24 29  1  0  0  0  0
 25 26  1  0  0  0  0
  1 33  1  0  0  0  0
  2 34  1  0  0  0  0
  3 35  1  0  0  0  0
  4 36  1  0  0  0  0
  5 37  1  0  0  0  0
  6 38  1  0  0  0  0
  7 39  1  0  0  0  0
  8 40  1  0  0  0  0
  9 41  1  0  0  0  0
 10 42  1  0  0  0  0
 11 43  1  0  0  0  0
 20 44  1  0  0  0  0
 20 45  1  0  0  0  0
 21 46  1  0  0  0  0
 21 47  1  0  0  0  0
 22 48  1  0  0  0  0
 22 49  1  0  0  0  0
 23 50  1  0  0  0  0
 23 51  1  0  0  0  0
 24 52  1  0  0  0  0
 24 53  1  0  0  0  0
 26 54  1  0  0  0  0
 28 55  1  0  0  0  0
M  END
> <clash_score>
0.6354466317061015

> <docking_score>
-7.186358451843262

> <overlap_score>
0.9860453009605408

$$$$
BENZO_78_1
  -OEChem-08232013443D

 58 62  0     0  0  0  0  0  0999 V2000
    4.2750    1.7050   20.8490 C   0  0  0  0  0  0  0  0  0  0  0  0
    3.9160    2.0630   19.5520 C   0  0  0  0  0  0  0  0  0  0  0  0
   13.6586    2.1422   23.0138 C   0  0  0  0  0  0  0  0  0  0  0  0
    5.4210    0.9600   21.0930 C   0  0  0  0  0  0  0  0  0  0  0  0
   12.2662    2.1775   22.9401 C   0  0  0  0  0  0  0  0  0  0  0  0
    4.6890    1.6810   18.4640 C   0  0  0  0  0  0  0  0  0  0  0  0
    8.9960   -2.3380   25.5320 C   0  0  0  0  0  0  0  0  0  0  0  0
    9.6730   -3.4710   23.5300 C   0  0  0  0  0  0  0  0  0  0  0  0
    9.0720   -1.1280   24.8640 C   0  0  0  0  0  0  0  0  0  0  0  0
    9.7200   -2.2600   22.8630 C   0  0  0  0  0  0  0  0  0  0  0  0
   14.2900    1.2092   23.8363 C   0  0  0  0  0  0  0  0  0  0  0  0
   12.1365    0.3471   24.5116 C   0  0  0  0  0  0  0  0  0  0  0  0
    6.1790    0.5730   19.9990 C   0  0  0  0  0  0  0  0  0  0  0  0
   11.5051    1.2800   23.6890 C   0  0  0  0  0  0  0  0  0  0  0  0
    5.8300    0.9190   18.6970 C   0  0  0  0  0  0  0  0  0  0  0  0
    9.3070   -3.5340   24.8780 C   0  0  0  0  0  0  0  0  0  0  0  0
    9.3350   -1.0880   23.5010 C   0  0  0  0  0  0  0  0  0  0  0  0
   13.5290    0.3117   24.5853 C   0  0  0  0  0  0  0  0  0  0  0  0
    7.3170   -0.1610   19.8550 C   0  0  0  0  0  0  0  0  0  0  0  0
    8.3597   -5.0073   26.6307 C   0  0  0  0  0  0  0  0  0  0  0  0
    9.0420    0.3700   21.5280 C   0  0  0  0  0  0  0  0  0  0  0  0
    8.4720   -6.3981   27.2296 C   0  0  0  0  0  0  0  0  0  0  0  0
    9.9252   -6.7605   27.4803 C   0  0  0  0  0  0  0  0  0  0  0  0
   10.7833   -6.6094   26.2282 C   0  0  0  0  0  0  0  0  0  0  0  0
   10.0539   -5.9099   25.0823 C   0  0  0  0  0  0  0  0  0  0  0  0
   10.0063    1.3195   23.6101 C   0  0  0  0  0  0  0  0  0  0  0  0
    7.6390   -0.2680   18.5410 N   0  0  0  0  0  0  0  0  0  0  0  0
    6.7580    0.3810   17.8350 N   0  0  0  0  0  0  0  0  0  0  0  0
    9.2529   -4.7797   25.5644 N   0  0  0  0  0  0  0  0  0  0  0  0
    8.1890   -0.7180   20.8700 N   0  0  0  0  0  0  0  0  0  0  0  0
    9.4560    0.1560   22.8130 N   0  0  0  0  0  0  0  0  0  0  0  0
    7.4954   -4.2356   27.0449 O   0  0  0  0  0  0  0  0  0  0  0  0
    9.2690    1.4140   20.9380 O   0  0  0  0  0  0  0  0  0  0  0  0
   14.3085   -0.8384   25.6008 Cl  0  0  0  0  0  0  0  0  0  0  0  0
    3.6468    2.0173   21.6825 H   0  0  0  0  0  0  0  0  0  0  0  0
    3.0153    2.6527   19.3907 H   0  0  0  0  0  0  0  0  0  0  0  0
   14.2509    2.8413   22.4305 H   0  0  0  0  0  0  0  0  0  0  0  0
    5.7015    0.6980   22.1071 H   0  0  0  0  0  0  0  0  0  0  0  0
   11.7826    2.9079   22.2966 H   0  0  0  0  0  0  0  0  0  0  0  0
    4.4064    1.9744   17.4453 H   0  0  0  0  0  0  0  0  0  0  0  0
    8.6895   -2.3529   26.5807 H   0  0  0  0  0  0  0  0  0  0  0  0
    9.9262   -4.3897   22.9916 H   0  0  0  0  0  0  0  0  0  0  0  0
    8.9224   -0.1998   25.4238 H   0  0  0  0  0  0  0  0  0  0  0  0
   10.0649   -2.2343   21.8258 H   0  0  0  0  0  0  0  0  0  0  0  0
   15.3761    1.1934   23.8841 H   0  0  0  0  0  0  0  0  0  0  0  0
   11.5386   -0.3509   25.0931 H   0  0  0  0  0  0  0  0  0  0  0  0
    7.9325   -6.4148   28.1641 H   0  0  0  0  0  0  0  0  0  0  0  0
    8.0254   -7.0920   26.5333 H   0  0  0  0  0  0  0  0  0  0  0  0
   10.3387   -6.1267   28.2923 H   0  0  0  0  0  0  0  0  0  0  0  0
    9.9904   -7.8023   27.8537 H   0  0  0  0  0  0  0  0  0  0  0  0
   11.7037   -6.0404   26.4771 H   0  0  0  0  0  0  0  0  0  0  0  0
   11.1411   -7.6068   25.8918 H   0  0  0  0  0  0  0  0  0  0  0  0
   10.7782   -5.5162   24.3756 H   0  0  0  0  0  0  0  0  0  0  0  0
    9.4042   -6.6189   24.5807 H   0  0  0  0  0  0  0  0  0  0  0  0
    9.5651    1.2527   24.6105 H   0  0  0  0  0  0  0  0  0  0  0  0
    9.6608    2.2581   23.1642 H   0  0  0  0  0  0  0  0  0  0  0  0
    6.8044    0.4388   16.8592 H   0  0  0  0  0  0  0  0  0  0  0  0
    8.2565   -1.5523   21.1108 H   0  0  0  0  0  0  0  0  0  0  0  0
  1  2  1  0  0  0  0
  1  4  2  0  0  0  0
  2  6  2  0  0  0  0
  3  5  2  0  0  0  0
  3 11  1  0  0  0  0
  4 13  1  0  0  0  0
  5 14  1  0  0  0  0
  6 15  1  0  0  0  0
  7  9  2  0  0  0  0
  7 16  1  0  0  0  0
  8 10  1  0  0  0  0
  8 16  2  0  0  0  0
  9 17  1  0  0  0  0
 10 17  2  0  0  0  0
 11 18  2  0  0  0  0
 12 14  2  0  0  0  0
 12 18  1  0  0  0  0
 13 15  2  0  0  0  0
 13 19  1  0  0  0  0
 14 26  1  0  0  0  0
 15 28  1  0  0  0  0
 16 29  1  0  0  0  0
 17 31  1  0  0  0  0
 18 34  1  0  0  0  0
 19 27  2  0  0  0  0
 19 30  1  0  0  0  0
 20 22  1  0  0  0  0
 20 29  1  0  0  0  0
 20 32  2  0  0  0  0
 21 30  1  0  0  0  0
 21 31  1  0  0  0  0
 21 33  2  0  0  0  0
 22 23  1  0  0  0  0
 23 24  1  0  0  0  0
 24 25  1  0  0  0  0
 25 29  1  0  0  0  0
 26 31  1  0  0  0  0
 27 28  1  0  0  0  0
  1 35  1  0  0  0  0
  2 36  1  0  0  0  0
  3 37  1  0  0  0  0
  4 38  1  0  0  0  0
  5 39  1  0  0  0  0
  6 40  1  0  0  0  0
  7 41  1  0  0  0  0
  8 42  1  0  0  0  0
  9 43  1  0  0  0  0
 10 44  1  0  0  0  0
 11 45  1  0  0  0  0
 12 46  1  0  0  0  0
 22 47  1  0  0  0  0
 22 48  1  0  0  0  0
 23 49  1  0  0  0  0
 23 50  1  0  0  0  0
 24 51  1  0  0  0  0
 24 52  1  0  0  0  0
 25 53  1  0  0  0  0
 25 54  1  0  0  0  0
 26 55  1  0  0  0  0
 26 56  1  0  0  0  0
 28 57  1  0  0  0  0
 30 58  1  0  0  0  0
M  END
> <clash_score>
1.4506021645831106

> <docking_score>
-6.066905498504639

> <overlap_score>
1.0076640844345093

$$$$
BENZO_81_1
  -OEChem-08232013443D

 57 61  0     0  0  0  0  0  0999 V2000
   14.2935    1.3712   23.7866 C   0  0  0  0  0  0  0  0  0  0  0  0
    4.2750    1.7050   20.8490 C   0  0  0  0  0  0  0  0  0  0  0  0
   13.5637    0.6911   24.7615 C   0  0  0  0  0  0  0  0  0  0  0  0
   13.6297    2.0345   22.7545 C   0  0  0  0  0  0  0  0  0  0  0  0
    3.9160    2.0630   19.5520 C   0  0  0  0  0  0  0  0  0  0  0  0
    5.4210    0.9600   21.0930 C   0  0  0  0  0  0  0  0  0  0  0  0
   12.1701    0.6742   24.7044 C   0  0  0  0  0  0  0  0  0  0  0  0
   12.2361    2.0176   22.6974 C   0  0  0  0  0  0  0  0  0  0  0  0
    4.6890    1.6810   18.4640 C   0  0  0  0  0  0  0  0  0  0  0  0
    8.9960   -2.3380   25.5320 C   0  0  0  0  0  0  0  0  0  0  0  0
    9.6730   -3.4710   23.5300 C   0  0  0  0  0  0  0  0  0  0  0  0
    9.0720   -1.1280   24.8640 C   0  0  0  0  0  0  0  0  0  0  0  0
    9.7200   -2.2600   22.8630 C   0  0  0  0  0  0  0  0  0  0  0  0
    6.1790    0.5730   19.9990 C   0  0  0  0  0  0  0  0  0  0  0  0
   11.5063    1.3374   23.6723 C   0  0  0  0  0  0  0  0  0  0  0  0
    5.8300    0.9190   18.6970 C   0  0  0  0  0  0  0  0  0  0  0  0
    9.3070   -3.5340   24.8780 C   0  0  0  0  0  0  0  0  0  0  0  0
    9.3350   -1.0880   23.5010 C   0  0  0  0  0  0  0  0  0  0  0  0
    7.3170   -0.1610   19.8550 C   0  0  0  0  0  0  0  0  0  0  0  0
    9.0420    0.3700   21.5280 C   0  0  0  0  0  0  0  0  0  0  0  0
   10.0771   -5.0255   26.7193 C   0  0  0  0  0  0  0  0  0  0  0  0
    8.0927   -5.6195   25.4071 C   0  0  0  0  0  0  0  0  0  0  0  0
    9.1933   -4.9427   27.9592 C   0  0  0  0  0  0  0  0  0  0  0  0
    7.2756   -5.5290   26.6967 C   0  0  0  0  0  0  0  0  0  0  0  0
   10.0063    1.3195   23.6101 C   0  0  0  0  0  0  0  0  0  0  0  0
    7.6390   -0.2680   18.5410 N   0  0  0  0  0  0  0  0  0  0  0  0
    6.7580    0.3810   17.8350 N   0  0  0  0  0  0  0  0  0  0  0  0
    9.2563   -4.7368   25.5413 N   0  0  0  0  0  0  0  0  0  0  0  0
    8.1890   -0.7180   20.8700 N   0  0  0  0  0  0  0  0  0  0  0  0
    9.4560    0.1560   22.8130 N   0  0  0  0  0  0  0  0  0  0  0  0
    9.2690    1.4140   20.9380 O   0  0  0  0  0  0  0  0  0  0  0  0
    8.0883   -5.8459   27.8325 O   0  0  0  0  0  0  0  0  0  0  0  0
   15.3785    1.3853   23.8320 H   0  0  0  0  0  0  0  0  0  0  0  0
    3.6468    2.0173   21.6825 H   0  0  0  0  0  0  0  0  0  0  0  0
   14.0803    0.1755   25.5658 H   0  0  0  0  0  0  0  0  0  0  0  0
   14.1975    2.5650   21.9960 H   0  0  0  0  0  0  0  0  0  0  0  0
    3.0153    2.6527   19.3907 H   0  0  0  0  0  0  0  0  0  0  0  0
    5.7015    0.6980   22.1071 H   0  0  0  0  0  0  0  0  0  0  0  0
   11.6097    0.1415   25.4682 H   0  0  0  0  0  0  0  0  0  0  0  0
   11.7275    2.5370   21.8896 H   0  0  0  0  0  0  0  0  0  0  0  0
    4.4064    1.9744   17.4453 H   0  0  0  0  0  0  0  0  0  0  0  0
    8.6905   -2.3533   26.5810 H   0  0  0  0  0  0  0  0  0  0  0  0
    9.9266   -4.3896   22.9917 H   0  0  0  0  0  0  0  0  0  0  0  0
    8.9233   -0.1992   25.4232 H   0  0  0  0  0  0  0  0  0  0  0  0
   10.0650   -2.2330   21.8256 H   0  0  0  0  0  0  0  0  0  0  0  0
   10.8985   -4.3115   26.8085 H   0  0  0  0  0  0  0  0  0  0  0  0
   10.4915   -6.0334   26.6323 H   0  0  0  0  0  0  0  0  0  0  0  0
    8.4327   -6.6456   25.2620 H   0  0  0  0  0  0  0  0  0  0  0  0
    7.4725   -5.3241   24.5619 H   0  0  0  0  0  0  0  0  0  0  0  0
    9.7636   -5.2398   28.8419 H   0  0  0  0  0  0  0  0  0  0  0  0
    8.8236   -3.9268   28.1248 H   0  0  0  0  0  0  0  0  0  0  0  0
    6.8339   -4.5337   26.8232 H   0  0  0  0  0  0  0  0  0  0  0  0
    6.4550   -6.2521   26.6643 H   0  0  0  0  0  0  0  0  0  0  0  0
    9.5786    1.2746   24.6176 H   0  0  0  0  0  0  0  0  0  0  0  0
    9.6218    2.2274   23.1337 H   0  0  0  0  0  0  0  0  0  0  0  0
    6.8044    0.4388   16.8592 H   0  0  0  0  0  0  0  0  0  0  0  0
    8.2565   -1.5523   21.1108 H   0  0  0  0  0  0  0  0  0  0  0  0
  1  3  1  0  0  0  0
  1  4  2  0  0  0  0
  2  5  1  0  0  0  0
  2  6  2  0  0  0  0
  3  7  2  0  0  0  0
  4  8  1  0  0  0  0
  5  9  2  0  0  0  0
  6 14  1  0  0  0  0
  7 15  1  0  0  0  0
  8 15  2  0  0  0  0
  9 16  1  0  0  0  0
 10 12  2  0  0  0  0
 10 17  1  0  0  0  0
 11 13  1  0  0  0  0
 11 17  2  0  0  0  0
 12 18  1  0  0  0  0
 13 18  2  0  0  0  0
 14 16  2  0  0  0  0
 14 19  1  0  0  0  0
 15 25  1  0  0  0  0
 16 27  1  0  0  0  0
 17 28  1  0  0  0  0
 18 30  1  0  0  0  0
 19 26  2  0  0  0  0
 19 29  1  0  0  0  0
 20 29  1  0  0  0  0
 20 30  1  0  0  0  0
 20 31  2  0  0  0  0
 21 23  1  0  0  0  0
 21 28  1  0  0  0  0
 22 24  1  0  0  0  0
 22 28  1  0  0  0  0
 23 32  1  0  0  0  0
 24 32  1  0  0  0  0
 25 30  1  0  0  0  0
 26 27  1  0  0  0  0
  1 33  1  0  0  0  0
  2 34  1  0  0  0  0
  3 35  1  0  0  0  0
  4 36  1  0  0  0  0
  5 37  1  0  0  0  0
  6 38  1  0  0  0  0
  7 39  1  0  0  0  0
  8 40  1  0  0  0  0
  9 41  1  0  0  0  0
 10 42  1  0  0  0  0
 11 43  1  0  0  0  0
 12 44  1  0  0  0  0
 13 45  1  0  0  0  0
 21 46  1  0  0  0  0
 21 47  1  0  0  0  0
 22 48  1  0  0  0  0
 22 49  1  0  0  0  0
 23 50  1  0  0  0  0
 23 51  1  0  0  0  0
 24 52  1  0  0  0  0
 24 53  1  0  0  0  0
 25 54  1  0  0  0  0
 25 55  1  0  0  0  0
 27 56  1  0  0  0  0
 29 57  1  0  0  0  0
M  END
> <clash_score>
0

> <docking_score>
-8.165384292602539

> <overlap_score>
0.992071270942688

$$$$
BENZO_79_1
  -OEChem-08232013443D

 58 62  0     0  0  0  0  0  0999 V2000
    4.2750    1.7050   20.8490 C   0  0  0  0  0  0  0  0  0  0  0  0
    3.9160    2.0630   19.5520 C   0  0  0  0  0  0  0  0  0  0  0  0
    5.4210    0.9600   21.0930 C   0  0  0  0  0  0  0  0  0  0  0  0
    4.6890    1.6810   18.4640 C   0  0  0  0  0  0  0  0  0  0  0  0
    8.9960   -2.3380   25.5320 C   0  0  0  0  0  0  0  0  0  0  0  0
    9.6730   -3.4710   23.5300 C   0  0  0  0  0  0  0  0  0  0  0  0
    9.0720   -1.1280   24.8640 C   0  0  0  0  0  0  0  0  0  0  0  0
    9.7200   -2.2600   22.8630 C   0  0  0  0  0  0  0  0  0  0  0  0
   12.3069    1.1739   24.8412 C   0  0  0  0  0  0  0  0  0  0  0  0
   12.4021    1.3368   22.6504 C   0  0  0  0  0  0  0  0  0  0  0  0
    6.1790    0.5730   19.9990 C   0  0  0  0  0  0  0  0  0  0  0  0
   11.5051    1.2800   23.6890 C   0  0  0  0  0  0  0  0  0  0  0  0
    5.8300    0.9190   18.6970 C   0  0  0  0  0  0  0  0  0  0  0  0
    9.3070   -3.5340   24.8780 C   0  0  0  0  0  0  0  0  0  0  0  0
    9.3350   -1.0880   23.5010 C   0  0  0  0  0  0  0  0  0  0  0  0
    7.3170   -0.1610   19.8550 C   0  0  0  0  0  0  0  0  0  0  0  0
    8.3597   -5.0073   26.6307 C   0  0  0  0  0  0  0  0  0  0  0  0
    9.0420    0.3700   21.5280 C   0  0  0  0  0  0  0  0  0  0  0  0
    8.4720   -6.3981   27.2296 C   0  0  0  0  0  0  0  0  0  0  0  0
    9.9252   -6.7605   27.4803 C   0  0  0  0  0  0  0  0  0  0  0  0
   10.7833   -6.6094   26.2282 C   0  0  0  0  0  0  0  0  0  0  0  0
   10.0539   -5.9099   25.0823 C   0  0  0  0  0  0  0  0  0  0  0  0
   14.9044    1.2854   22.5284 C   0  0  0  0  0  0  0  0  0  0  0  0
   10.0063    1.3195   23.6101 C   0  0  0  0  0  0  0  0  0  0  0  0
   13.6129    1.1635   24.5614 N   0  0  0  0  0  0  0  0  0  0  0  0
    7.6390   -0.2680   18.5410 N   0  0  0  0  0  0  0  0  0  0  0  0
    6.7580    0.3810   17.8350 N   0  0  0  0  0  0  0  0  0  0  0  0
   13.6386    1.2638   23.2214 N   0  0  0  0  0  0  0  0  0  0  0  0
    9.2529   -4.7797   25.5644 N   0  0  0  0  0  0  0  0  0  0  0  0
    8.1890   -0.7180   20.8700 N   0  0  0  0  0  0  0  0  0  0  0  0
    9.4560    0.1560   22.8130 N   0  0  0  0  0  0  0  0  0  0  0  0
    7.4954   -4.2356   27.0449 O   0  0  0  0  0  0  0  0  0  0  0  0
    9.2690    1.4140   20.9380 O   0  0  0  0  0  0  0  0  0  0  0  0
    3.6468    2.0173   21.6825 H   0  0  0  0  0  0  0  0  0  0  0  0
    3.0153    2.6527   19.3907 H   0  0  0  0  0  0  0  0  0  0  0  0
    5.7015    0.6980   22.1071 H   0  0  0  0  0  0  0  0  0  0  0  0
    4.4064    1.9744   17.4453 H   0  0  0  0  0  0  0  0  0  0  0  0
    8.6895   -2.3529   26.5807 H   0  0  0  0  0  0  0  0  0  0  0  0
    9.9262   -4.3897   22.9916 H   0  0  0  0  0  0  0  0  0  0  0  0
    8.9224   -0.1998   25.4238 H   0  0  0  0  0  0  0  0  0  0  0  0
   10.0649   -2.2343   21.8258 H   0  0  0  0  0  0  0  0  0  0  0  0
   11.9964    1.1027   25.8740 H   0  0  0  0  0  0  0  0  0  0  0  0
   12.2692    1.4196   21.5802 H   0  0  0  0  0  0  0  0  0  0  0  0
    7.9325   -6.4148   28.1641 H   0  0  0  0  0  0  0  0  0  0  0  0
    8.0254   -7.0920   26.5333 H   0  0  0  0  0  0  0  0  0  0  0  0
   10.3387   -6.1267   28.2923 H   0  0  0  0  0  0  0  0  0  0  0  0
    9.9904   -7.8023   27.8537 H   0  0  0  0  0  0  0  0  0  0  0  0
   11.7037   -6.0404   26.4771 H   0  0  0  0  0  0  0  0  0  0  0  0
   11.1411   -7.6068   25.8918 H   0  0  0  0  0  0  0  0  0  0  0  0
   10.7782   -5.5162   24.3756 H   0  0  0  0  0  0  0  0  0  0  0  0
    9.4042   -6.6189   24.5807 H   0  0  0  0  0  0  0  0  0  0  0  0
   15.2253    2.3271   22.4447 H   0  0  0  0  0  0  0  0  0  0  0  0
   15.6384    0.7034   23.0926 H   0  0  0  0  0  0  0  0  0  0  0  0
   14.7810    0.8414   21.5367 H   0  0  0  0  0  0  0  0  0  0  0  0
    9.5651    1.2527   24.6105 H   0  0  0  0  0  0  0  0  0  0  0  0
    9.6608    2.2581   23.1642 H   0  0  0  0  0  0  0  0  0  0  0  0
    6.8044    0.4388   16.8592 H   0  0  0  0  0  0  0  0  0  0  0  0
    8.2565   -1.5523   21.1108 H   0  0  0  0  0  0  0  0  0  0  0  0
  1  2  1  0  0  0  0
  1  3  2  0  0  0  0
  2  4  2  0  0  0  0
  3 11  1  0  0  0  0
  4 13  1  0  0  0  0
  5  7  2  0  0  0  0
  5 14  1  0  0  0  0
  6  8  1  0  0  0  0
  6 14  2  0  0  0  0
  7 15  1  0  0  0  0
  8 15  2  0  0  0  0
  9 12  1  0  0  0  0
  9 25  2  0  0  0  0
 10 12  2  0  0  0  0
 10 28  1  0  0  0  0
 11 13  2  0  0  0  0
 11 16  1  0  0  0  0
 12 24  1  0  0  0  0
 13 27  1  0  0  0  0
 14 29  1  0  0  0  0
 15 31  1  0  0  0  0
 16 26  2  0  0  0  0
 16 30  1  0  0  0  0
 17 19  1  0  0  0  0
 17 29  1  0  0  0  0
 17 32  2  0  0  0  0
 18 30  1  0  0  0  0
 18 31  1  0  0  0  0
 18 33  2  0  0  0  0
 19 20  1  0  0  0  0
 20 21  1  0  0  0  0
 21 22  1  0  0  0  0
 22 29  1  0  0  0  0
 23 28  1  0  0  0  0
 24 31  1  0  0  0  0
 25 28  1  0  0  0  0
 26 27  1  0  0  0  0
  1 34  1  0  0  0  0
  2 35  1  0  0  0  0
  3 36  1  0  0  0  0
  4 37  1  0  0  0  0
  5 38  1  0  0  0  0
  6 39  1  0  0  0  0
  7 40  1  0  0  0  0
  8 41  1  0  0  0  0
  9 42  1  0  0  0  0
 10 43  1  0  0  0  0
 19 44  1  0  0  0  0
 19 45  1  0  0  0  0
 20 46  1  0  0  0  0
 20 47  1  0  0  0  0
 21 48  1  0  0  0  0
 21 49  1  0  0  0  0
 22 50  1  0  0  0  0
 22 51  1  0  0  0  0
 23 52  1  0  0  0  0
 23 53  1  0  0  0  0
 23 54  1  0  0  0  0
 24 55  1  0  0  0  0
 24 56  1  0  0  0  0
 27 57  1  0  0  0  0
 30 58  1  0  0  0  0
M  END
> <clash_score>
0.7790751876189459

> <docking_score>
-7.015992164611816

> <overlap_score>
0.9960875511169434

$$$$
BENZO_80_1
  -OEChem-08232013443D

 54 58  0     0  0  0  0  0  0999 V2000
    4.2750    1.7050   20.8490 C   0  0  0  0  0  0  0  0  0  0  0  0
    3.9160    2.0630   19.5520 C   0  0  0  0  0  0  0  0  0  0  0  0
    5.4210    0.9600   21.0930 C   0  0  0  0  0  0  0  0  0  0  0  0
    4.6890    1.6810   18.4640 C   0  0  0  0  0  0  0  0  0  0  0  0
    8.9960   -2.3380   25.5320 C   0  0  0  0  0  0  0  0  0  0  0  0
    9.6730   -3.4710   23.5300 C   0  0  0  0  0  0  0  0  0  0  0  0
    9.0720   -1.1280   24.8640 C   0  0  0  0  0  0  0  0  0  0  0  0
    9.7200   -2.2600   22.8630 C   0  0  0  0  0  0  0  0  0  0  0  0
   12.2840    2.5287   23.7511 C   0  0  0  0  0  0  0  0  0  0  0  0
   13.6349    2.2627   23.7953 C   0  0  0  0  0  0  0  0  0  0  0  0
   12.2925    0.2062   23.6591 C   0  0  0  0  0  0  0  0  0  0  0  0
    6.1790    0.5730   19.9990 C   0  0  0  0  0  0  0  0  0  0  0  0
   11.5063    1.3374   23.6723 C   0  0  0  0  0  0  0  0  0  0  0  0
    5.8300    0.9190   18.6970 C   0  0  0  0  0  0  0  0  0  0  0  0
    9.3070   -3.5340   24.8780 C   0  0  0  0  0  0  0  0  0  0  0  0
    9.3350   -1.0880   23.5010 C   0  0  0  0  0  0  0  0  0  0  0  0
    7.3170   -0.1610   19.8550 C   0  0  0  0  0  0  0  0  0  0  0  0
    9.0420    0.3700   21.5280 C   0  0  0  0  0  0  0  0  0  0  0  0
   10.0771   -5.0255   26.7193 C   0  0  0  0  0  0  0  0  0  0  0  0
    8.0927   -5.6195   25.4071 C   0  0  0  0  0  0  0  0  0  0  0  0
    9.1933   -4.9427   27.9592 C   0  0  0  0  0  0  0  0  0  0  0  0
    7.2756   -5.5290   26.6967 C   0  0  0  0  0  0  0  0  0  0  0  0
   10.0063    1.3195   23.6101 C   0  0  0  0  0  0  0  0  0  0  0  0
    7.6390   -0.2680   18.5410 N   0  0  0  0  0  0  0  0  0  0  0  0
    6.7580    0.3810   17.8350 N   0  0  0  0  0  0  0  0  0  0  0  0
    9.2563   -4.7368   25.5413 N   0  0  0  0  0  0  0  0  0  0  0  0
    8.1890   -0.7180   20.8700 N   0  0  0  0  0  0  0  0  0  0  0  0
    9.4560    0.1560   22.8130 N   0  0  0  0  0  0  0  0  0  0  0  0
    9.2690    1.4140   20.9380 O   0  0  0  0  0  0  0  0  0  0  0  0
    8.0883   -5.8459   27.8325 O   0  0  0  0  0  0  0  0  0  0  0  0
   13.9610    0.5825   23.7418 S   0  0  0  0  0  0  0  0  0  0  0  0
    3.6468    2.0173   21.6825 H   0  0  0  0  0  0  0  0  0  0  0  0
    3.0153    2.6527   19.3907 H   0  0  0  0  0  0  0  0  0  0  0  0
    5.7015    0.6980   22.1071 H   0  0  0  0  0  0  0  0  0  0  0  0
    4.4064    1.9744   17.4453 H   0  0  0  0  0  0  0  0  0  0  0  0
    8.6905   -2.3533   26.5810 H   0  0  0  0  0  0  0  0  0  0  0  0
    9.9266   -4.3896   22.9917 H   0  0  0  0  0  0  0  0  0  0  0  0
    8.9233   -0.1992   25.4232 H   0  0  0  0  0  0  0  0  0  0  0  0
   10.0650   -2.2330   21.8256 H   0  0  0  0  0  0  0  0  0  0  0  0
   11.8774    3.5319   23.7739 H   0  0  0  0  0  0  0  0  0  0  0  0
   14.4460    2.9746   23.8558 H   0  0  0  0  0  0  0  0  0  0  0  0
   11.9711   -0.8246   23.6038 H   0  0  0  0  0  0  0  0  0  0  0  0
   10.8985   -4.3115   26.8085 H   0  0  0  0  0  0  0  0  0  0  0  0
   10.4915   -6.0334   26.6323 H   0  0  0  0  0  0  0  0  0  0  0  0
    8.4327   -6.6456   25.2620 H   0  0  0  0  0  0  0  0  0  0  0  0
    7.4725   -5.3241   24.5619 H   0  0  0  0  0  0  0  0  0  0  0  0
    9.7636   -5.2398   28.8419 H   0  0  0  0  0  0  0  0  0  0  0  0
    8.8236   -3.9268   28.1248 H   0  0  0  0  0  0  0  0  0  0  0  0
    6.8339   -4.5337   26.8232 H   0  0  0  0  0  0  0  0  0  0  0  0
    6.4550   -6.2521   26.6643 H   0  0  0  0  0  0  0  0  0  0  0  0
    9.5786    1.2746   24.6176 H   0  0  0  0  0  0  0  0  0  0  0  0
    9.6218    2.2274   23.1337 H   0  0  0  0  0  0  0  0  0  0  0  0
    6.8044    0.4388   16.8592 H   0  0  0  0  0  0  0  0  0  0  0  0
    8.2565   -1.5523   21.1108 H   0  0  0  0  0  0  0  0  0  0  0  0
  1  2  1  0  0  0  0
  1  3  2  0  0  0  0
  2  4  2  0  0  0  0
  3 12  1  0  0  0  0
  4 14  1  0  0  0  0
  5  7  2  0  0  0  0
  5 15  1  0  0  0  0
  6  8  1  0  0  0  0
  6 15  2  0  0  0  0
  7 16  1  0  0  0  0
  8 16  2  0  0  0  0
  9 10  2  0  0  0  0
  9 13  1  0  0  0  0
 10 31  1  0  0  0  0
 11 13  2  0  0  0  0
 11 31  1  0  0  0  0
 12 14  2  0  0  0  0
 12 17  1  0  0  0  0
 13 23  1  0  0  0  0
 14 25  1  0  0  0  0
 15 26  1  0  0  0  0
 16 28  1  0  0  0  0
 17 24  2  0  0  0  0
 17 27  1  0  0  0  0
 18 27  1  0  0  0  0
 18 28  1  0  0  0  0
 18 29  2  0  0  0  0
 19 21  1  0  0  0  0
 19 26  1  0  0  0  0
 20 22  1  0  0  0  0
 20 26  1  0  0  0  0
 21 30  1  0  0  0  0
 22 30  1  0  0  0  0
 23 28  1  0  0  0  0
 24 25  1  0  0  0  0
  1 32  1  0  0  0  0
  2 33  1  0  0  0  0
  3 34  1  0  0  0  0
  4 35  1  0  0  0  0
  5 36  1  0  0  0  0
  6 37  1  0  0  0  0
  7 38  1  0  0  0  0
  8 39  1  0  0  0  0
  9 40  1  0  0  0  0
 10 41  1  0  0  0  0
 11 42  1  0  0  0  0
 19 43  1  0  0  0  0
 19 44  1  0  0  0  0
 20 45  1  0  0  0  0
 20 46  1  0  0  0  0
 21 47  1  0  0  0  0
 21 48  1  0  0  0  0
 22 49  1  0  0  0  0
 22 50  1  0  0  0  0
 23 51  1  0  0  0  0
 23 52  1  0  0  0  0
 25 53  1  0  0  0  0
 27 54  1  0  0  0  0
M  END
> <clash_score>
0

> <docking_score>
-7.410762786865234

> <overlap_score>
0.9806849360466003

$$$$
BENZO_82_1
  -OEChem-08232013443D

 57 61  0     0  0  0  0  0  0999 V2000
    4.2750    1.7050   20.8490 C   0  0  0  0  0  0  0  0  0  0  0  0
    3.9160    2.0630   19.5520 C   0  0  0  0  0  0  0  0  0  0  0  0
   13.5726    0.4739   24.5786 C   0  0  0  0  0  0  0  0  0  0  0  0
    5.4210    0.9600   21.0930 C   0  0  0  0  0  0  0  0  0  0  0  0
   12.1790    0.4585   24.5212 C   0  0  0  0  0  0  0  0  0  0  0  0
    4.6890    1.6810   18.4640 C   0  0  0  0  0  0  0  0  0  0  0  0
    8.9960   -2.3380   25.5320 C   0  0  0  0  0  0  0  0  0  0  0  0
    9.6730   -3.4710   23.5300 C   0  0  0  0  0  0  0  0  0  0  0  0
    9.0720   -1.1280   24.8640 C   0  0  0  0  0  0  0  0  0  0  0  0
    9.7200   -2.2600   22.8630 C   0  0  0  0  0  0  0  0  0  0  0  0
   14.2935    1.3683   23.7873 C   0  0  0  0  0  0  0  0  0  0  0  0
   12.2271    2.2318   22.8810 C   0  0  0  0  0  0  0  0  0  0  0  0
    6.1790    0.5730   19.9990 C   0  0  0  0  0  0  0  0  0  0  0  0
   11.5063    1.3374   23.6723 C   0  0  0  0  0  0  0  0  0  0  0  0
    5.8300    0.9190   18.6970 C   0  0  0  0  0  0  0  0  0  0  0  0
    9.3070   -3.5340   24.8780 C   0  0  0  0  0  0  0  0  0  0  0  0
    9.3350   -1.0880   23.5010 C   0  0  0  0  0  0  0  0  0  0  0  0
   13.6207    2.2472   22.9385 C   0  0  0  0  0  0  0  0  0  0  0  0
    7.3170   -0.1610   19.8550 C   0  0  0  0  0  0  0  0  0  0  0  0
    9.0420    0.3700   21.5280 C   0  0  0  0  0  0  0  0  0  0  0  0
   10.0771   -5.0255   26.7193 C   0  0  0  0  0  0  0  0  0  0  0  0
    8.0927   -5.6195   25.4071 C   0  0  0  0  0  0  0  0  0  0  0  0
    9.1933   -4.9427   27.9592 C   0  0  0  0  0  0  0  0  0  0  0  0
    7.2756   -5.5290   26.6967 C   0  0  0  0  0  0  0  0  0  0  0  0
   10.0063    1.3195   23.6101 C   0  0  0  0  0  0  0  0  0  0  0  0
    7.6390   -0.2680   18.5410 N   0  0  0  0  0  0  0  0  0  0  0  0
    6.7580    0.3810   17.8350 N   0  0  0  0  0  0  0  0  0  0  0  0
    9.2563   -4.7368   25.5413 N   0  0  0  0  0  0  0  0  0  0  0  0
    8.1890   -0.7180   20.8700 N   0  0  0  0  0  0  0  0  0  0  0  0
    9.4560    0.1560   22.8130 N   0  0  0  0  0  0  0  0  0  0  0  0
    9.2690    1.4140   20.9380 O   0  0  0  0  0  0  0  0  0  0  0  0
    8.0883   -5.8459   27.8325 O   0  0  0  0  0  0  0  0  0  0  0  0
   14.5107    3.3497   21.9616 Cl  0  0  0  0  0  0  0  0  0  0  0  0
    3.6468    2.0173   21.6825 H   0  0  0  0  0  0  0  0  0  0  0  0
    3.0153    2.6527   19.3907 H   0  0  0  0  0  0  0  0  0  0  0  0
   14.0961   -0.2108   25.2397 H   0  0  0  0  0  0  0  0  0  0  0  0
    5.7015    0.6980   22.1071 H   0  0  0  0  0  0  0  0  0  0  0  0
   11.6255   -0.2418   25.1412 H   0  0  0  0  0  0  0  0  0  0  0  0
    4.4064    1.9744   17.4453 H   0  0  0  0  0  0  0  0  0  0  0  0
    8.6905   -2.3533   26.5810 H   0  0  0  0  0  0  0  0  0  0  0  0
    9.9266   -4.3896   22.9917 H   0  0  0  0  0  0  0  0  0  0  0  0
    8.9233   -0.1992   25.4232 H   0  0  0  0  0  0  0  0  0  0  0  0
   10.0650   -2.2330   21.8256 H   0  0  0  0  0  0  0  0  0  0  0  0
   15.3793    1.3689   23.8423 H   0  0  0  0  0  0  0  0  0  0  0  0
   11.6979    2.9154   22.2211 H   0  0  0  0  0  0  0  0  0  0  0  0
   10.8985   -4.3115   26.8085 H   0  0  0  0  0  0  0  0  0  0  0  0
   10.4915   -6.0334   26.6323 H   0  0  0  0  0  0  0  0  0  0  0  0
    8.4327   -6.6456   25.2620 H   0  0  0  0  0  0  0  0  0  0  0  0
    7.4725   -5.3241   24.5619 H   0  0  0  0  0  0  0  0  0  0  0  0
    9.7636   -5.2398   28.8419 H   0  0  0  0  0  0  0  0  0  0  0  0
    8.8236   -3.9268   28.1248 H   0  0  0  0  0  0  0  0  0  0  0  0
    6.8339   -4.5337   26.8232 H   0  0  0  0  0  0  0  0  0  0  0  0
    6.4550   -6.2521   26.6643 H   0  0  0  0  0  0  0  0  0  0  0  0
    9.5786    1.2746   24.6176 H   0  0  0  0  0  0  0  0  0  0  0  0
    9.6218    2.2274   23.1337 H   0  0  0  0  0  0  0  0  0  0  0  0
    6.8044    0.4388   16.8592 H   0  0  0  0  0  0  0  0  0  0  0  0
    8.2565   -1.5523   21.1108 H   0  0  0  0  0  0  0  0  0  0  0  0
  1  2  1  0  0  0  0
  1  4  2  0  0  0  0
  2  6  2  0  0  0  0
  3  5  2  0  0  0  0
  3 11  1  0  0  0  0
  4 13  1  0  0  0  0
  5 14  1  0  0  0  0
  6 15  1  0  0  0  0
  7  9  2  0  0  0  0
  7 16  1  0  0  0  0
  8 10  1  0  0  0  0
  8 16  2  0  0  0  0
  9 17  1  0  0  0  0
 10 17  2  0  0  0  0
 11 18  2  0  0  0  0
 12 14  2  0  0  0  0
 12 18  1  0  0  0  0
 13 15  2  0  0  0  0
 13 19  1  0  0  0  0
 14 25  1  0  0  0  0
 15 27  1  0  0  0  0
 16 28  1  0  0  0  0
 17 30  1  0  0  0  0
 18 33  1  0  0  0  0
 19 26  2  0  0  0  0
 19 29  1  0  0  0  0
 20 29  1  0  0  0  0
 20 30  1  0  0  0  0
 20 31  2  0  0  0  0
 21 23  1  0  0  0  0
 21 28  1  0  0  0  0
 22 24  1  0  0  0  0
 22 28  1  0  0  0  0
 23 32  1  0  0  0  0
 24 32  1  0  0  0  0
 25 30  1  0  0  0  0
 26 27  1  0  0  0  0
  1 34  1  0  0  0  0
  2 35  1  0  0  0  0
  3 36  1  0  0  0  0
  4 37  1  0  0  0  0
  5 38  1  0  0  0  0
  6 39  1  0  0  0  0
  7 40  1  0  0  0  0
  8 41  1  0  0  0  0
  9 42  1  0  0  0  0
 10 43  1  0  0  0  0
 11 44  1  0  0  0  0
 12 45  1  0  0  0  0
 21 46  1  0  0  0  0
 21 47  1  0  0  0  0
 22 48  1  0  0  0  0
 22 49  1  0  0  0  0
 23 50  1  0  0  0  0
 23 51  1  0  0  0  0
 24 52  1  0  0  0  0
 24 53  1  0  0  0  0
 25 54  1  0  0  0  0
 25 55  1  0  0  0  0
 27 56  1  0  0  0  0
 29 57  1  0  0  0  0
M  END
> <clash_score>
0

> <docking_score>
-7.094257354736328

> <overlap_score>
1.0027565956115723

$$$$
BENZO_85_1
  -OEChem-08232013443D

 51 54  0     0  0  0  0  0  0999 V2000
   14.2917    1.2412   23.8346 C   0  0  0  0  0  0  0  0  0  0  0  0
   13.5387    0.5668   24.7956 C   0  0  0  0  0  0  0  0  0  0  0  0
   13.6516    1.9336   22.8067 C   0  0  0  0  0  0  0  0  0  0  0  0
   12.1455    0.5845   24.7287 C   0  0  0  0  0  0  0  0  0  0  0  0
   12.2585    1.9514   22.7397 C   0  0  0  0  0  0  0  0  0  0  0  0
    9.0720   -1.1280   24.8640 C   0  0  0  0  0  0  0  0  0  0  0  0
    9.7200   -2.2600   22.8630 C   0  0  0  0  0  0  0  0  0  0  0  0
    8.9960   -2.3380   25.5320 C   0  0  0  0  0  0  0  0  0  0  0  0
    9.6730   -3.4710   23.5300 C   0  0  0  0  0  0  0  0  0  0  0  0
   11.5054    1.2768   23.7007 C   0  0  0  0  0  0  0  0  0  0  0  0
    9.3350   -1.0880   23.5010 C   0  0  0  0  0  0  0  0  0  0  0  0
    9.3070   -3.5340   24.8780 C   0  0  0  0  0  0  0  0  0  0  0  0
    6.1790    0.5730   19.9990 C   0  0  0  0  0  0  0  0  0  0  0  0
    7.3170   -0.1610   19.8550 C   0  0  0  0  0  0  0  0  0  0  0  0
    5.4210    0.9600   21.0930 C   0  0  0  0  0  0  0  0  0  0  0  0
    4.2750    1.7050   20.8490 C   0  0  0  0  0  0  0  0  0  0  0  0
    3.9160    2.0630   19.5520 C   0  0  0  0  0  0  0  0  0  0  0  0
    4.6890    1.6810   18.4640 C   0  0  0  0  0  0  0  0  0  0  0  0
    9.0420    0.3700   21.5280 C   0  0  0  0  0  0  0  0  0  0  0  0
    8.0128   -5.2151   26.1416 C   0  0  0  0  0  0  0  0  0  0  0  0
   10.4372   -5.5860   25.6589 C   0  0  0  0  0  0  0  0  0  0  0  0
   10.0059    1.2962   23.6279 C   0  0  0  0  0  0  0  0  0  0  0  0
    7.6390   -0.2680   18.5410 N   0  0  0  0  0  0  0  0  0  0  0  0
    6.7580    0.3810   17.8350 N   0  0  0  0  0  0  0  0  0  0  0  0
    5.8300    0.9190   18.6970 N   0  0  0  0  0  0  0  0  0  0  0  0
    8.1890   -0.7180   20.8700 N   0  0  0  0  0  0  0  0  0  0  0  0
    9.4560    0.1560   22.8130 N   0  0  0  0  0  0  0  0  0  0  0  0
    9.2543   -4.7552   25.5519 N   0  0  0  0  0  0  0  0  0  0  0  0
    9.2690    1.4140   20.9380 O   0  0  0  0  0  0  0  0  0  0  0  0
   15.3764    1.2284   23.8877 H   0  0  0  0  0  0  0  0  0  0  0  0
   14.0368    0.0285   25.5967 H   0  0  0  0  0  0  0  0  0  0  0  0
   14.2376    2.4597   22.0589 H   0  0  0  0  0  0  0  0  0  0  0  0
   11.5669    0.0560   25.4818 H   0  0  0  0  0  0  0  0  0  0  0  0
   11.7684    2.4933   21.9352 H   0  0  0  0  0  0  0  0  0  0  0  0
    8.9217   -0.1995   25.4232 H   0  0  0  0  0  0  0  0  0  0  0  0
   10.0643   -2.2341   21.8254 H   0  0  0  0  0  0  0  0  0  0  0  0
    8.6893   -2.3540   26.5808 H   0  0  0  0  0  0  0  0  0  0  0  0
    9.9257   -4.3898   22.9921 H   0  0  0  0  0  0  0  0  0  0  0  0
    5.6855    0.7074   22.1002 H   0  0  0  0  0  0  0  0  0  0  0  0
    3.6634    2.0034   21.6926 H   0  0  0  0  0  0  0  0  0  0  0  0
    3.0111    2.6563   19.3629 H   0  0  0  0  0  0  0  0  0  0  0  0
    4.4370    1.9522   17.4626 H   0  0  0  0  0  0  0  0  0  0  0  0
    8.1744   -6.1904   26.6238 H   0  0  0  0  0  0  0  0  0  0  0  0
    7.6718   -4.4870   26.8924 H   0  0  0  0  0  0  0  0  0  0  0  0
    7.2494   -5.3166   25.3561 H   0  0  0  0  0  0  0  0  0  0  0  0
   10.1946   -6.4995   26.2216 H   0  0  0  0  0  0  0  0  0  0  0  0
   10.7865   -5.8577   24.6518 H   0  0  0  0  0  0  0  0  0  0  0  0
   11.2285   -5.0312   26.1842 H   0  0  0  0  0  0  0  0  0  0  0  0
    9.5698    1.2303   24.6307 H   0  0  0  0  0  0  0  0  0  0  0  0
    9.6463    2.2273   23.1774 H   0  0  0  0  0  0  0  0  0  0  0  0
    8.2368   -1.5645   21.0930 H   0  0  0  0  0  0  0  0  0  0  0  0
  1  2  1  0  0  0  0
  1  3  2  0  0  0  0
  2  4  2  0  0  0  0
  3  5  1  0  0  0  0
  4 10  1  0  0  0  0
  5 10  2  0  0  0  0
  6  8  2  0  0  0  0
  6 11  1  0  0  0  0
  7  9  1  0  0  0  0
  7 11  2  0  0  0  0
  8 12  1  0  0  0  0
  9 12  2  0  0  0  0
 10 22  1  0  0  0  0
 11 27  1  0  0  0  0
 12 28  1  0  0  0  0
 13 14  2  0  0  0  0
 13 15  1  0  0  0  0
 13 25  1  0  0  0  0
 14 23  1  0  0  0  0
 14 26  1  0  0  0  0
 15 16  2  0  0  0  0
 16 17  1  0  0  0  0
 17 18  2  0  0  0  0
 18 25  1  0  0  0  0
 19 26  1  0  0  0  0
 19 27  1  0  0  0  0
 19 29  2  0  0  0  0
 20 28  1  0  0  0  0
 21 28  1  0  0  0  0
 22 27  1  0  0  0  0
 23 24  2  0  0  0  0
 24 25  1  0  0  0  0
  1 30  1  0  0  0  0
  2 31  1  0  0  0  0
  3 32  1  0  0  0  0
  4 33  1  0  0  0  0
  5 34  1  0  0  0  0
  6 35  1  0  0  0  0
  7 36  1  0  0  0  0
  8 37  1  0  0  0  0
  9 38  1  0  0  0  0
 15 39  1  0  0  0  0
 16 40  1  0  0  0  0
 17 41  1  0  0  0  0
 18 42  1  0  0  0  0
 20 43  1  0  0  0  0
 20 44  1  0  0  0  0
 20 45  1  0  0  0  0
 21 46  1  0  0  0  0
 21 47  1  0  0  0  0
 21 48  1  0  0  0  0
 22 49  1  0  0  0  0
 22 50  1  0  0  0  0
 26 51  1  0  0  0  0
M  END
> <clash_score>
0

> <docking_score>
-9.59132194519043

> <overlap_score>
0.9775586724281311

$$$$
BENZO_84_1
  -OEChem-08232013443D

 48 51  0     0  0  0  0  0  0999 V2000
    9.0720   -1.1280   24.8640 C   0  0  0  0  0  0  0  0  0  0  0  0
    9.7200   -2.2600   22.8630 C   0  0  0  0  0  0  0  0  0  0  0  0
    8.9960   -2.3380   25.5320 C   0  0  0  0  0  0  0  0  0  0  0  0
    9.6730   -3.4710   23.5300 C   0  0  0  0  0  0  0  0  0  0  0  0
   12.3102    2.4464   23.8216 C   0  0  0  0  0  0  0  0  0  0  0  0
   13.6541    2.1474   23.8666 C   0  0  0  0  0  0  0  0  0  0  0  0
   12.2650    0.1283   23.6577 C   0  0  0  0  0  0  0  0  0  0  0  0
   11.5054    1.2768   23.7007 C   0  0  0  0  0  0  0  0  0  0  0  0
    9.3350   -1.0880   23.5010 C   0  0  0  0  0  0  0  0  0  0  0  0
    9.3070   -3.5340   24.8780 C   0  0  0  0  0  0  0  0  0  0  0  0
    6.1790    0.5730   19.9990 C   0  0  0  0  0  0  0  0  0  0  0  0
    7.3170   -0.1610   19.8550 C   0  0  0  0  0  0  0  0  0  0  0  0
    5.4210    0.9600   21.0930 C   0  0  0  0  0  0  0  0  0  0  0  0
    4.2750    1.7050   20.8490 C   0  0  0  0  0  0  0  0  0  0  0  0
    3.9160    2.0630   19.5520 C   0  0  0  0  0  0  0  0  0  0  0  0
    4.6890    1.6810   18.4640 C   0  0  0  0  0  0  0  0  0  0  0  0
    9.0420    0.3700   21.5280 C   0  0  0  0  0  0  0  0  0  0  0  0
    8.0128   -5.2151   26.1416 C   0  0  0  0  0  0  0  0  0  0  0  0
   10.4372   -5.5860   25.6589 C   0  0  0  0  0  0  0  0  0  0  0  0
   10.0059    1.2962   23.6279 C   0  0  0  0  0  0  0  0  0  0  0  0
    7.6390   -0.2680   18.5410 N   0  0  0  0  0  0  0  0  0  0  0  0
    6.7580    0.3810   17.8350 N   0  0  0  0  0  0  0  0  0  0  0  0
    5.8300    0.9190   18.6970 N   0  0  0  0  0  0  0  0  0  0  0  0
    8.1890   -0.7180   20.8700 N   0  0  0  0  0  0  0  0  0  0  0  0
    9.4560    0.1560   22.8130 N   0  0  0  0  0  0  0  0  0  0  0  0
    9.2543   -4.7552   25.5519 N   0  0  0  0  0  0  0  0  0  0  0  0
    9.2690    1.4140   20.9380 O   0  0  0  0  0  0  0  0  0  0  0  0
   13.9412    0.4624   23.7632 S   0  0  0  0  0  0  0  0  0  0  0  0
    8.9217   -0.1995   25.4232 H   0  0  0  0  0  0  0  0  0  0  0  0
   10.0643   -2.2341   21.8254 H   0  0  0  0  0  0  0  0  0  0  0  0
    8.6893   -2.3540   26.5808 H   0  0  0  0  0  0  0  0  0  0  0  0
    9.9257   -4.3898   22.9921 H   0  0  0  0  0  0  0  0  0  0  0  0
   11.9269    3.4577   23.8729 H   0  0  0  0  0  0  0  0  0  0  0  0
   14.4811    2.8377   23.9546 H   0  0  0  0  0  0  0  0  0  0  0  0
   11.9201   -0.8925   23.5683 H   0  0  0  0  0  0  0  0  0  0  0  0
    5.6855    0.7074   22.1002 H   0  0  0  0  0  0  0  0  0  0  0  0
    3.6634    2.0034   21.6926 H   0  0  0  0  0  0  0  0  0  0  0  0
    3.0111    2.6563   19.3629 H   0  0  0  0  0  0  0  0  0  0  0  0
    4.4370    1.9522   17.4626 H   0  0  0  0  0  0  0  0  0  0  0  0
    8.1744   -6.1904   26.6238 H   0  0  0  0  0  0  0  0  0  0  0  0
    7.6718   -4.4870   26.8924 H   0  0  0  0  0  0  0  0  0  0  0  0
    7.2494   -5.3166   25.3561 H   0  0  0  0  0  0  0  0  0  0  0  0
   10.1946   -6.4995   26.2216 H   0  0  0  0  0  0  0  0  0  0  0  0
   10.7865   -5.8577   24.6518 H   0  0  0  0  0  0  0  0  0  0  0  0
   11.2285   -5.0312   26.1842 H   0  0  0  0  0  0  0  0  0  0  0  0
    9.5698    1.2303   24.6307 H   0  0  0  0  0  0  0  0  0  0  0  0
    9.6463    2.2273   23.1774 H   0  0  0  0  0  0  0  0  0  0  0  0
    8.2368   -1.5645   21.0930 H   0  0  0  0  0  0  0  0  0  0  0  0
  1  3  2  0  0  0  0
  1  9  1  0  0  0  0
  2  4  1  0  0  0  0
  2  9  2  0  0  0  0
  3 10  1  0  0  0  0
  4 10  2  0  0  0  0
  5  6  2  0  0  0  0
  5  8  1  0  0  0  0
  6 28  1  0  0  0  0
  7  8  2  0  0  0  0
  7 28  1  0  0  0  0
  8 20  1  0  0  0  0
  9 25  1  0  0  0  0
 10 26  1  0  0  0  0
 11 12  2  0  0  0  0
 11 13  1  0  0  0  0
 11 23  1  0  0  0  0
 12 21  1  0  0  0  0
 12 24  1  0  0  0  0
 13 14  2  0  0  0  0
 14 15  1  0  0  0  0
 15 16  2  0  0  0  0
 16 23  1  0  0  0  0
 17 24  1  0  0  0  0
 17 25  1  0  0  0  0
 17 27  2  0  0  0  0
 18 26  1  0  0  0  0
 19 26  1  0  0  0  0
 20 25  1  0  0  0  0
 21 22  2  0  0  0  0
 22 23  1  0  0  0  0
  1 29  1  0  0  0  0
  2 30  1  0  0  0  0
  3 31  1  0  0  0  0
  4 32  1  0  0  0  0
  5 33  1  0  0  0  0
  6 34  1  0  0  0  0
  7 35  1  0  0  0  0
 13 36  1  0  0  0  0
 14 37  1  0  0  0  0
 15 38  1  0  0  0  0
 16 39  1  0  0  0  0
 18 40  1  0  0  0  0
 18 41  1  0  0  0  0
 18 42  1  0  0  0  0
 19 43  1  0  0  0  0
 19 44  1  0  0  0  0
 19 45  1  0  0  0  0
 20 46  1  0  0  0  0
 20 47  1  0  0  0  0
 24 48  1  0  0  0  0
M  END
> <clash_score>
0

> <docking_score>
-8.654287338256836

> <overlap_score>
0.9644123911857605

$$$$
BENZO_83_1
  -OEChem-08232013443D

 57 61  0     0  0  0  0  0  0999 V2000
    4.2750    1.7050   20.8490 C   0  0  0  0  0  0  0  0  0  0  0  0
    3.9160    2.0630   19.5520 C   0  0  0  0  0  0  0  0  0  0  0  0
    5.4210    0.9600   21.0930 C   0  0  0  0  0  0  0  0  0  0  0  0
    4.6890    1.6810   18.4640 C   0  0  0  0  0  0  0  0  0  0  0  0
    8.9960   -2.3380   25.5320 C   0  0  0  0  0  0  0  0  0  0  0  0
    9.6730   -3.4710   23.5300 C   0  0  0  0  0  0  0  0  0  0  0  0
    9.0720   -1.1280   24.8640 C   0  0  0  0  0  0  0  0  0  0  0  0
    9.7200   -2.2600   22.8630 C   0  0  0  0  0  0  0  0  0  0  0  0
   12.3908    2.1640   22.9538 C   0  0  0  0  0  0  0  0  0  0  0  0
   12.3238    0.5511   24.4468 C   0  0  0  0  0  0  0  0  0  0  0  0
    6.1790    0.5730   19.9990 C   0  0  0  0  0  0  0  0  0  0  0  0
   11.5063    1.3374   23.6723 C   0  0  0  0  0  0  0  0  0  0  0  0
    5.8300    0.9190   18.6970 C   0  0  0  0  0  0  0  0  0  0  0  0
    9.3070   -3.5340   24.8780 C   0  0  0  0  0  0  0  0  0  0  0  0
    9.3350   -1.0880   23.5010 C   0  0  0  0  0  0  0  0  0  0  0  0
    7.3170   -0.1610   19.8550 C   0  0  0  0  0  0  0  0  0  0  0  0
    9.0420    0.3700   21.5280 C   0  0  0  0  0  0  0  0  0  0  0  0
   10.0771   -5.0255   26.7193 C   0  0  0  0  0  0  0  0  0  0  0  0
    8.0927   -5.6195   25.4071 C   0  0  0  0  0  0  0  0  0  0  0  0
    9.1933   -4.9427   27.9592 C   0  0  0  0  0  0  0  0  0  0  0  0
    7.2756   -5.5290   26.6967 C   0  0  0  0  0  0  0  0  0  0  0  0
   14.8092    0.3979   24.7260 C   0  0  0  0  0  0  0  0  0  0  0  0
   10.0063    1.3195   23.6101 C   0  0  0  0  0  0  0  0  0  0  0  0
   13.6720    1.9251   23.2460 N   0  0  0  0  0  0  0  0  0  0  0  0
    7.6390   -0.2680   18.5410 N   0  0  0  0  0  0  0  0  0  0  0  0
    6.7580    0.3810   17.8350 N   0  0  0  0  0  0  0  0  0  0  0  0
   13.5986    0.9395   24.1567 N   0  0  0  0  0  0  0  0  0  0  0  0
    9.2563   -4.7368   25.5413 N   0  0  0  0  0  0  0  0  0  0  0  0
    8.1890   -0.7180   20.8700 N   0  0  0  0  0  0  0  0  0  0  0  0
    9.4560    0.1560   22.8130 N   0  0  0  0  0  0  0  0  0  0  0  0
    9.2690    1.4140   20.9380 O   0  0  0  0  0  0  0  0  0  0  0  0
    8.0883   -5.8459   27.8325 O   0  0  0  0  0  0  0  0  0  0  0  0
    3.6468    2.0173   21.6825 H   0  0  0  0  0  0  0  0  0  0  0  0
    3.0153    2.6527   19.3907 H   0  0  0  0  0  0  0  0  0  0  0  0
    5.7015    0.6980   22.1071 H   0  0  0  0  0  0  0  0  0  0  0  0
    4.4064    1.9744   17.4453 H   0  0  0  0  0  0  0  0  0  0  0  0
    8.6905   -2.3533   26.5810 H   0  0  0  0  0  0  0  0  0  0  0  0
    9.9266   -4.3896   22.9917 H   0  0  0  0  0  0  0  0  0  0  0  0
    8.9233   -0.1992   25.4232 H   0  0  0  0  0  0  0  0  0  0  0  0
   10.0650   -2.2330   21.8256 H   0  0  0  0  0  0  0  0  0  0  0  0
   12.1576    2.9318   22.2297 H   0  0  0  0  0  0  0  0  0  0  0  0
   12.1121   -0.2315   25.1628 H   0  0  0  0  0  0  0  0  0  0  0  0
   10.8985   -4.3115   26.8085 H   0  0  0  0  0  0  0  0  0  0  0  0
   10.4915   -6.0334   26.6323 H   0  0  0  0  0  0  0  0  0  0  0  0
    8.4327   -6.6456   25.2620 H   0  0  0  0  0  0  0  0  0  0  0  0
    7.4725   -5.3241   24.5619 H   0  0  0  0  0  0  0  0  0  0  0  0
    9.7636   -5.2398   28.8419 H   0  0  0  0  0  0  0  0  0  0  0  0
    8.8236   -3.9268   28.1248 H   0  0  0  0  0  0  0  0  0  0  0  0
    6.8339   -4.5337   26.8232 H   0  0  0  0  0  0  0  0  0  0  0  0
    6.4550   -6.2521   26.6643 H   0  0  0  0  0  0  0  0  0  0  0  0
   15.1341   -0.4353   24.0973 H   0  0  0  0  0  0  0  0  0  0  0  0
   15.5770    1.1759   24.7564 H   0  0  0  0  0  0  0  0  0  0  0  0
   14.6073    0.0539   25.7442 H   0  0  0  0  0  0  0  0  0  0  0  0
    9.5786    1.2746   24.6176 H   0  0  0  0  0  0  0  0  0  0  0  0
    9.6218    2.2274   23.1337 H   0  0  0  0  0  0  0  0  0  0  0  0
    6.8044    0.4388   16.8592 H   0  0  0  0  0  0  0  0  0  0  0  0
    8.2565   -1.5523   21.1108 H   0  0  0  0  0  0  0  0  0  0  0  0
  1  2  1  0  0  0  0
  1  3  2  0  0  0  0
  2  4  2  0  0  0  0
  3 11  1  0  0  0  0
  4 13  1  0  0  0  0
  5  7  2  0  0  0  0
  5 14  1  0  0  0  0
  6  8  1  0  0  0  0
  6 14  2  0  0  0  0
  7 15  1  0  0  0  0
  8 15  2  0  0  0  0
  9 12  1  0  0  0  0
  9 24  2  0  0  0  0
 10 12  2  0  0  0  0
 10 27  1  0  0  0  0
 11 13  2  0  0  0  0
 11 16  1  0  0  0  0
 12 23  1  0  0  0  0
 13 26  1  0  0  0  0
 14 28  1  0  0  0  0
 15 30  1  0  0  0  0
 16 25  2  0  0  0  0
 16 29  1  0  0  0  0
 17 29  1  0  0  0  0
 17 30  1  0  0  0  0
 17 31  2  0  0  0  0
 18 20  1  0  0  0  0
 18 28  1  0  0  0  0
 19 21  1  0  0  0  0
 19 28  1  0  0  0  0
 20 32  1  0  0  0  0
 21 32  1  0  0  0  0
 22 27  1  0  0  0  0
 23 30  1  0  0  0  0
 24 27  1  0  0  0  0
 25 26  1  0  0  0  0
  1 33  1  0  0  0  0
  2 34  1  0  0  0  0
  3 35  1  0  0  0  0
  4 36  1  0  0  0  0
  5 37  1  0  0  0  0
  6 38  1  0  0  0  0
  7 39  1  0  0  0  0
  8 40  1  0  0  0  0
  9 41  1  0  0  0  0
 10 42  1  0  0  0  0
 18 43  1  0  0  0  0
 18 44  1  0  0  0  0
 19 45  1  0  0  0  0
 19 46  1  0  0  0  0
 20 47  1  0  0  0  0
 20 48  1  0  0  0  0
 21 49  1  0  0  0  0
 21 50  1  0  0  0  0
 22 51  1  0  0  0  0
 22 52  1  0  0  0  0
 22 53  1  0  0  0  0
 23 54  1  0  0  0  0
 23 55  1  0  0  0  0
 26 56  1  0  0  0  0
 29 57  1  0  0  0  0
M  END
> <clash_score>
0

> <docking_score>
-7.960334777832031

> <overlap_score>
0.9925914406776428

$$$$
BENZO_87_1
  -OEChem-08232013443D

 51 54  0     0  0  0  0  0  0999 V2000
    9.0720   -1.1280   24.8640 C   0  0  0  0  0  0  0  0  0  0  0  0
    9.7200   -2.2600   22.8630 C   0  0  0  0  0  0  0  0  0  0  0  0
    8.9960   -2.3380   25.5320 C   0  0  0  0  0  0  0  0  0  0  0  0
    9.6730   -3.4710   23.5300 C   0  0  0  0  0  0  0  0  0  0  0  0
   12.4143    2.1041   23.0142 C   0  0  0  0  0  0  0  0  0  0  0  0
   12.2985    0.4479   24.4559 C   0  0  0  0  0  0  0  0  0  0  0  0
   11.5054    1.2768   23.7007 C   0  0  0  0  0  0  0  0  0  0  0  0
    9.3350   -1.0880   23.5010 C   0  0  0  0  0  0  0  0  0  0  0  0
    9.3070   -3.5340   24.8780 C   0  0  0  0  0  0  0  0  0  0  0  0
    6.1790    0.5730   19.9990 C   0  0  0  0  0  0  0  0  0  0  0  0
    7.3170   -0.1610   19.8550 C   0  0  0  0  0  0  0  0  0  0  0  0
    5.4210    0.9600   21.0930 C   0  0  0  0  0  0  0  0  0  0  0  0
    4.2750    1.7050   20.8490 C   0  0  0  0  0  0  0  0  0  0  0  0
    3.9160    2.0630   19.5520 C   0  0  0  0  0  0  0  0  0  0  0  0
    4.6890    1.6810   18.4640 C   0  0  0  0  0  0  0  0  0  0  0  0
    9.0420    0.3700   21.5280 C   0  0  0  0  0  0  0  0  0  0  0  0
   14.7775    0.2276   24.7467 C   0  0  0  0  0  0  0  0  0  0  0  0
    8.0128   -5.2151   26.1416 C   0  0  0  0  0  0  0  0  0  0  0  0
   10.4372   -5.5860   25.6589 C   0  0  0  0  0  0  0  0  0  0  0  0
   10.0059    1.2962   23.6279 C   0  0  0  0  0  0  0  0  0  0  0  0
   13.6874    1.8261   23.3073 N   0  0  0  0  0  0  0  0  0  0  0  0
    7.6390   -0.2680   18.5410 N   0  0  0  0  0  0  0  0  0  0  0  0
    6.7580    0.3810   17.8350 N   0  0  0  0  0  0  0  0  0  0  0  0
   13.5842    0.8149   24.1865 N   0  0  0  0  0  0  0  0  0  0  0  0
    5.8300    0.9190   18.6970 N   0  0  0  0  0  0  0  0  0  0  0  0
    8.1890   -0.7180   20.8700 N   0  0  0  0  0  0  0  0  0  0  0  0
    9.4560    0.1560   22.8130 N   0  0  0  0  0  0  0  0  0  0  0  0
    9.2543   -4.7552   25.5519 N   0  0  0  0  0  0  0  0  0  0  0  0
    9.2690    1.4140   20.9380 O   0  0  0  0  0  0  0  0  0  0  0  0
    8.9217   -0.1995   25.4232 H   0  0  0  0  0  0  0  0  0  0  0  0
   10.0643   -2.2341   21.8254 H   0  0  0  0  0  0  0  0  0  0  0  0
    8.6893   -2.3540   26.5808 H   0  0  0  0  0  0  0  0  0  0  0  0
    9.9257   -4.3898   22.9921 H   0  0  0  0  0  0  0  0  0  0  0  0
   12.2044    2.8991   22.3127 H   0  0  0  0  0  0  0  0  0  0  0  0
   12.0634   -0.3512   25.1459 H   0  0  0  0  0  0  0  0  0  0  0  0
    5.6855    0.7074   22.1002 H   0  0  0  0  0  0  0  0  0  0  0  0
    3.6634    2.0034   21.6926 H   0  0  0  0  0  0  0  0  0  0  0  0
    3.0111    2.6563   19.3629 H   0  0  0  0  0  0  0  0  0  0  0  0
    4.4370    1.9522   17.4626 H   0  0  0  0  0  0  0  0  0  0  0  0
   15.0876   -0.5933   24.0947 H   0  0  0  0  0  0  0  0  0  0  0  0
   15.5631    0.9860   24.8065 H   0  0  0  0  0  0  0  0  0  0  0  0
   14.5602   -0.1428   25.7525 H   0  0  0  0  0  0  0  0  0  0  0  0
    8.1744   -6.1904   26.6238 H   0  0  0  0  0  0  0  0  0  0  0  0
    7.6718   -4.4870   26.8924 H   0  0  0  0  0  0  0  0  0  0  0  0
    7.2494   -5.3166   25.3561 H   0  0  0  0  0  0  0  0  0  0  0  0
   10.1946   -6.4995   26.2216 H   0  0  0  0  0  0  0  0  0  0  0  0
   10.7865   -5.8577   24.6518 H   0  0  0  0  0  0  0  0  0  0  0  0
   11.2285   -5.0312   26.1842 H   0  0  0  0  0  0  0  0  0  0  0  0
    9.5698    1.2303   24.6307 H   0  0  0  0  0  0  0  0  0  0  0  0
    9.6463    2.2273   23.1774 H   0  0  0  0  0  0  0  0  0  0  0  0
    8.2368   -1.5645   21.0930 H   0  0  0  0  0  0  0  0  0  0  0  0
  1  3  2  0  0  0  0
  1  8  1  0  0  0  0
  2  4  1  0  0  0  0
  2  8  2  0  0  0  0
  3  9  1  0  0  0  0
  4  9  2  0  0  0  0
  5  7  1  0  0  0  0
  5 21  2  0  0  0  0
  6  7  2  0  0  0  0
  6 24  1  0  0  0  0
  7 20  1  0  0  0  0
  8 27  1  0  0  0  0
  9 28  1  0  0  0  0
 10 11  2  0  0  0  0
 10 12  1  0  0  0  0
 10 25  1  0  0  0  0
 11 22  1  0  0  0  0
 11 26  1  0  0  0  0
 12 13  2  0  0  0  0
 13 14  1  0  0  0  0
 14 15  2  0  0  0  0
 15 25  1  0  0  0  0
 16 26  1  0  0  0  0
 16 27  1  0  0  0  0
 16 29  2  0  0  0  0
 17 24  1  0  0  0  0
 18 28  1  0  0  0  0
 19 28  1  0  0  0  0
 20 27  1  0  0  0  0
 21 24  1  0  0  0  0
 22 23  2  0  0  0  0
 23 25  1  0  0  0  0
  1 30  1  0  0  0  0
  2 31  1  0  0  0  0
  3 32  1  0  0  0  0
  4 33  1  0  0  0  0
  5 34  1  0  0  0  0
  6 35  1  0  0  0  0
 12 36  1  0  0  0  0
 13 37  1  0  0  0  0
 14 38  1  0  0  0  0
 15 39  1  0  0  0  0
 17 40  1  0  0  0  0
 17 41  1  0  0  0  0
 17 42  1  0  0  0  0
 18 43  1  0  0  0  0
 18 44  1  0  0  0  0
 18 45  1  0  0  0  0
 19 46  1  0  0  0  0
 19 47  1  0  0  0  0
 19 48  1  0  0  0  0
 20 49  1  0  0  0  0
 20 50  1  0  0  0  0
 26 51  1  0  0  0  0
M  END
> <clash_score>
0

> <docking_score>
-9.1990327835083

> <overlap_score>
0.9774585366249084

$$$$
BENZO_86_1
  -OEChem-08232013443D

 51 54  0     0  0  0  0  0  0999 V2000
   13.6446    2.1626   23.0107 C   0  0  0  0  0  0  0  0  0  0  0  0
   12.2515    2.1792   22.9427 C   0  0  0  0  0  0  0  0  0  0  0  0
    9.0720   -1.1280   24.8640 C   0  0  0  0  0  0  0  0  0  0  0  0
    9.7200   -2.2600   22.8630 C   0  0  0  0  0  0  0  0  0  0  0  0
    8.9960   -2.3380   25.5320 C   0  0  0  0  0  0  0  0  0  0  0  0
    9.6730   -3.4710   23.5300 C   0  0  0  0  0  0  0  0  0  0  0  0
   14.2916    1.2434   23.8367 C   0  0  0  0  0  0  0  0  0  0  0  0
   12.1524    0.3577   24.5268 C   0  0  0  0  0  0  0  0  0  0  0  0
   11.5054    1.2768   23.7007 C   0  0  0  0  0  0  0  0  0  0  0  0
    9.3350   -1.0880   23.5010 C   0  0  0  0  0  0  0  0  0  0  0  0
    9.3070   -3.5340   24.8780 C   0  0  0  0  0  0  0  0  0  0  0  0
   13.5455    0.3411   24.5948 C   0  0  0  0  0  0  0  0  0  0  0  0
    6.1790    0.5730   19.9990 C   0  0  0  0  0  0  0  0  0  0  0  0
    7.3170   -0.1610   19.8550 C   0  0  0  0  0  0  0  0  0  0  0  0
    5.4210    0.9600   21.0930 C   0  0  0  0  0  0  0  0  0  0  0  0
    4.2750    1.7050   20.8490 C   0  0  0  0  0  0  0  0  0  0  0  0
    3.9160    2.0630   19.5520 C   0  0  0  0  0  0  0  0  0  0  0  0
    4.6890    1.6810   18.4640 C   0  0  0  0  0  0  0  0  0  0  0  0
    9.0420    0.3700   21.5280 C   0  0  0  0  0  0  0  0  0  0  0  0
    8.0128   -5.2151   26.1416 C   0  0  0  0  0  0  0  0  0  0  0  0
   10.4372   -5.5860   25.6589 C   0  0  0  0  0  0  0  0  0  0  0  0
   10.0059    1.2962   23.6279 C   0  0  0  0  0  0  0  0  0  0  0  0
    7.6390   -0.2680   18.5410 N   0  0  0  0  0  0  0  0  0  0  0  0
    6.7580    0.3810   17.8350 N   0  0  0  0  0  0  0  0  0  0  0  0
    5.8300    0.9190   18.6970 N   0  0  0  0  0  0  0  0  0  0  0  0
    8.1890   -0.7180   20.8700 N   0  0  0  0  0  0  0  0  0  0  0  0
    9.4560    0.1560   22.8130 N   0  0  0  0  0  0  0  0  0  0  0  0
    9.2543   -4.7552   25.5519 N   0  0  0  0  0  0  0  0  0  0  0  0
    9.2690    1.4140   20.9380 O   0  0  0  0  0  0  0  0  0  0  0  0
   14.3443   -0.7919   25.6146 Cl  0  0  0  0  0  0  0  0  0  0  0  0
   14.2252    2.8655   22.4203 H   0  0  0  0  0  0  0  0  0  0  0  0
   11.7558    2.8989   22.2964 H   0  0  0  0  0  0  0  0  0  0  0  0
    8.9217   -0.1995   25.4232 H   0  0  0  0  0  0  0  0  0  0  0  0
   10.0643   -2.2341   21.8254 H   0  0  0  0  0  0  0  0  0  0  0  0
    8.6893   -2.3540   26.5808 H   0  0  0  0  0  0  0  0  0  0  0  0
    9.9257   -4.3898   22.9921 H   0  0  0  0  0  0  0  0  0  0  0  0
   15.3780    1.2421   23.8799 H   0  0  0  0  0  0  0  0  0  0  0  0
   11.5662   -0.3441   25.1155 H   0  0  0  0  0  0  0  0  0  0  0  0
    5.6855    0.7074   22.1002 H   0  0  0  0  0  0  0  0  0  0  0  0
    3.6634    2.0034   21.6926 H   0  0  0  0  0  0  0  0  0  0  0  0
    3.0111    2.6563   19.3629 H   0  0  0  0  0  0  0  0  0  0  0  0
    4.4370    1.9522   17.4626 H   0  0  0  0  0  0  0  0  0  0  0  0
    8.1744   -6.1904   26.6238 H   0  0  0  0  0  0  0  0  0  0  0  0
    7.6718   -4.4870   26.8924 H   0  0  0  0  0  0  0  0  0  0  0  0
    7.2494   -5.3166   25.3561 H   0  0  0  0  0  0  0  0  0  0  0  0
   10.1946   -6.4995   26.2216 H   0  0  0  0  0  0  0  0  0  0  0  0
   10.7865   -5.8577   24.6518 H   0  0  0  0  0  0  0  0  0  0  0  0
   11.2285   -5.0312   26.1842 H   0  0  0  0  0  0  0  0  0  0  0  0
    9.5698    1.2303   24.6307 H   0  0  0  0  0  0  0  0  0  0  0  0
    9.6463    2.2273   23.1774 H   0  0  0  0  0  0  0  0  0  0  0  0
    8.2368   -1.5645   21.0930 H   0  0  0  0  0  0  0  0  0  0  0  0
  1  2  2  0  0  0  0
  1  7  1  0  0  0  0
  2  9  1  0  0  0  0
  3  5  2  0  0  0  0
  3 10  1  0  0  0  0
  4  6  1  0  0  0  0
  4 10  2  0  0  0  0
  5 11  1  0  0  0  0
  6 11  2  0  0  0  0
  7 12  2  0  0  0  0
  8  9  2  0  0  0  0
  8 12  1  0  0  0  0
  9 22  1  0  0  0  0
 10 27  1  0  0  0  0
 11 28  1  0  0  0  0
 12 30  1  0  0  0  0
 13 14  2  0  0  0  0
 13 15  1  0  0  0  0
 13 25  1  0  0  0  0
 14 23  1  0  0  0  0
 14 26  1  0  0  0  0
 15 16  2  0  0  0  0
 16 17  1  0  0  0  0
 17 18  2  0  0  0  0
 18 25  1  0  0  0  0
 19 26  1  0  0  0  0
 19 27  1  0  0  0  0
 19 29  2  0  0  0  0
 20 28  1  0  0  0  0
 21 28  1  0  0  0  0
 22 27  1  0  0  0  0
 23 24  2  0  0  0  0
 24 25  1  0  0  0  0
  1 31  1  0  0  0  0
  2 32  1  0  0  0  0
  3 33  1  0  0  0  0
  4 34  1  0  0  0  0
  5 35  1  0  0  0  0
  6 36  1  0  0  0  0
  7 37  1  0  0  0  0
  8 38  1  0  0  0  0
 15 39  1  0  0  0  0
 16 40  1  0  0  0  0
 17 41  1  0  0  0  0
 18 42  1  0  0  0  0
 20 43  1  0  0  0  0
 20 44  1  0  0  0  0
 20 45  1  0  0  0  0
 21 46  1  0  0  0  0
 21 47  1  0  0  0  0
 21 48  1  0  0  0  0
 22 49  1  0  0  0  0
 22 50  1  0  0  0  0
 26 51  1  0  0  0  0
M  END
> <clash_score>
0.6559760819313948

> <docking_score>
-8.44046401977539

> <overlap_score>
0.9815435409545898

$$$$
BENZO_89_1
  -OEChem-08232013443D

 53 56  0     0  0  0  0  0  0999 V2000
   14.2917    1.2412   23.8346 C   0  0  0  0  0  0  0  0  0  0  0  0
   13.5387    0.5668   24.7956 C   0  0  0  0  0  0  0  0  0  0  0  0
   13.6516    1.9336   22.8067 C   0  0  0  0  0  0  0  0  0  0  0  0
   12.1455    0.5845   24.7287 C   0  0  0  0  0  0  0  0  0  0  0  0
   12.2585    1.9514   22.7397 C   0  0  0  0  0  0  0  0  0  0  0  0
    8.9960   -2.3380   25.5320 C   0  0  0  0  0  0  0  0  0  0  0  0
    9.6730   -3.4710   23.5300 C   0  0  0  0  0  0  0  0  0  0  0  0
    9.0720   -1.1280   24.8640 C   0  0  0  0  0  0  0  0  0  0  0  0
    9.7200   -2.2600   22.8630 C   0  0  0  0  0  0  0  0  0  0  0  0
   11.5054    1.2768   23.7007 C   0  0  0  0  0  0  0  0  0  0  0  0
    9.3070   -3.5340   24.8780 C   0  0  0  0  0  0  0  0  0  0  0  0
    9.3350   -1.0880   23.5010 C   0  0  0  0  0  0  0  0  0  0  0  0
    6.1790    0.5730   19.9990 C   0  0  0  0  0  0  0  0  0  0  0  0
    7.3170   -0.1610   19.8550 C   0  0  0  0  0  0  0  0  0  0  0  0
    5.4210    0.9600   21.0930 C   0  0  0  0  0  0  0  0  0  0  0  0
    4.2750    1.7050   20.8490 C   0  0  0  0  0  0  0  0  0  0  0  0
    3.9160    2.0630   19.5520 C   0  0  0  0  0  0  0  0  0  0  0  0
    4.6890    1.6810   18.4640 C   0  0  0  0  0  0  0  0  0  0  0  0
    9.5334   -6.0236   25.0413 C   0  0  0  0  0  0  0  0  0  0  0  0
    9.0420    0.3700   21.5280 C   0  0  0  0  0  0  0  0  0  0  0  0
   10.6330   -7.3747   26.8774 C   0  0  0  0  0  0  0  0  0  0  0  0
   10.0059    1.2962   23.6279 C   0  0  0  0  0  0  0  0  0  0  0  0
    9.3523   -7.0865   26.1148 C   0  0  0  0  0  0  0  0  0  0  0  0
    7.6390   -0.2680   18.5410 N   0  0  0  0  0  0  0  0  0  0  0  0
    6.7580    0.3810   17.8350 N   0  0  0  0  0  0  0  0  0  0  0  0
    5.8300    0.9190   18.6970 N   0  0  0  0  0  0  0  0  0  0  0  0
    9.2546   -4.7422   25.5438 N   0  0  0  0  0  0  0  0  0  0  0  0
    8.1890   -0.7180   20.8700 N   0  0  0  0  0  0  0  0  0  0  0  0
    9.4560    0.1560   22.8130 N   0  0  0  0  0  0  0  0  0  0  0  0
    9.8806   -6.3052   23.8991 O   0  0  0  0  0  0  0  0  0  0  0  0
    9.2690    1.4140   20.9380 O   0  0  0  0  0  0  0  0  0  0  0  0
   15.3764    1.2284   23.8877 H   0  0  0  0  0  0  0  0  0  0  0  0
   14.0368    0.0285   25.5967 H   0  0  0  0  0  0  0  0  0  0  0  0
   14.2376    2.4597   22.0589 H   0  0  0  0  0  0  0  0  0  0  0  0
   11.5669    0.0560   25.4818 H   0  0  0  0  0  0  0  0  0  0  0  0
   11.7684    2.4933   21.9352 H   0  0  0  0  0  0  0  0  0  0  0  0
    8.6895   -2.3529   26.5807 H   0  0  0  0  0  0  0  0  0  0  0  0
    9.9262   -4.3897   22.9916 H   0  0  0  0  0  0  0  0  0  0  0  0
    8.9224   -0.1998   25.4238 H   0  0  0  0  0  0  0  0  0  0  0  0
   10.0649   -2.2343   21.8258 H   0  0  0  0  0  0  0  0  0  0  0  0
    5.6855    0.7074   22.1002 H   0  0  0  0  0  0  0  0  0  0  0  0
    3.6634    2.0034   21.6926 H   0  0  0  0  0  0  0  0  0  0  0  0
    3.0111    2.6563   19.3629 H   0  0  0  0  0  0  0  0  0  0  0  0
    4.4370    1.9522   17.4626 H   0  0  0  0  0  0  0  0  0  0  0  0
   11.4241   -7.7171   26.2023 H   0  0  0  0  0  0  0  0  0  0  0  0
   10.4629   -8.1531   27.6275 H   0  0  0  0  0  0  0  0  0  0  0  0
   10.9949   -6.4779   27.3911 H   0  0  0  0  0  0  0  0  0  0  0  0
    9.5698    1.2303   24.6307 H   0  0  0  0  0  0  0  0  0  0  0  0
    9.6463    2.2273   23.1774 H   0  0  0  0  0  0  0  0  0  0  0  0
    8.5795   -6.7463   26.8137 H   0  0  0  0  0  0  0  0  0  0  0  0
    8.9966   -8.0064   25.6366 H   0  0  0  0  0  0  0  0  0  0  0  0
    8.9776   -4.7057   26.5317 H   0  0  0  0  0  0  0  0  0  0  0  0
    8.2368   -1.5645   21.0930 H   0  0  0  0  0  0  0  0  0  0  0  0
  1  2  1  0  0  0  0
  1  3  2  0  0  0  0
  2  4  2  0  0  0  0
  3  5  1  0  0  0  0
  4 10  1  0  0  0  0
  5 10  2  0  0  0  0
  6  8  2  0  0  0  0
  6 11  1  0  0  0  0
  7  9  1  0  0  0  0
  7 11  2  0  0  0  0
  8 12  1  0  0  0  0
  9 12  2  0  0  0  0
 10 22  1  0  0  0  0
 11 27  1  0  0  0  0
 12 29  1  0  0  0  0
 13 14  2  0  0  0  0
 13 15  1  0  0  0  0
 13 26  1  0  0  0  0
 14 24  1  0  0  0  0
 14 28  1  0  0  0  0
 15 16  2  0  0  0  0
 16 17  1  0  0  0  0
 17 18  2  0  0  0  0
 18 26  1  0  0  0  0
 19 23  1  0  0  0  0
 19 27  1  0  0  0  0
 19 30  2  0  0  0  0
 20 28  1  0  0  0  0
 20 29  1  0  0  0  0
 20 31  2  0  0  0  0
 21 23  1  0  0  0  0
 22 29  1  0  0  0  0
 24 25  2  0  0  0  0
 25 26  1  0  0  0  0
  1 32  1  0  0  0  0
  2 33  1  0  0  0  0
  3 34  1  0  0  0  0
  4 35  1  0  0  0  0
  5 36  1  0  0  0  0
  6 37  1  0  0  0  0
  7 38  1  0  0  0  0
  8 39  1  0  0  0  0
  9 40  1  0  0  0  0
 15 41  1  0  0  0  0
 16 42  1  0  0  0  0
 17 43  1  0  0  0  0
 18 44  1  0  0  0  0
 21 45  1  0  0  0  0
 21 46  1  0  0  0  0
 21 47  1  0  0  0  0
 22 48  1  0  0  0  0
 22 49  1  0  0  0  0
 23 50  1  0  0  0  0
 23 51  1  0  0  0  0
 27 52  1  0  0  0  0
 28 53  1  0  0  0  0
M  END
> <clash_score>
1.4986177744906917

> <docking_score>
-6.3970136642456055

> <overlap_score>
0.9797781705856323

$$$$
BENZO_88_1
  -OEChem-08232013443D

 50 53  0     0  0  0  0  0  0999 V2000
    8.9960   -2.3380   25.5320 C   0  0  0  0  0  0  0  0  0  0  0  0
    9.6730   -3.4710   23.5300 C   0  0  0  0  0  0  0  0  0  0  0  0
    9.0720   -1.1280   24.8640 C   0  0  0  0  0  0  0  0  0  0  0  0
    9.7200   -2.2600   22.8630 C   0  0  0  0  0  0  0  0  0  0  0  0
   12.3102    2.4464   23.8216 C   0  0  0  0  0  0  0  0  0  0  0  0
   13.6541    2.1474   23.8666 C   0  0  0  0  0  0  0  0  0  0  0  0
   12.2650    0.1283   23.6577 C   0  0  0  0  0  0  0  0  0  0  0  0
   11.5054    1.2768   23.7007 C   0  0  0  0  0  0  0  0  0  0  0  0
    9.3070   -3.5340   24.8780 C   0  0  0  0  0  0  0  0  0  0  0  0
    9.3350   -1.0880   23.5010 C   0  0  0  0  0  0  0  0  0  0  0  0
    6.1790    0.5730   19.9990 C   0  0  0  0  0  0  0  0  0  0  0  0
    7.3170   -0.1610   19.8550 C   0  0  0  0  0  0  0  0  0  0  0  0
    5.4210    0.9600   21.0930 C   0  0  0  0  0  0  0  0  0  0  0  0
    4.2750    1.7050   20.8490 C   0  0  0  0  0  0  0  0  0  0  0  0
    3.9160    2.0630   19.5520 C   0  0  0  0  0  0  0  0  0  0  0  0
    4.6890    1.6810   18.4640 C   0  0  0  0  0  0  0  0  0  0  0  0
    9.5334   -6.0236   25.0413 C   0  0  0  0  0  0  0  0  0  0  0  0
    9.0420    0.3700   21.5280 C   0  0  0  0  0  0  0  0  0  0  0  0
   10.6330   -7.3747   26.8774 C   0  0  0  0  0  0  0  0  0  0  0  0
   10.0059    1.2962   23.6279 C   0  0  0  0  0  0  0  0  0  0  0  0
    9.3523   -7.0865   26.1148 C   0  0  0  0  0  0  0  0  0  0  0  0
    7.6390   -0.2680   18.5410 N   0  0  0  0  0  0  0  0  0  0  0  0
    6.7580    0.3810   17.8350 N   0  0  0  0  0  0  0  0  0  0  0  0
    5.8300    0.9190   18.6970 N   0  0  0  0  0  0  0  0  0  0  0  0
    9.2546   -4.7422   25.5438 N   0  0  0  0  0  0  0  0  0  0  0  0
    8.1890   -0.7180   20.8700 N   0  0  0  0  0  0  0  0  0  0  0  0
    9.4560    0.1560   22.8130 N   0  0  0  0  0  0  0  0  0  0  0  0
    9.8806   -6.3052   23.8991 O   0  0  0  0  0  0  0  0  0  0  0  0
    9.2690    1.4140   20.9380 O   0  0  0  0  0  0  0  0  0  0  0  0
   13.9412    0.4624   23.7632 S   0  0  0  0  0  0  0  0  0  0  0  0
    8.6895   -2.3529   26.5807 H   0  0  0  0  0  0  0  0  0  0  0  0
    9.9262   -4.3897   22.9916 H   0  0  0  0  0  0  0  0  0  0  0  0
    8.9224   -0.1998   25.4238 H   0  0  0  0  0  0  0  0  0  0  0  0
   10.0649   -2.2343   21.8258 H   0  0  0  0  0  0  0  0  0  0  0  0
   11.9269    3.4577   23.8729 H   0  0  0  0  0  0  0  0  0  0  0  0
   14.4811    2.8377   23.9546 H   0  0  0  0  0  0  0  0  0  0  0  0
   11.9201   -0.8925   23.5683 H   0  0  0  0  0  0  0  0  0  0  0  0
    5.6855    0.7074   22.1002 H   0  0  0  0  0  0  0  0  0  0  0  0
    3.6634    2.0034   21.6926 H   0  0  0  0  0  0  0  0  0  0  0  0
    3.0111    2.6563   19.3629 H   0  0  0  0  0  0  0  0  0  0  0  0
    4.4370    1.9522   17.4626 H   0  0  0  0  0  0  0  0  0  0  0  0
   11.4241   -7.7171   26.2023 H   0  0  0  0  0  0  0  0  0  0  0  0
   10.4629   -8.1531   27.6275 H   0  0  0  0  0  0  0  0  0  0  0  0
   10.9949   -6.4779   27.3911 H   0  0  0  0  0  0  0  0  0  0  0  0
    9.5698    1.2303   24.6307 H   0  0  0  0  0  0  0  0  0  0  0  0
    9.6463    2.2273   23.1774 H   0  0  0  0  0  0  0  0  0  0  0  0
    8.5795   -6.7463   26.8137 H   0  0  0  0  0  0  0  0  0  0  0  0
    8.9966   -8.0064   25.6366 H   0  0  0  0  0  0  0  0  0  0  0  0
    8.9776   -4.7057   26.5317 H   0  0  0  0  0  0  0  0  0  0  0  0
    8.2368   -1.5645   21.0930 H   0  0  0  0  0  0  0  0  0  0  0  0
  1  3  2  0  0  0  0
  1  9  1  0  0  0  0
  2  4  1  0  0  0  0
  2  9  2  0  0  0  0
  3 10  1  0  0  0  0
  4 10  2  0  0  0  0
  5  6  2  0  0  0  0
  5  8  1  0  0  0  0
  6 30  1  0  0  0  0
  7  8  2  0  0  0  0
  7 30  1  0  0  0  0
  8 20  1  0  0  0  0
  9 25  1  0  0  0  0
 10 27  1  0  0  0  0
 11 12  2  0  0  0  0
 11 13  1  0  0  0  0
 11 24  1  0  0  0  0
 12 22  1  0  0  0  0
 12 26  1  0  0  0  0
 13 14  2  0  0  0  0
 14 15  1  0  0  0  0
 15 16  2  0  0  0  0
 16 24  1  0  0  0  0
 17 21  1  0  0  0  0
 17 25  1  0  0  0  0
 17 28  2  0  0  0  0
 18 26  1  0  0  0  0
 18 27  1  0  0  0  0
 18 29  2  0  0  0  0
 19 21  1  0  0  0  0
 20 27  1  0  0  0  0
 22 23  2  0  0  0  0
 23 24  1  0  0  0  0
  1 31  1  0  0  0  0
  2 32  1  0  0  0  0
  3 33  1  0  0  0  0
  4 34  1  0  0  0  0
  5 35  1  0  0  0  0
  6 36  1  0  0  0  0
  7 37  1  0  0  0  0
 13 38  1  0  0  0  0
 14 39  1  0  0  0  0
 15 40  1  0  0  0  0
 16 41  1  0  0  0  0
 19 42  1  0  0  0  0
 19 43  1  0  0  0  0
 19 44  1  0  0  0  0
 20 45  1  0  0  0  0
 20 46  1  0  0  0  0
 21 47  1  0  0  0  0
 21 48  1  0  0  0  0
 25 49  1  0  0  0  0
 26 50  1  0  0  0  0
M  END
> <clash_score>
1.4986177744906917

> <docking_score>
-5.459975719451904

> <overlap_score>
0.9666813611984253

$$$$
BENZO_93_1
  -OEChem-08232013443D

 58 62  0     0  0  0  0  0  0999 V2000
   14.2935    1.3712   23.7867 C   0  0  0  0  0  0  0  0  0  0  0  0
   13.5637    0.6911   24.7616 C   0  0  0  0  0  0  0  0  0  0  0  0
   13.6297    2.0345   22.7546 C   0  0  0  0  0  0  0  0  0  0  0  0
   12.1701    0.6742   24.7044 C   0  0  0  0  0  0  0  0  0  0  0  0
   12.2361    2.0176   22.6974 C   0  0  0  0  0  0  0  0  0  0  0  0
    8.9960   -2.3380   25.5320 C   0  0  0  0  0  0  0  0  0  0  0  0
    9.6730   -3.4710   23.5300 C   0  0  0  0  0  0  0  0  0  0  0  0
    9.0720   -1.1280   24.8640 C   0  0  0  0  0  0  0  0  0  0  0  0
    9.7200   -2.2600   22.8630 C   0  0  0  0  0  0  0  0  0  0  0  0
   11.5063    1.3375   23.6723 C   0  0  0  0  0  0  0  0  0  0  0  0
    9.3070   -3.5340   24.8780 C   0  0  0  0  0  0  0  0  0  0  0  0
    9.3350   -1.0880   23.5010 C   0  0  0  0  0  0  0  0  0  0  0  0
    6.1790    0.5730   19.9990 C   0  0  0  0  0  0  0  0  0  0  0  0
    7.3170   -0.1610   19.8550 C   0  0  0  0  0  0  0  0  0  0  0  0
    5.4210    0.9600   21.0930 C   0  0  0  0  0  0  0  0  0  0  0  0
    4.2750    1.7050   20.8490 C   0  0  0  0  0  0  0  0  0  0  0  0
    3.9160    2.0630   19.5520 C   0  0  0  0  0  0  0  0  0  0  0  0
    4.6890    1.6810   18.4640 C   0  0  0  0  0  0  0  0  0  0  0  0
    9.0420    0.3700   21.5280 C   0  0  0  0  0  0  0  0  0  0  0  0
    7.3635   -6.1361   27.1888 C   0  0  0  0  0  0  0  0  0  0  0  0
    8.1961   -4.9735   27.7341 C   0  0  0  0  0  0  0  0  0  0  0  0
    7.1942   -6.0394   25.6709 C   0  0  0  0  0  0  0  0  0  0  0  0
    9.5196   -4.8490   26.9797 C   0  0  0  0  0  0  0  0  0  0  0  0
    8.5442   -5.8838   24.9639 C   0  0  0  0  0  0  0  0  0  0  0  0
   10.0063    1.3195   23.6101 C   0  0  0  0  0  0  0  0  0  0  0  0
    7.6390   -0.2680   18.5410 N   0  0  0  0  0  0  0  0  0  0  0  0
    6.7580    0.3810   17.8350 N   0  0  0  0  0  0  0  0  0  0  0  0
    5.8300    0.9190   18.6970 N   0  0  0  0  0  0  0  0  0  0  0  0
    9.2562   -4.7384   25.5422 N   0  0  0  0  0  0  0  0  0  0  0  0
    8.1890   -0.7180   20.8700 N   0  0  0  0  0  0  0  0  0  0  0  0
    9.4560    0.1560   22.8130 N   0  0  0  0  0  0  0  0  0  0  0  0
    9.2690    1.4140   20.9380 O   0  0  0  0  0  0  0  0  0  0  0  0
   15.3785    1.3854   23.8321 H   0  0  0  0  0  0  0  0  0  0  0  0
   14.0803    0.1755   25.5659 H   0  0  0  0  0  0  0  0  0  0  0  0
   14.1975    2.5650   21.9960 H   0  0  0  0  0  0  0  0  0  0  0  0
   11.6097    0.1416   25.4683 H   0  0  0  0  0  0  0  0  0  0  0  0
   11.7275    2.5370   21.8896 H   0  0  0  0  0  0  0  0  0  0  0  0
    8.6905   -2.3533   26.5810 H   0  0  0  0  0  0  0  0  0  0  0  0
    9.9266   -4.3896   22.9917 H   0  0  0  0  0  0  0  0  0  0  0  0
    8.9233   -0.1992   25.4231 H   0  0  0  0  0  0  0  0  0  0  0  0
   10.0650   -2.2330   21.8256 H   0  0  0  0  0  0  0  0  0  0  0  0
    5.6855    0.7074   22.1002 H   0  0  0  0  0  0  0  0  0  0  0  0
    3.6634    2.0034   21.6926 H   0  0  0  0  0  0  0  0  0  0  0  0
    3.0111    2.6563   19.3629 H   0  0  0  0  0  0  0  0  0  0  0  0
    4.4370    1.9522   17.4626 H   0  0  0  0  0  0  0  0  0  0  0  0
    7.8482   -7.0901   27.4469 H   0  0  0  0  0  0  0  0  0  0  0  0
    6.3760   -6.1438   27.6724 H   0  0  0  0  0  0  0  0  0  0  0  0
    7.6307   -4.0424   27.6403 H   0  0  0  0  0  0  0  0  0  0  0  0
    8.3915   -5.1310   28.7968 H   0  0  0  0  0  0  0  0  0  0  0  0
    6.6888   -6.9376   25.3010 H   0  0  0  0  0  0  0  0  0  0  0  0
    6.5515   -5.1859   25.4257 H   0  0  0  0  0  0  0  0  0  0  0  0
   10.0492   -3.9640   27.3414 H   0  0  0  0  0  0  0  0  0  0  0  0
   10.1431   -5.7254   27.1778 H   0  0  0  0  0  0  0  0  0  0  0  0
    9.1338   -6.7931   25.0868 H   0  0  0  0  0  0  0  0  0  0  0  0
    8.3656   -5.7264   23.8998 H   0  0  0  0  0  0  0  0  0  0  0  0
    9.5785    1.2746   24.6176 H   0  0  0  0  0  0  0  0  0  0  0  0
    9.6218    2.2274   23.1337 H   0  0  0  0  0  0  0  0  0  0  0  0
    8.2565   -1.5523   21.1108 H   0  0  0  0  0  0  0  0  0  0  0  0
  1  2  1  0  0  0  0
  1  3  2  0  0  0  0
  2  4  2  0  0  0  0
  3  5  1  0  0  0  0
  4 10  1  0  0  0  0
  5 10  2  0  0  0  0
  6  8  2  0  0  0  0
  6 11  1  0  0  0  0
  7  9  1  0  0  0  0
  7 11  2  0  0  0  0
  8 12  1  0  0  0  0
  9 12  2  0  0  0  0
 10 25  1  0  0  0  0
 11 29  1  0  0  0  0
 12 31  1  0  0  0  0
 13 14  2  0  0  0  0
 13 15  1  0  0  0  0
 13 28  1  0  0  0  0
 14 26  1  0  0  0  0
 14 30  1  0  0  0  0
 15 16  2  0  0  0  0
 16 17  1  0  0  0  0
 17 18  2  0  0  0  0
 18 28  1  0  0  0  0
 19 30  1  0  0  0  0
 19 31  1  0  0  0  0
 19 32  2  0  0  0  0
 20 21  1  0  0  0  0
 20 22  1  0  0  0  0
 21 23  1  0  0  0  0
 22 24  1  0  0  0  0
 23 29  1  0  0  0  0
 24 29  1  0  0  0  0
 25 31  1  0  0  0  0
 26 27  2  0  0  0  0
 27 28  1  0  0  0  0
  1 33  1  0  0  0  0
  2 34  1  0  0  0  0
  3 35  1  0  0  0  0
  4 36  1  0  0  0  0
  5 37  1  0  0  0  0
  6 38  1  0  0  0  0
  7 39  1  0  0  0  0
  8 40  1  0  0  0  0
  9 41  1  0  0  0  0
 15 42  1  0  0  0  0
 16 43  1  0  0  0  0
 17 44  1  0  0  0  0
 18 45  1  0  0  0  0
 20 46  1  0  0  0  0
 20 47  1  0  0  0  0
 21 48  1  0  0  0  0
 21 49  1  0  0  0  0
 22 50  1  0  0  0  0
 22 51  1  0  0  0  0
 23 52  1  0  0  0  0
 23 53  1  0  0  0  0
 24 54  1  0  0  0  0
 24 55  1  0  0  0  0
 25 56  1  0  0  0  0
 25 57  1  0  0  0  0
 30 58  1  0  0  0  0
M  END
> <clash_score>
0

> <docking_score>
-8.66526985168457

> <overlap_score>
0.9949210286140442

$$$$
BENZO_91_1
  -OEChem-08232013443D

 53 56  0     0  0  0  0  0  0999 V2000
    8.9960   -2.3380   25.5320 C   0  0  0  0  0  0  0  0  0  0  0  0
    9.6730   -3.4710   23.5300 C   0  0  0  0  0  0  0  0  0  0  0  0
    9.0720   -1.1280   24.8640 C   0  0  0  0  0  0  0  0  0  0  0  0
    9.7200   -2.2600   22.8630 C   0  0  0  0  0  0  0  0  0  0  0  0
   12.4143    2.1041   23.0142 C   0  0  0  0  0  0  0  0  0  0  0  0
   12.2985    0.4479   24.4559 C   0  0  0  0  0  0  0  0  0  0  0  0
   11.5054    1.2768   23.7007 C   0  0  0  0  0  0  0  0  0  0  0  0
    9.3070   -3.5340   24.8780 C   0  0  0  0  0  0  0  0  0  0  0  0
    9.3350   -1.0880   23.5010 C   0  0  0  0  0  0  0  0  0  0  0  0
    6.1790    0.5730   19.9990 C   0  0  0  0  0  0  0  0  0  0  0  0
    7.3170   -0.1610   19.8550 C   0  0  0  0  0  0  0  0  0  0  0  0
    5.4210    0.9600   21.0930 C   0  0  0  0  0  0  0  0  0  0  0  0
    4.2750    1.7050   20.8490 C   0  0  0  0  0  0  0  0  0  0  0  0
    3.9160    2.0630   19.5520 C   0  0  0  0  0  0  0  0  0  0  0  0
    4.6890    1.6810   18.4640 C   0  0  0  0  0  0  0  0  0  0  0  0
    9.5334   -6.0236   25.0413 C   0  0  0  0  0  0  0  0  0  0  0  0
    9.0420    0.3700   21.5280 C   0  0  0  0  0  0  0  0  0  0  0  0
   10.6330   -7.3747   26.8774 C   0  0  0  0  0  0  0  0  0  0  0  0
   14.7775    0.2276   24.7467 C   0  0  0  0  0  0  0  0  0  0  0  0
   10.0059    1.2962   23.6279 C   0  0  0  0  0  0  0  0  0  0  0  0
    9.3523   -7.0865   26.1148 C   0  0  0  0  0  0  0  0  0  0  0  0
   13.6874    1.8261   23.3073 N   0  0  0  0  0  0  0  0  0  0  0  0
    7.6390   -0.2680   18.5410 N   0  0  0  0  0  0  0  0  0  0  0  0
    6.7580    0.3810   17.8350 N   0  0  0  0  0  0  0  0  0  0  0  0
   13.5842    0.8149   24.1865 N   0  0  0  0  0  0  0  0  0  0  0  0
    5.8300    0.9190   18.6970 N   0  0  0  0  0  0  0  0  0  0  0  0
    9.2546   -4.7422   25.5438 N   0  0  0  0  0  0  0  0  0  0  0  0
    8.1890   -0.7180   20.8700 N   0  0  0  0  0  0  0  0  0  0  0  0
    9.4560    0.1560   22.8130 N   0  0  0  0  0  0  0  0  0  0  0  0
    9.8806   -6.3052   23.8991 O   0  0  0  0  0  0  0  0  0  0  0  0
    9.2690    1.4140   20.9380 O   0  0  0  0  0  0  0  0  0  0  0  0
    8.6895   -2.3529   26.5807 H   0  0  0  0  0  0  0  0  0  0  0  0
    9.9262   -4.3897   22.9916 H   0  0  0  0  0  0  0  0  0  0  0  0
    8.9224   -0.1998   25.4238 H   0  0  0  0  0  0  0  0  0  0  0  0
   10.0649   -2.2343   21.8258 H   0  0  0  0  0  0  0  0  0  0  0  0
   12.2044    2.8991   22.3127 H   0  0  0  0  0  0  0  0  0  0  0  0
   12.0634   -0.3512   25.1459 H   0  0  0  0  0  0  0  0  0  0  0  0
    5.6855    0.7074   22.1002 H   0  0  0  0  0  0  0  0  0  0  0  0
    3.6634    2.0034   21.6926 H   0  0  0  0  0  0  0  0  0  0  0  0
    3.0111    2.6563   19.3629 H   0  0  0  0  0  0  0  0  0  0  0  0
    4.4370    1.9522   17.4626 H   0  0  0  0  0  0  0  0  0  0  0  0
   11.4241   -7.7171   26.2023 H   0  0  0  0  0  0  0  0  0  0  0  0
   10.4629   -8.1531   27.6275 H   0  0  0  0  0  0  0  0  0  0  0  0
   10.9949   -6.4779   27.3911 H   0  0  0  0  0  0  0  0  0  0  0  0
   15.0876   -0.5933   24.0947 H   0  0  0  0  0  0  0  0  0  0  0  0
   15.5631    0.9860   24.8065 H   0  0  0  0  0  0  0  0  0  0  0  0
   14.5602   -0.1428   25.7525 H   0  0  0  0  0  0  0  0  0  0  0  0
    9.5698    1.2303   24.6307 H   0  0  0  0  0  0  0  0  0  0  0  0
    9.6463    2.2273   23.1774 H   0  0  0  0  0  0  0  0  0  0  0  0
    8.5795   -6.7463   26.8137 H   0  0  0  0  0  0  0  0  0  0  0  0
    8.9966   -8.0064   25.6366 H   0  0  0  0  0  0  0  0  0  0  0  0
    8.9776   -4.7057   26.5317 H   0  0  0  0  0  0  0  0  0  0  0  0
    8.2368   -1.5645   21.0930 H   0  0  0  0  0  0  0  0  0  0  0  0
  1  3  2  0  0  0  0
  1  8  1  0  0  0  0
  2  4  1  0  0  0  0
  2  8  2  0  0  0  0
  3  9  1  0  0  0  0
  4  9  2  0  0  0  0
  5  7  1  0  0  0  0
  5 22  2  0  0  0  0
  6  7  2  0  0  0  0
  6 25  1  0  0  0  0
  7 20  1  0  0  0  0
  8 27  1  0  0  0  0
  9 29  1  0  0  0  0
 10 11  2  0  0  0  0
 10 12  1  0  0  0  0
 10 26  1  0  0  0  0
 11 23  1  0  0  0  0
 11 28  1  0  0  0  0
 12 13  2  0  0  0  0
 13 14  1  0  0  0  0
 14 15  2  0  0  0  0
 15 26  1  0  0  0  0
 16 21  1  0  0  0  0
 16 27  1  0  0  0  0
 16 30  2  0  0  0  0
 17 28  1  0  0  0  0
 17 29  1  0  0  0  0
 17 31  2  0  0  0  0
 18 21  1  0  0  0  0
 19 25  1  0  0  0  0
 20 29  1  0  0  0  0
 22 25  1  0  0  0  0
 23 24  2  0  0  0  0
 24 26  1  0  0  0  0
  1 32  1  0  0  0  0
  2 33  1  0  0  0  0
  3 34  1  0  0  0  0
  4 35  1  0  0  0  0
  5 36  1  0  0  0  0
  6 37  1  0  0  0  0
 12 38  1  0  0  0  0
 13 39  1  0  0  0  0
 14 40  1  0  0  0  0
 15 41  1  0  0  0  0
 18 42  1  0  0  0  0
 18 43  1  0  0  0  0
 18 44  1  0  0  0  0
 19 45  1  0  0  0  0
 19 46  1  0  0  0  0
 19 47  1  0  0  0  0
 20 48  1  0  0  0  0
 20 49  1  0  0  0  0
 21 50  1  0  0  0  0
 21 51  1  0  0  0  0
 27 52  1  0  0  0  0
 28 53  1  0  0  0  0
M  END
> <clash_score>
1.4986177744906917

> <docking_score>
-6.004725456237793

> <overlap_score>
0.9796777963638306

$$$$
BENZO_90_1
  -OEChem-08232013443D

 53 56  0     0  0  0  0  0  0999 V2000
   13.6446    2.1626   23.0107 C   0  0  0  0  0  0  0  0  0  0  0  0
   12.2515    2.1792   22.9427 C   0  0  0  0  0  0  0  0  0  0  0  0
    8.9960   -2.3380   25.5320 C   0  0  0  0  0  0  0  0  0  0  0  0
    9.6730   -3.4710   23.5300 C   0  0  0  0  0  0  0  0  0  0  0  0
    9.0720   -1.1280   24.8640 C   0  0  0  0  0  0  0  0  0  0  0  0
    9.7200   -2.2600   22.8630 C   0  0  0  0  0  0  0  0  0  0  0  0
   14.2916    1.2434   23.8367 C   0  0  0  0  0  0  0  0  0  0  0  0
   12.1524    0.3577   24.5268 C   0  0  0  0  0  0  0  0  0  0  0  0
   11.5054    1.2768   23.7007 C   0  0  0  0  0  0  0  0  0  0  0  0
    9.3070   -3.5340   24.8780 C   0  0  0  0  0  0  0  0  0  0  0  0
    9.3350   -1.0880   23.5010 C   0  0  0  0  0  0  0  0  0  0  0  0
   13.5455    0.3411   24.5948 C   0  0  0  0  0  0  0  0  0  0  0  0
    6.1790    0.5730   19.9990 C   0  0  0  0  0  0  0  0  0  0  0  0
    7.3170   -0.1610   19.8550 C   0  0  0  0  0  0  0  0  0  0  0  0
    5.4210    0.9600   21.0930 C   0  0  0  0  0  0  0  0  0  0  0  0
    4.2750    1.7050   20.8490 C   0  0  0  0  0  0  0  0  0  0  0  0
    3.9160    2.0630   19.5520 C   0  0  0  0  0  0  0  0  0  0  0  0
    4.6890    1.6810   18.4640 C   0  0  0  0  0  0  0  0  0  0  0  0
    9.5334   -6.0236   25.0413 C   0  0  0  0  0  0  0  0  0  0  0  0
    9.0420    0.3700   21.5280 C   0  0  0  0  0  0  0  0  0  0  0  0
   10.6330   -7.3747   26.8774 C   0  0  0  0  0  0  0  0  0  0  0  0
   10.0059    1.2962   23.6279 C   0  0  0  0  0  0  0  0  0  0  0  0
    9.3523   -7.0865   26.1148 C   0  0  0  0  0  0  0  0  0  0  0  0
    7.6390   -0.2680   18.5410 N   0  0  0  0  0  0  0  0  0  0  0  0
    6.7580    0.3810   17.8350 N   0  0  0  0  0  0  0  0  0  0  0  0
    5.8300    0.9190   18.6970 N   0  0  0  0  0  0  0  0  0  0  0  0
    9.2546   -4.7422   25.5438 N   0  0  0  0  0  0  0  0  0  0  0  0
    8.1890   -0.7180   20.8700 N   0  0  0  0  0  0  0  0  0  0  0  0
    9.4560    0.1560   22.8130 N   0  0  0  0  0  0  0  0  0  0  0  0
    9.8806   -6.3052   23.8991 O   0  0  0  0  0  0  0  0  0  0  0  0
    9.2690    1.4140   20.9380 O   0  0  0  0  0  0  0  0  0  0  0  0
   14.3443   -0.7919   25.6146 Cl  0  0  0  0  0  0  0  0  0  0  0  0
   14.2252    2.8655   22.4203 H   0  0  0  0  0  0  0  0  0  0  0  0
   11.7558    2.8989   22.2964 H   0  0  0  0  0  0  0  0  0  0  0  0
    8.6895   -2.3529   26.5807 H   0  0  0  0  0  0  0  0  0  0  0  0
    9.9262   -4.3897   22.9916 H   0  0  0  0  0  0  0  0  0  0  0  0
    8.9224   -0.1998   25.4238 H   0  0  0  0  0  0  0  0  0  0  0  0
   10.0649   -2.2343   21.8258 H   0  0  0  0  0  0  0  0  0  0  0  0
   15.3780    1.2421   23.8799 H   0  0  0  0  0  0  0  0  0  0  0  0
   11.5662   -0.3441   25.1155 H   0  0  0  0  0  0  0  0  0  0  0  0
    5.6855    0.7074   22.1002 H   0  0  0  0  0  0  0  0  0  0  0  0
    3.6634    2.0034   21.6926 H   0  0  0  0  0  0  0  0  0  0  0  0
    3.0111    2.6563   19.3629 H   0  0  0  0  0  0  0  0  0  0  0  0
    4.4370    1.9522   17.4626 H   0  0  0  0  0  0  0  0  0  0  0  0
   11.4241   -7.7171   26.2023 H   0  0  0  0  0  0  0  0  0  0  0  0
   10.4629   -8.1531   27.6275 H   0  0  0  0  0  0  0  0  0  0  0  0
   10.9949   -6.4779   27.3911 H   0  0  0  0  0  0  0  0  0  0  0  0
    9.5698    1.2303   24.6307 H   0  0  0  0  0  0  0  0  0  0  0  0
    9.6463    2.2273   23.1774 H   0  0  0  0  0  0  0  0  0  0  0  0
    8.5795   -6.7463   26.8137 H   0  0  0  0  0  0  0  0  0  0  0  0
    8.9966   -8.0064   25.6366 H   0  0  0  0  0  0  0  0  0  0  0  0
    8.9776   -4.7057   26.5317 H   0  0  0  0  0  0  0  0  0  0  0  0
    8.2368   -1.5645   21.0930 H   0  0  0  0  0  0  0  0  0  0  0  0
  1  2  2  0  0  0  0
  1  7  1  0  0  0  0
  2  9  1  0  0  0  0
  3  5  2  0  0  0  0
  3 10  1  0  0  0  0
  4  6  1  0  0  0  0
  4 10  2  0  0  0  0
  5 11  1  0  0  0  0
  6 11  2  0  0  0  0
  7 12  2  0  0  0  0
  8  9  2  0  0  0  0
  8 12  1  0  0  0  0
  9 22  1  0  0  0  0
 10 27  1  0  0  0  0
 11 29  1  0  0  0  0
 12 32  1  0  0  0  0
 13 14  2  0  0  0  0
 13 15  1  0  0  0  0
 13 26  1  0  0  0  0
 14 24  1  0  0  0  0
 14 28  1  0  0  0  0
 15 16  2  0  0  0  0
 16 17  1  0  0  0  0
 17 18  2  0  0  0  0
 18 26  1  0  0  0  0
 19 23  1  0  0  0  0
 19 27  1  0  0  0  0
 19 30  2  0  0  0  0
 20 28  1  0  0  0  0
 20 29  1  0  0  0  0
 20 31  2  0  0  0  0
 21 23  1  0  0  0  0
 22 29  1  0  0  0  0
 24 25  2  0  0  0  0
 25 26  1  0  0  0  0
  1 33  1  0  0  0  0
  2 34  1  0  0  0  0
  3 35  1  0  0  0  0
  4 36  1  0  0  0  0
  5 37  1  0  0  0  0
  6 38  1  0  0  0  0
  7 39  1  0  0  0  0
  8 40  1  0  0  0  0
 15 41  1  0  0  0  0
 16 42  1  0  0  0  0
 17 43  1  0  0  0  0
 18 44  1  0  0  0  0
 21 45  1  0  0  0  0
 21 46  1  0  0  0  0
 21 47  1  0  0  0  0
 22 48  1  0  0  0  0
 22 49  1  0  0  0  0
 23 50  1  0  0  0  0
 23 51  1  0  0  0  0
 27 52  1  0  0  0  0
 28 53  1  0  0  0  0
M  END
> <clash_score>
2.1545938564220863

> <docking_score>
-5.24615478515625

> <overlap_score>
0.9837467670440674

$$$$
BENZO_92_1
  -OEChem-08232013443D

 55 59  0     0  0  0  0  0  0999 V2000
    8.9960   -2.3380   25.5320 C   0  0  0  0  0  0  0  0  0  0  0  0
    9.6730   -3.4710   23.5300 C   0  0  0  0  0  0  0  0  0  0  0  0
    9.0720   -1.1280   24.8640 C   0  0  0  0  0  0  0  0  0  0  0  0
    9.7200   -2.2600   22.8630 C   0  0  0  0  0  0  0  0  0  0  0  0
   12.3486    1.3935   22.5245 C   0  0  0  0  0  0  0  0  0  0  0  0
   13.6840    1.3978   22.8623 C   0  0  0  0  0  0  0  0  0  0  0  0
   12.2302    1.3009   24.8439 C   0  0  0  0  0  0  0  0  0  0  0  0
   11.5063    1.3375   23.6723 C   0  0  0  0  0  0  0  0  0  0  0  0
    9.3070   -3.5340   24.8780 C   0  0  0  0  0  0  0  0  0  0  0  0
    9.3350   -1.0880   23.5010 C   0  0  0  0  0  0  0  0  0  0  0  0
    6.1790    0.5730   19.9990 C   0  0  0  0  0  0  0  0  0  0  0  0
    7.3170   -0.1610   19.8550 C   0  0  0  0  0  0  0  0  0  0  0  0
    5.4210    0.9600   21.0930 C   0  0  0  0  0  0  0  0  0  0  0  0
    4.2750    1.7050   20.8490 C   0  0  0  0  0  0  0  0  0  0  0  0
    3.9160    2.0630   19.5520 C   0  0  0  0  0  0  0  0  0  0  0  0
    4.6890    1.6810   18.4640 C   0  0  0  0  0  0  0  0  0  0  0  0
    9.0420    0.3700   21.5280 C   0  0  0  0  0  0  0  0  0  0  0  0
    7.6075   -7.0890   25.4795 C   0  0  0  0  0  0  0  0  0  0  0  0
    7.1392   -5.7989   26.1565 C   0  0  0  0  0  0  0  0  0  0  0  0
    8.6478   -6.8051   24.3935 C   0  0  0  0  0  0  0  0  0  0  0  0
    8.3303   -4.9793   26.6524 C   0  0  0  0  0  0  0  0  0  0  0  0
    9.8033   -5.9551   24.9309 C   0  0  0  0  0  0  0  0  0  0  0  0
   10.0063    1.3195   23.6101 C   0  0  0  0  0  0  0  0  0  0  0  0
    7.6390   -0.2680   18.5410 N   0  0  0  0  0  0  0  0  0  0  0  0
    6.7580    0.3810   17.8350 N   0  0  0  0  0  0  0  0  0  0  0  0
    5.8300    0.9190   18.6970 N   0  0  0  0  0  0  0  0  0  0  0  0
    9.2562   -4.7384   25.5422 N   0  0  0  0  0  0  0  0  0  0  0  0
    8.1890   -0.7180   20.8700 N   0  0  0  0  0  0  0  0  0  0  0  0
    9.4560    0.1560   22.8130 N   0  0  0  0  0  0  0  0  0  0  0  0
    9.2690    1.4140   20.9380 O   0  0  0  0  0  0  0  0  0  0  0  0
   13.9181    1.3344   24.5574 S   0  0  0  0  0  0  0  0  0  0  0  0
    8.6905   -2.3533   26.5810 H   0  0  0  0  0  0  0  0  0  0  0  0
    9.9266   -4.3896   22.9917 H   0  0  0  0  0  0  0  0  0  0  0  0
    8.9233   -0.1992   25.4231 H   0  0  0  0  0  0  0  0  0  0  0  0
   10.0650   -2.2330   21.8256 H   0  0  0  0  0  0  0  0  0  0  0  0
   11.9970    1.4285   21.5010 H   0  0  0  0  0  0  0  0  0  0  0  0
   14.5334    1.4345   22.1949 H   0  0  0  0  0  0  0  0  0  0  0  0
   11.8527    1.2549   25.8560 H   0  0  0  0  0  0  0  0  0  0  0  0
    5.6855    0.7074   22.1002 H   0  0  0  0  0  0  0  0  0  0  0  0
    3.6634    2.0034   21.6926 H   0  0  0  0  0  0  0  0  0  0  0  0
    3.0111    2.6563   19.3629 H   0  0  0  0  0  0  0  0  0  0  0  0
    4.4370    1.9522   17.4626 H   0  0  0  0  0  0  0  0  0  0  0  0
    8.0356   -7.7671   26.2335 H   0  0  0  0  0  0  0  0  0  0  0  0
    6.7454   -7.6111   25.0398 H   0  0  0  0  0  0  0  0  0  0  0  0
    6.5539   -5.2055   25.4489 H   0  0  0  0  0  0  0  0  0  0  0  0
    6.4855   -6.0435   26.9963 H   0  0  0  0  0  0  0  0  0  0  0  0
    9.0392   -7.7512   24.0053 H   0  0  0  0  0  0  0  0  0  0  0  0
    8.1711   -6.2867   23.5535 H   0  0  0  0  0  0  0  0  0  0  0  0
    7.9625   -4.0328   27.0569 H   0  0  0  0  0  0  0  0  0  0  0  0
    8.8426   -5.5180   27.4546 H   0  0  0  0  0  0  0  0  0  0  0  0
   10.3696   -6.5240   25.6692 H   0  0  0  0  0  0  0  0  0  0  0  0
   10.4665   -5.7029   24.1030 H   0  0  0  0  0  0  0  0  0  0  0  0
    9.5785    1.2746   24.6176 H   0  0  0  0  0  0  0  0  0  0  0  0
    9.6218    2.2274   23.1337 H   0  0  0  0  0  0  0  0  0  0  0  0
    8.2565   -1.5523   21.1108 H   0  0  0  0  0  0  0  0  0  0  0  0
  1  3  2  0  0  0  0
  1  9  1  0  0  0  0
  2  4  1  0  0  0  0
  2  9  2  0  0  0  0
  3 10  1  0  0  0  0
  4 10  2  0  0  0  0
  5  6  2  0  0  0  0
  5  8  1  0  0  0  0
  6 31  1  0  0  0  0
  7  8  2  0  0  0  0
  7 31  1  0  0  0  0
  8 23  1  0  0  0  0
  9 27  1  0  0  0  0
 10 29  1  0  0  0  0
 11 12  2  0  0  0  0
 11 13  1  0  0  0  0
 11 26  1  0  0  0  0
 12 24  1  0  0  0  0
 12 28  1  0  0  0  0
 13 14  2  0  0  0  0
 14 15  1  0  0  0  0
 15 16  2  0  0  0  0
 16 26  1  0  0  0  0
 17 28  1  0  0  0  0
 17 29  1  0  0  0  0
 17 30  2  0  0  0  0
 18 19  1  0  0  0  0
 18 20  1  0  0  0  0
 19 21  1  0  0  0  0
 20 22  1  0  0  0  0
 21 27  1  0  0  0  0
 22 27  1  0  0  0  0
 23 29  1  0  0  0  0
 24 25  2  0  0  0  0
 25 26  1  0  0  0  0
  1 32  1  0  0  0  0
  2 33  1  0  0  0  0
  3 34  1  0  0  0  0
  4 35  1  0  0  0  0
  5 36  1  0  0  0  0
  6 37  1  0  0  0  0
  7 38  1  0  0  0  0
 13 39  1  0  0  0  0
 14 40  1  0  0  0  0
 15 41  1  0  0  0  0
 16 42  1  0  0  0  0
 18 43  1  0  0  0  0
 18 44  1  0  0  0  0
 19 45  1  0  0  0  0
 19 46  1  0  0  0  0
 20 47  1  0  0  0  0
 20 48  1  0  0  0  0
 21 49  1  0  0  0  0
 21 50  1  0  0  0  0
 22 51  1  0  0  0  0
 22 52  1  0  0  0  0
 23 53  1  0  0  0  0
 23 54  1  0  0  0  0
 28 55  1  0  0  0  0
M  END
> <clash_score>
0

> <docking_score>
-8.18882942199707

> <overlap_score>
0.9799782037734985

$$$$
BENZO_97_1
  -OEChem-08232013443D

 46 49  0     0  0  0  0  0  0999 V2000
   14.2917    1.2412   23.8346 C   0  0  0  0  0  0  0  0  0  0  0  0
   13.5387    0.5668   24.7956 C   0  0  0  0  0  0  0  0  0  0  0  0
   13.6516    1.9336   22.8067 C   0  0  0  0  0  0  0  0  0  0  0  0
   12.1455    0.5845   24.7287 C   0  0  0  0  0  0  0  0  0  0  0  0
   12.2585    1.9514   22.7397 C   0  0  0  0  0  0  0  0  0  0  0  0
    8.9960   -2.3380   25.5320 C   0  0  0  0  0  0  0  0  0  0  0  0
    9.6730   -3.4710   23.5300 C   0  0  0  0  0  0  0  0  0  0  0  0
    9.0720   -1.1280   24.8640 C   0  0  0  0  0  0  0  0  0  0  0  0
    9.7200   -2.2600   22.8630 C   0  0  0  0  0  0  0  0  0  0  0  0
    9.3070   -3.5340   24.8780 C   0  0  0  0  0  0  0  0  0  0  0  0
   11.5054    1.2768   23.7007 C   0  0  0  0  0  0  0  0  0  0  0  0
    9.3350   -1.0880   23.5010 C   0  0  0  0  0  0  0  0  0  0  0  0
    6.1790    0.5730   19.9990 C   0  0  0  0  0  0  0  0  0  0  0  0
    7.3170   -0.1610   19.8550 C   0  0  0  0  0  0  0  0  0  0  0  0
    5.4210    0.9600   21.0930 C   0  0  0  0  0  0  0  0  0  0  0  0
    4.2750    1.7050   20.8490 C   0  0  0  0  0  0  0  0  0  0  0  0
    3.9160    2.0630   19.5520 C   0  0  0  0  0  0  0  0  0  0  0  0
    4.6890    1.6810   18.4640 C   0  0  0  0  0  0  0  0  0  0  0  0
    9.0420    0.3700   21.5280 C   0  0  0  0  0  0  0  0  0  0  0  0
    9.2505   -4.8264   25.5904 C   0  0  0  0  0  0  0  0  0  0  0  0
   10.0059    1.2962   23.6279 C   0  0  0  0  0  0  0  0  0  0  0  0
    7.6390   -0.2680   18.5410 N   0  0  0  0  0  0  0  0  0  0  0  0
    6.7580    0.3810   17.8350 N   0  0  0  0  0  0  0  0  0  0  0  0
    5.8300    0.9190   18.6970 N   0  0  0  0  0  0  0  0  0  0  0  0
    8.1890   -0.7180   20.8700 N   0  0  0  0  0  0  0  0  0  0  0  0
    9.4560    0.1560   22.8130 N   0  0  0  0  0  0  0  0  0  0  0  0
    9.2690    1.4140   20.9380 O   0  0  0  0  0  0  0  0  0  0  0  0
   15.3764    1.2284   23.8877 H   0  0  0  0  0  0  0  0  0  0  0  0
   14.0368    0.0285   25.5967 H   0  0  0  0  0  0  0  0  0  0  0  0
   14.2376    2.4597   22.0589 H   0  0  0  0  0  0  0  0  0  0  0  0
   11.5669    0.0560   25.4818 H   0  0  0  0  0  0  0  0  0  0  0  0
   11.7684    2.4933   21.9352 H   0  0  0  0  0  0  0  0  0  0  0  0
    8.6919   -2.3557   26.5813 H   0  0  0  0  0  0  0  0  0  0  0  0
    9.9267   -4.3907   22.9939 H   0  0  0  0  0  0  0  0  0  0  0  0
    8.9217   -0.1995   25.4231 H   0  0  0  0  0  0  0  0  0  0  0  0
   10.0653   -2.2339   21.8256 H   0  0  0  0  0  0  0  0  0  0  0  0
    5.6855    0.7074   22.1002 H   0  0  0  0  0  0  0  0  0  0  0  0
    3.6634    2.0034   21.6926 H   0  0  0  0  0  0  0  0  0  0  0  0
    3.0111    2.6563   19.3629 H   0  0  0  0  0  0  0  0  0  0  0  0
    4.4370    1.9522   17.4626 H   0  0  0  0  0  0  0  0  0  0  0  0
    8.2503   -5.2678   25.5020 H   0  0  0  0  0  0  0  0  0  0  0  0
    9.9817   -5.5374   25.1845 H   0  0  0  0  0  0  0  0  0  0  0  0
    9.4841   -4.7043   26.6562 H   0  0  0  0  0  0  0  0  0  0  0  0
    9.5698    1.2303   24.6307 H   0  0  0  0  0  0  0  0  0  0  0  0
    9.6463    2.2273   23.1774 H   0  0  0  0  0  0  0  0  0  0  0  0
    8.2368   -1.5645   21.0930 H   0  0  0  0  0  0  0  0  0  0  0  0
  1  2  1  0  0  0  0
  1  3  2  0  0  0  0
  2  4  2  0  0  0  0
  3  5  1  0  0  0  0
  4 11  1  0  0  0  0
  5 11  2  0  0  0  0
  6  8  2  0  0  0  0
  6 10  1  0  0  0  0
  7  9  1  0  0  0  0
  7 10  2  0  0  0  0
  8 12  1  0  0  0  0
  9 12  2  0  0  0  0
 10 20  1  0  0  0  0
 11 21  1  0  0  0  0
 12 26  1  0  0  0  0
 13 14  2  0  0  0  0
 13 15  1  0  0  0  0
 13 24  1  0  0  0  0
 14 22  1  0  0  0  0
 14 25  1  0  0  0  0
 15 16  2  0  0  0  0
 16 17  1  0  0  0  0
 17 18  2  0  0  0  0
 18 24  1  0  0  0  0
 19 25  1  0  0  0  0
 19 26  1  0  0  0  0
 19 27  2  0  0  0  0
 21 26  1  0  0  0  0
 22 23  2  0  0  0  0
 23 24  1  0  0  0  0
  1 28  1  0  0  0  0
  2 29  1  0  0  0  0
  3 30  1  0  0  0  0
  4 31  1  0  0  0  0
  5 32  1  0  0  0  0
  6 33  1  0  0  0  0
  7 34  1  0  0  0  0
  8 35  1  0  0  0  0
  9 36  1  0  0  0  0
 15 37  1  0  0  0  0
 16 38  1  0  0  0  0
 17 39  1  0  0  0  0
 18 40  1  0  0  0  0
 20 41  1  0  0  0  0
 20 42  1  0  0  0  0
 20 43  1  0  0  0  0
 21 44  1  0  0  0  0
 21 45  1  0  0  0  0
 25 46  1  0  0  0  0
M  END
> <clash_score>
0

> <docking_score>
-8.93211555480957

> <overlap_score>
0.9389946460723877

$$$$
BENZO_96_1
  -OEChem-08232013443D

 43 46  0     0  0  0  0  0  0999 V2000
    8.9960   -2.3380   25.5320 C   0  0  0  0  0  0  0  0  0  0  0  0
    9.6730   -3.4710   23.5300 C   0  0  0  0  0  0  0  0  0  0  0  0
    9.0720   -1.1280   24.8640 C   0  0  0  0  0  0  0  0  0  0  0  0
    9.7200   -2.2600   22.8630 C   0  0  0  0  0  0  0  0  0  0  0  0
   12.3102    2.4464   23.8216 C   0  0  0  0  0  0  0  0  0  0  0  0
   13.6541    2.1474   23.8666 C   0  0  0  0  0  0  0  0  0  0  0  0
   12.2650    0.1283   23.6577 C   0  0  0  0  0  0  0  0  0  0  0  0
    9.3070   -3.5340   24.8780 C   0  0  0  0  0  0  0  0  0  0  0  0
   11.5054    1.2768   23.7007 C   0  0  0  0  0  0  0  0  0  0  0  0
    9.3350   -1.0880   23.5010 C   0  0  0  0  0  0  0  0  0  0  0  0
    6.1790    0.5730   19.9990 C   0  0  0  0  0  0  0  0  0  0  0  0
    7.3170   -0.1610   19.8550 C   0  0  0  0  0  0  0  0  0  0  0  0
    5.4210    0.9600   21.0930 C   0  0  0  0  0  0  0  0  0  0  0  0
    4.2750    1.7050   20.8490 C   0  0  0  0  0  0  0  0  0  0  0  0
    3.9160    2.0630   19.5520 C   0  0  0  0  0  0  0  0  0  0  0  0
    4.6890    1.6810   18.4640 C   0  0  0  0  0  0  0  0  0  0  0  0
    9.0420    0.3700   21.5280 C   0  0  0  0  0  0  0  0  0  0  0  0
    9.2505   -4.8264   25.5904 C   0  0  0  0  0  0  0  0  0  0  0  0
   10.0059    1.2962   23.6279 C   0  0  0  0  0  0  0  0  0  0  0  0
    7.6390   -0.2680   18.5410 N   0  0  0  0  0  0  0  0  0  0  0  0
    6.7580    0.3810   17.8350 N   0  0  0  0  0  0  0  0  0  0  0  0
    5.8300    0.9190   18.6970 N   0  0  0  0  0  0  0  0  0  0  0  0
    8.1890   -0.7180   20.8700 N   0  0  0  0  0  0  0  0  0  0  0  0
    9.4560    0.1560   22.8130 N   0  0  0  0  0  0  0  0  0  0  0  0
    9.2690    1.4140   20.9380 O   0  0  0  0  0  0  0  0  0  0  0  0
   13.9412    0.4624   23.7632 S   0  0  0  0  0  0  0  0  0  0  0  0
    8.6919   -2.3557   26.5813 H   0  0  0  0  0  0  0  0  0  0  0  0
    9.9267   -4.3907   22.9939 H   0  0  0  0  0  0  0  0  0  0  0  0
    8.9217   -0.1995   25.4231 H   0  0  0  0  0  0  0  0  0  0  0  0
   10.0653   -2.2339   21.8256 H   0  0  0  0  0  0  0  0  0  0  0  0
   11.9269    3.4577   23.8729 H   0  0  0  0  0  0  0  0  0  0  0  0
   14.4811    2.8377   23.9546 H   0  0  0  0  0  0  0  0  0  0  0  0
   11.9201   -0.8925   23.5683 H   0  0  0  0  0  0  0  0  0  0  0  0
    5.6855    0.7074   22.1002 H   0  0  0  0  0  0  0  0  0  0  0  0
    3.6634    2.0034   21.6926 H   0  0  0  0  0  0  0  0  0  0  0  0
    3.0111    2.6563   19.3629 H   0  0  0  0  0  0  0  0  0  0  0  0
    4.4370    1.9522   17.4626 H   0  0  0  0  0  0  0  0  0  0  0  0
    8.2503   -5.2678   25.5020 H   0  0  0  0  0  0  0  0  0  0  0  0
    9.9817   -5.5374   25.1845 H   0  0  0  0  0  0  0  0  0  0  0  0
    9.4841   -4.7043   26.6562 H   0  0  0  0  0  0  0  0  0  0  0  0
    9.5698    1.2303   24.6307 H   0  0  0  0  0  0  0  0  0  0  0  0
    9.6463    2.2273   23.1774 H   0  0  0  0  0  0  0  0  0  0  0  0
    8.2368   -1.5645   21.0930 H   0  0  0  0  0  0  0  0  0  0  0  0
  1  3  2  0  0  0  0
  1  8  1  0  0  0  0
  2  4  1  0  0  0  0
  2  8  2  0  0  0  0
  3 10  1  0  0  0  0
  4 10  2  0  0  0  0
  5  6  2  0  0  0  0
  5  9  1  0  0  0  0
  6 26  1  0  0  0  0
  7  9  2  0  0  0  0
  7 26  1  0  0  0  0
  8 18  1  0  0  0  0
  9 19  1  0  0  0  0
 10 24  1  0  0  0  0
 11 12  2  0  0  0  0
 11 13  1  0  0  0  0
 11 22  1  0  0  0  0
 12 20  1  0  0  0  0
 12 23  1  0  0  0  0
 13 14  2  0  0  0  0
 14 15  1  0  0  0  0
 15 16  2  0  0  0  0
 16 22  1  0  0  0  0
 17 23  1  0  0  0  0
 17 24  1  0  0  0  0
 17 25  2  0  0  0  0
 19 24  1  0  0  0  0
 20 21  2  0  0  0  0
 21 22  1  0  0  0  0
  1 27  1  0  0  0  0
  2 28  1  0  0  0  0
  3 29  1  0  0  0  0
  4 30  1  0  0  0  0
  5 31  1  0  0  0  0
  6 32  1  0  0  0  0
  7 33  1  0  0  0  0
 13 34  1  0  0  0  0
 14 35  1  0  0  0  0
 15 36  1  0  0  0  0
 16 37  1  0  0  0  0
 18 38  1  0  0  0  0
 18 39  1  0  0  0  0
 18 40  1  0  0  0  0
 19 41  1  0  0  0  0
 19 42  1  0  0  0  0
 23 43  1  0  0  0  0
M  END
> <clash_score>
0

> <docking_score>
-7.995080471038818

> <overlap_score>
0.9257150888442993

$$$$
BENZO_94_1
  -OEChem-08232013443D

 58 62  0     0  0  0  0  0  0999 V2000
   13.5726    0.4739   24.5787 C   0  0  0  0  0  0  0  0  0  0  0  0
   12.1790    0.4585   24.5212 C   0  0  0  0  0  0  0  0  0  0  0  0
    8.9960   -2.3380   25.5320 C   0  0  0  0  0  0  0  0  0  0  0  0
    9.6730   -3.4710   23.5300 C   0  0  0  0  0  0  0  0  0  0  0  0
    9.0720   -1.1280   24.8640 C   0  0  0  0  0  0  0  0  0  0  0  0
    9.7200   -2.2600   22.8630 C   0  0  0  0  0  0  0  0  0  0  0  0
   14.2935    1.3684   23.7874 C   0  0  0  0  0  0  0  0  0  0  0  0
   12.2271    2.2319   22.8810 C   0  0  0  0  0  0  0  0  0  0  0  0
   11.5063    1.3375   23.6723 C   0  0  0  0  0  0  0  0  0  0  0  0
    9.3070   -3.5340   24.8780 C   0  0  0  0  0  0  0  0  0  0  0  0
    9.3350   -1.0880   23.5010 C   0  0  0  0  0  0  0  0  0  0  0  0
   13.6207    2.2473   22.9386 C   0  0  0  0  0  0  0  0  0  0  0  0
    6.1790    0.5730   19.9990 C   0  0  0  0  0  0  0  0  0  0  0  0
    7.3170   -0.1610   19.8550 C   0  0  0  0  0  0  0  0  0  0  0  0
    5.4210    0.9600   21.0930 C   0  0  0  0  0  0  0  0  0  0  0  0
    4.2750    1.7050   20.8490 C   0  0  0  0  0  0  0  0  0  0  0  0
    3.9160    2.0630   19.5520 C   0  0  0  0  0  0  0  0  0  0  0  0
    4.6890    1.6810   18.4640 C   0  0  0  0  0  0  0  0  0  0  0  0
    9.0420    0.3700   21.5280 C   0  0  0  0  0  0  0  0  0  0  0  0
    7.3635   -6.1361   27.1888 C   0  0  0  0  0  0  0  0  0  0  0  0
    8.1961   -4.9735   27.7341 C   0  0  0  0  0  0  0  0  0  0  0  0
    7.1942   -6.0394   25.6709 C   0  0  0  0  0  0  0  0  0  0  0  0
    9.5196   -4.8490   26.9797 C   0  0  0  0  0  0  0  0  0  0  0  0
    8.5442   -5.8838   24.9639 C   0  0  0  0  0  0  0  0  0  0  0  0
   10.0063    1.3195   23.6101 C   0  0  0  0  0  0  0  0  0  0  0  0
    7.6390   -0.2680   18.5410 N   0  0  0  0  0  0  0  0  0  0  0  0
    6.7580    0.3810   17.8350 N   0  0  0  0  0  0  0  0  0  0  0  0
    5.8300    0.9190   18.6970 N   0  0  0  0  0  0  0  0  0  0  0  0
    9.2562   -4.7384   25.5422 N   0  0  0  0  0  0  0  0  0  0  0  0
    8.1890   -0.7180   20.8700 N   0  0  0  0  0  0  0  0  0  0  0  0
    9.4560    0.1560   22.8130 N   0  0  0  0  0  0  0  0  0  0  0  0
    9.2690    1.4140   20.9380 O   0  0  0  0  0  0  0  0  0  0  0  0
   14.5107    3.3498   21.9617 Cl  0  0  0  0  0  0  0  0  0  0  0  0
   14.0961   -0.2107   25.2397 H   0  0  0  0  0  0  0  0  0  0  0  0
   11.6255   -0.2418   25.1412 H   0  0  0  0  0  0  0  0  0  0  0  0
    8.6905   -2.3533   26.5810 H   0  0  0  0  0  0  0  0  0  0  0  0
    9.9266   -4.3896   22.9917 H   0  0  0  0  0  0  0  0  0  0  0  0
    8.9233   -0.1992   25.4231 H   0  0  0  0  0  0  0  0  0  0  0  0
   10.0650   -2.2330   21.8256 H   0  0  0  0  0  0  0  0  0  0  0  0
   15.3793    1.3690   23.8424 H   0  0  0  0  0  0  0  0  0  0  0  0
   11.6979    2.9155   22.2212 H   0  0  0  0  0  0  0  0  0  0  0  0
    5.6855    0.7074   22.1002 H   0  0  0  0  0  0  0  0  0  0  0  0
    3.6634    2.0034   21.6926 H   0  0  0  0  0  0  0  0  0  0  0  0
    3.0111    2.6563   19.3629 H   0  0  0  0  0  0  0  0  0  0  0  0
    4.4370    1.9522   17.4626 H   0  0  0  0  0  0  0  0  0  0  0  0
    7.8482   -7.0901   27.4469 H   0  0  0  0  0  0  0  0  0  0  0  0
    6.3760   -6.1438   27.6724 H   0  0  0  0  0  0  0  0  0  0  0  0
    7.6307   -4.0424   27.6403 H   0  0  0  0  0  0  0  0  0  0  0  0
    8.3915   -5.1310   28.7968 H   0  0  0  0  0  0  0  0  0  0  0  0
    6.6888   -6.9376   25.3010 H   0  0  0  0  0  0  0  0  0  0  0  0
    6.5515   -5.1859   25.4257 H   0  0  0  0  0  0  0  0  0  0  0  0
   10.0492   -3.9640   27.3414 H   0  0  0  0  0  0  0  0  0  0  0  0
   10.1431   -5.7254   27.1778 H   0  0  0  0  0  0  0  0  0  0  0  0
    9.1338   -6.7931   25.0868 H   0  0  0  0  0  0  0  0  0  0  0  0
    8.3656   -5.7264   23.8998 H   0  0  0  0  0  0  0  0  0  0  0  0
    9.5785    1.2746   24.6176 H   0  0  0  0  0  0  0  0  0  0  0  0
    9.6218    2.2274   23.1337 H   0  0  0  0  0  0  0  0  0  0  0  0
    8.2565   -1.5523   21.1108 H   0  0  0  0  0  0  0  0  0  0  0  0
  1  2  2  0  0  0  0
  1  7  1  0  0  0  0
  2  9  1  0  0  0  0
  3  5  2  0  0  0  0
  3 10  1  0  0  0  0
  4  6  1  0  0  0  0
  4 10  2  0  0  0  0
  5 11  1  0  0  0  0
  6 11  2  0  0  0  0
  7 12  2  0  0  0  0
  8  9  2  0  0  0  0
  8 12  1  0  0  0  0
  9 25  1  0  0  0  0
 10 29  1  0  0  0  0
 11 31  1  0  0  0  0
 12 33  1  0  0  0  0
 13 14  2  0  0  0  0
 13 15  1  0  0  0  0
 13 28  1  0  0  0  0
 14 26  1  0  0  0  0
 14 30  1  0  0  0  0
 15 16  2  0  0  0  0
 16 17  1  0  0  0  0
 17 18  2  0  0  0  0
 18 28  1  0  0  0  0
 19 30  1  0  0  0  0
 19 31  1  0  0  0  0
 19 32  2  0  0  0  0
 20 21  1  0  0  0  0
 20 22  1  0  0  0  0
 21 23  1  0  0  0  0
 22 24  1  0  0  0  0
 23 29  1  0  0  0  0
 24 29  1  0  0  0  0
 25 31  1  0  0  0  0
 26 27  2  0  0  0  0
 27 28  1  0  0  0  0
  1 34  1  0  0  0  0
  2 35  1  0  0  0  0
  3 36  1  0  0  0  0
  4 37  1  0  0  0  0
  5 38  1  0  0  0  0
  6 39  1  0  0  0  0
  7 40  1  0  0  0  0
  8 41  1  0  0  0  0
 15 42  1  0  0  0  0
 16 43  1  0  0  0  0
 17 44  1  0  0  0  0
 18 45  1  0  0  0  0
 20 46  1  0  0  0  0
 20 47  1  0  0  0  0
 21 48  1  0  0  0  0
 21 49  1  0  0  0  0
 22 50  1  0  0  0  0
 22 51  1  0  0  0  0
 23 52  1  0  0  0  0
 23 53  1  0  0  0  0
 24 54  1  0  0  0  0
 24 55  1  0  0  0  0
 25 56  1  0  0  0  0
 25 57  1  0  0  0  0
 30 58  1  0  0  0  0
M  END
> <clash_score>
0

> <docking_score>
-7.5941243171691895

> <overlap_score>
1.0056053400039673

$$$$
BENZO_95_1
  -OEChem-08232013443D

 58 62  0     0  0  0  0  0  0999 V2000
    8.9960   -2.3380   25.5320 C   0  0  0  0  0  0  0  0  0  0  0  0
    9.6730   -3.4710   23.5300 C   0  0  0  0  0  0  0  0  0  0  0  0
    9.0720   -1.1280   24.8640 C   0  0  0  0  0  0  0  0  0  0  0  0
    9.7200   -2.2600   22.8630 C   0  0  0  0  0  0  0  0  0  0  0  0
   12.3908    2.1640   22.9539 C   0  0  0  0  0  0  0  0  0  0  0  0
   12.3237    0.5511   24.4468 C   0  0  0  0  0  0  0  0  0  0  0  0
   11.5063    1.3375   23.6723 C   0  0  0  0  0  0  0  0  0  0  0  0
    9.3070   -3.5340   24.8780 C   0  0  0  0  0  0  0  0  0  0  0  0
    9.3350   -1.0880   23.5010 C   0  0  0  0  0  0  0  0  0  0  0  0
    6.1790    0.5730   19.9990 C   0  0  0  0  0  0  0  0  0  0  0  0
    7.3170   -0.1610   19.8550 C   0  0  0  0  0  0  0  0  0  0  0  0
    5.4210    0.9600   21.0930 C   0  0  0  0  0  0  0  0  0  0  0  0
    4.2750    1.7050   20.8490 C   0  0  0  0  0  0  0  0  0  0  0  0
    3.9160    2.0630   19.5520 C   0  0  0  0  0  0  0  0  0  0  0  0
    4.6890    1.6810   18.4640 C   0  0  0  0  0  0  0  0  0  0  0  0
    9.0420    0.3700   21.5280 C   0  0  0  0  0  0  0  0  0  0  0  0
    7.3635   -6.1361   27.1888 C   0  0  0  0  0  0  0  0  0  0  0  0
    8.1961   -4.9735   27.7341 C   0  0  0  0  0  0  0  0  0  0  0  0
    7.1942   -6.0394   25.6709 C   0  0  0  0  0  0  0  0  0  0  0  0
    9.5196   -4.8490   26.9797 C   0  0  0  0  0  0  0  0  0  0  0  0
    8.5442   -5.8838   24.9639 C   0  0  0  0  0  0  0  0  0  0  0  0
   14.8092    0.3979   24.7260 C   0  0  0  0  0  0  0  0  0  0  0  0
   10.0063    1.3195   23.6101 C   0  0  0  0  0  0  0  0  0  0  0  0
   13.6720    1.9251   23.2461 N   0  0  0  0  0  0  0  0  0  0  0  0
    7.6390   -0.2680   18.5410 N   0  0  0  0  0  0  0  0  0  0  0  0
    6.7580    0.3810   17.8350 N   0  0  0  0  0  0  0  0  0  0  0  0
   13.5986    0.9396   24.1568 N   0  0  0  0  0  0  0  0  0  0  0  0
    5.8300    0.9190   18.6970 N   0  0  0  0  0  0  0  0  0  0  0  0
    9.2562   -4.7384   25.5422 N   0  0  0  0  0  0  0  0  0  0  0  0
    8.1890   -0.7180   20.8700 N   0  0  0  0  0  0  0  0  0  0  0  0
    9.4560    0.1560   22.8130 N   0  0  0  0  0  0  0  0  0  0  0  0
    9.2690    1.4140   20.9380 O   0  0  0  0  0  0  0  0  0  0  0  0
    8.6905   -2.3533   26.5810 H   0  0  0  0  0  0  0  0  0  0  0  0
    9.9266   -4.3896   22.9917 H   0  0  0  0  0  0  0  0  0  0  0  0
    8.9233   -0.1992   25.4231 H   0  0  0  0  0  0  0  0  0  0  0  0
   10.0650   -2.2330   21.8256 H   0  0  0  0  0  0  0  0  0  0  0  0
   12.1576    2.9318   22.2298 H   0  0  0  0  0  0  0  0  0  0  0  0
   12.1121   -0.2315   25.1628 H   0  0  0  0  0  0  0  0  0  0  0  0
    5.6855    0.7074   22.1002 H   0  0  0  0  0  0  0  0  0  0  0  0
    3.6634    2.0034   21.6926 H   0  0  0  0  0  0  0  0  0  0  0  0
    3.0111    2.6563   19.3629 H   0  0  0  0  0  0  0  0  0  0  0  0
    4.4370    1.9522   17.4626 H   0  0  0  0  0  0  0  0  0  0  0  0
    7.8482   -7.0901   27.4469 H   0  0  0  0  0  0  0  0  0  0  0  0
    6.3760   -6.1438   27.6724 H   0  0  0  0  0  0  0  0  0  0  0  0
    7.6307   -4.0424   27.6403 H   0  0  0  0  0  0  0  0  0  0  0  0
    8.3915   -5.1310   28.7968 H   0  0  0  0  0  0  0  0  0  0  0  0
    6.6888   -6.9376   25.3010 H   0  0  0  0  0  0  0  0  0  0  0  0
    6.5515   -5.1859   25.4257 H   0  0  0  0  0  0  0  0  0  0  0  0
   10.0492   -3.9640   27.3414 H   0  0  0  0  0  0  0  0  0  0  0  0
   10.1431   -5.7254   27.1778 H   0  0  0  0  0  0  0  0  0  0  0  0
    9.1338   -6.7931   25.0868 H   0  0  0  0  0  0  0  0  0  0  0  0
    8.3656   -5.7264   23.8998 H   0  0  0  0  0  0  0  0  0  0  0  0
   15.1341   -0.4353   24.0973 H   0  0  0  0  0  0  0  0  0  0  0  0
   15.5770    1.1760   24.7565 H   0  0  0  0  0  0  0  0  0  0  0  0
   14.6073    0.0540   25.7443 H   0  0  0  0  0  0  0  0  0  0  0  0
    9.5785    1.2746   24.6176 H   0  0  0  0  0  0  0  0  0  0  0  0
    9.6218    2.2274   23.1337 H   0  0  0  0  0  0  0  0  0  0  0  0
    8.2565   -1.5523   21.1108 H   0  0  0  0  0  0  0  0  0  0  0  0
  1  3  2  0  0  0  0
  1  8  1  0  0  0  0
  2  4  1  0  0  0  0
  2  8  2  0  0  0  0
  3  9  1  0  0  0  0
  4  9  2  0  0  0  0
  5  7  1  0  0  0  0
  5 24  2  0  0  0  0
  6  7  2  0  0  0  0
  6 27  1  0  0  0  0
  7 23  1  0  0  0  0
  8 29  1  0  0  0  0
  9 31  1  0  0  0  0
 10 11  2  0  0  0  0
 10 12  1  0  0  0  0
 10 28  1  0  0  0  0
 11 25  1  0  0  0  0
 11 30  1  0  0  0  0
 12 13  2  0  0  0  0
 13 14  1  0  0  0  0
 14 15  2  0  0  0  0
 15 28  1  0  0  0  0
 16 30  1  0  0  0  0
 16 31  1  0  0  0  0
 16 32  2  0  0  0  0
 17 18  1  0  0  0  0
 17 19  1  0  0  0  0
 18 20  1  0  0  0  0
 19 21  1  0  0  0  0
 20 29  1  0  0  0  0
 21 29  1  0  0  0  0
 22 27  1  0  0  0  0
 23 31  1  0  0  0  0
 24 27  1  0  0  0  0
 25 26  2  0  0  0  0
 26 28  1  0  0  0  0
  1 33  1  0  0  0  0
  2 34  1  0  0  0  0
  3 35  1  0  0  0  0
  4 36  1  0  0  0  0
  5 37  1  0  0  0  0
  6 38  1  0  0  0  0
 12 39  1  0  0  0  0
 13 40  1  0  0  0  0
 14 41  1  0  0  0  0
 15 42  1  0  0  0  0
 17 43  1  0  0  0  0
 17 44  1  0  0  0  0
 18 45  1  0  0  0  0
 18 46  1  0  0  0  0
 19 47  1  0  0  0  0
 19 48  1  0  0  0  0
 20 49  1  0  0  0  0
 20 50  1  0  0  0  0
 21 51  1  0  0  0  0
 21 52  1  0  0  0  0
 22 53  1  0  0  0  0
 22 54  1  0  0  0  0
 22 55  1  0  0  0  0
 23 56  1  0  0  0  0
 23 57  1  0  0  0  0
 30 58  1  0  0  0  0
M  END
> <clash_score>
0

> <docking_score>
-8.46018123626709

> <overlap_score>
0.9954401850700378

$$$$
BENZO_99_1
  -OEChem-08232013443D

 46 49  0     0  0  0  0  0  0999 V2000
    8.9960   -2.3380   25.5320 C   0  0  0  0  0  0  0  0  0  0  0  0
    9.6730   -3.4710   23.5300 C   0  0  0  0  0  0  0  0  0  0  0  0
    9.0720   -1.1280   24.8640 C   0  0  0  0  0  0  0  0  0  0  0  0
    9.7200   -2.2600   22.8630 C   0  0  0  0  0  0  0  0  0  0  0  0
   12.4143    2.1041   23.0142 C   0  0  0  0  0  0  0  0  0  0  0  0
   12.2985    0.4479   24.4559 C   0  0  0  0  0  0  0  0  0  0  0  0
    9.3070   -3.5340   24.8780 C   0  0  0  0  0  0  0  0  0  0  0  0
   11.5054    1.2768   23.7007 C   0  0  0  0  0  0  0  0  0  0  0  0
    9.3350   -1.0880   23.5010 C   0  0  0  0  0  0  0  0  0  0  0  0
    6.1790    0.5730   19.9990 C   0  0  0  0  0  0  0  0  0  0  0  0
    7.3170   -0.1610   19.8550 C   0  0  0  0  0  0  0  0  0  0  0  0
    5.4210    0.9600   21.0930 C   0  0  0  0  0  0  0  0  0  0  0  0
    4.2750    1.7050   20.8490 C   0  0  0  0  0  0  0  0  0  0  0  0
    3.9160    2.0630   19.5520 C   0  0  0  0  0  0  0  0  0  0  0  0
    4.6890    1.6810   18.4640 C   0  0  0  0  0  0  0  0  0  0  0  0
    9.0420    0.3700   21.5280 C   0  0  0  0  0  0  0  0  0  0  0  0
    9.2505   -4.8264   25.5904 C   0  0  0  0  0  0  0  0  0  0  0  0
   14.7775    0.2276   24.7467 C   0  0  0  0  0  0  0  0  0  0  0  0
   10.0059    1.2962   23.6279 C   0  0  0  0  0  0  0  0  0  0  0  0
   13.6874    1.8261   23.3073 N   0  0  0  0  0  0  0  0  0  0  0  0
    7.6390   -0.2680   18.5410 N   0  0  0  0  0  0  0  0  0  0  0  0
    6.7580    0.3810   17.8350 N   0  0  0  0  0  0  0  0  0  0  0  0
   13.5842    0.8149   24.1865 N   0  0  0  0  0  0  0  0  0  0  0  0
    5.8300    0.9190   18.6970 N   0  0  0  0  0  0  0  0  0  0  0  0
    8.1890   -0.7180   20.8700 N   0  0  0  0  0  0  0  0  0  0  0  0
    9.4560    0.1560   22.8130 N   0  0  0  0  0  0  0  0  0  0  0  0
    9.2690    1.4140   20.9380 O   0  0  0  0  0  0  0  0  0  0  0  0
    8.6919   -2.3557   26.5813 H   0  0  0  0  0  0  0  0  0  0  0  0
    9.9267   -4.3907   22.9939 H   0  0  0  0  0  0  0  0  0  0  0  0
    8.9217   -0.1995   25.4231 H   0  0  0  0  0  0  0  0  0  0  0  0
   10.0653   -2.2339   21.8256 H   0  0  0  0  0  0  0  0  0  0  0  0
   12.2044    2.8991   22.3127 H   0  0  0  0  0  0  0  0  0  0  0  0
   12.0634   -0.3512   25.1459 H   0  0  0  0  0  0  0  0  0  0  0  0
    5.6855    0.7074   22.1002 H   0  0  0  0  0  0  0  0  0  0  0  0
    3.6634    2.0034   21.6926 H   0  0  0  0  0  0  0  0  0  0  0  0
    3.0111    2.6563   19.3629 H   0  0  0  0  0  0  0  0  0  0  0  0
    4.4370    1.9522   17.4626 H   0  0  0  0  0  0  0  0  0  0  0  0
    8.2503   -5.2678   25.5020 H   0  0  0  0  0  0  0  0  0  0  0  0
    9.9817   -5.5374   25.1845 H   0  0  0  0  0  0  0  0  0  0  0  0
    9.4841   -4.7043   26.6562 H   0  0  0  0  0  0  0  0  0  0  0  0
   15.0876   -0.5933   24.0947 H   0  0  0  0  0  0  0  0  0  0  0  0
   15.5631    0.9860   24.8065 H   0  0  0  0  0  0  0  0  0  0  0  0
   14.5602   -0.1428   25.7525 H   0  0  0  0  0  0  0  0  0  0  0  0
    9.5698    1.2303   24.6307 H   0  0  0  0  0  0  0  0  0  0  0  0
    9.6463    2.2273   23.1774 H   0  0  0  0  0  0  0  0  0  0  0  0
    8.2368   -1.5645   21.0930 H   0  0  0  0  0  0  0  0  0  0  0  0
  1  3  2  0  0  0  0
  1  7  1  0  0  0  0
  2  4  1  0  0  0  0
  2  7  2  0  0  0  0
  3  9  1  0  0  0  0
  4  9  2  0  0  0  0
  5  8  1  0  0  0  0
  5 20  2  0  0  0  0
  6  8  2  0  0  0  0
  6 23  1  0  0  0  0
  7 17  1  0  0  0  0
  8 19  1  0  0  0  0
  9 26  1  0  0  0  0
 10 11  2  0  0  0  0
 10 12  1  0  0  0  0
 10 24  1  0  0  0  0
 11 21  1  0  0  0  0
 11 25  1  0  0  0  0
 12 13  2  0  0  0  0
 13 14  1  0  0  0  0
 14 15  2  0  0  0  0
 15 24  1  0  0  0  0
 16 25  1  0  0  0  0
 16 26  1  0  0  0  0
 16 27  2  0  0  0  0
 18 23  1  0  0  0  0
 19 26  1  0  0  0  0
 20 23  1  0  0  0  0
 21 22  2  0  0  0  0
 22 24  1  0  0  0  0
  1 28  1  0  0  0  0
  2 29  1  0  0  0  0
  3 30  1  0  0  0  0
  4 31  1  0  0  0  0
  5 32  1  0  0  0  0
  6 33  1  0  0  0  0
 12 34  1  0  0  0  0
 13 35  1  0  0  0  0
 14 36  1  0  0  0  0
 15 37  1  0  0  0  0
 17 38  1  0  0  0  0
 17 39  1  0  0  0  0
 17 40  1  0  0  0  0
 18 41  1  0  0  0  0
 18 42  1  0  0  0  0
 18 43  1  0  0  0  0
 19 44  1  0  0  0  0
 19 45  1  0  0  0  0
 25 46  1  0  0  0  0
M  END
> <clash_score>
0

> <docking_score>
-8.53982925415039

> <overlap_score>
0.9389066696166992

$$$$
BENZO_98_1
  -OEChem-08232013443D

 46 49  0     0  0  0  0  0  0999 V2000
   13.6446    2.1626   23.0107 C   0  0  0  0  0  0  0  0  0  0  0  0
   12.2515    2.1792   22.9427 C   0  0  0  0  0  0  0  0  0  0  0  0
    8.9960   -2.3380   25.5320 C   0  0  0  0  0  0  0  0  0  0  0  0
    9.6730   -3.4710   23.5300 C   0  0  0  0  0  0  0  0  0  0  0  0
    9.0720   -1.1280   24.8640 C   0  0  0  0  0  0  0  0  0  0  0  0
    9.7200   -2.2600   22.8630 C   0  0  0  0  0  0  0  0  0  0  0  0
   14.2916    1.2434   23.8367 C   0  0  0  0  0  0  0  0  0  0  0  0
   12.1524    0.3577   24.5268 C   0  0  0  0  0  0  0  0  0  0  0  0
    9.3070   -3.5340   24.8780 C   0  0  0  0  0  0  0  0  0  0  0  0
   11.5054    1.2768   23.7007 C   0  0  0  0  0  0  0  0  0  0  0  0
    9.3350   -1.0880   23.5010 C   0  0  0  0  0  0  0  0  0  0  0  0
   13.5455    0.3411   24.5948 C   0  0  0  0  0  0  0  0  0  0  0  0
    6.1790    0.5730   19.9990 C   0  0  0  0  0  0  0  0  0  0  0  0
    7.3170   -0.1610   19.8550 C   0  0  0  0  0  0  0  0  0  0  0  0
    5.4210    0.9600   21.0930 C   0  0  0  0  0  0  0  0  0  0  0  0
    4.2750    1.7050   20.8490 C   0  0  0  0  0  0  0  0  0  0  0  0
    3.9160    2.0630   19.5520 C   0  0  0  0  0  0  0  0  0  0  0  0
    4.6890    1.6810   18.4640 C   0  0  0  0  0  0  0  0  0  0  0  0
    9.0420    0.3700   21.5280 C   0  0  0  0  0  0  0  0  0  0  0  0
    9.2505   -4.8264   25.5904 C   0  0  0  0  0  0  0  0  0  0  0  0
   10.0059    1.2962   23.6279 C   0  0  0  0  0  0  0  0  0  0  0  0
    7.6390   -0.2680   18.5410 N   0  0  0  0  0  0  0  0  0  0  0  0
    6.7580    0.3810   17.8350 N   0  0  0  0  0  0  0  0  0  0  0  0
    5.8300    0.9190   18.6970 N   0  0  0  0  0  0  0  0  0  0  0  0
    8.1890   -0.7180   20.8700 N   0  0  0  0  0  0  0  0  0  0  0  0
    9.4560    0.1560   22.8130 N   0  0  0  0  0  0  0  0  0  0  0  0
    9.2690    1.4140   20.9380 O   0  0  0  0  0  0  0  0  0  0  0  0
   14.3443   -0.7919   25.6146 Cl  0  0  0  0  0  0  0  0  0  0  0  0
   14.2252    2.8655   22.4203 H   0  0  0  0  0  0  0  0  0  0  0  0
   11.7558    2.8989   22.2964 H   0  0  0  0  0  0  0  0  0  0  0  0
    8.6919   -2.3557   26.5813 H   0  0  0  0  0  0  0  0  0  0  0  0
    9.9267   -4.3907   22.9939 H   0  0  0  0  0  0  0  0  0  0  0  0
    8.9217   -0.1995   25.4231 H   0  0  0  0  0  0  0  0  0  0  0  0
   10.0653   -2.2339   21.8256 H   0  0  0  0  0  0  0  0  0  0  0  0
   15.3780    1.2421   23.8799 H   0  0  0  0  0  0  0  0  0  0  0  0
   11.5662   -0.3441   25.1155 H   0  0  0  0  0  0  0  0  0  0  0  0
    5.6855    0.7074   22.1002 H   0  0  0  0  0  0  0  0  0  0  0  0
    3.6634    2.0034   21.6926 H   0  0  0  0  0  0  0  0  0  0  0  0
    3.0111    2.6563   19.3629 H   0  0  0  0  0  0  0  0  0  0  0  0
    4.4370    1.9522   17.4626 H   0  0  0  0  0  0  0  0  0  0  0  0
    8.2503   -5.2678   25.5020 H   0  0  0  0  0  0  0  0  0  0  0  0
    9.9817   -5.5374   25.1845 H   0  0  0  0  0  0  0  0  0  0  0  0
    9.4841   -4.7043   26.6562 H   0  0  0  0  0  0  0  0  0  0  0  0
    9.5698    1.2303   24.6307 H   0  0  0  0  0  0  0  0  0  0  0  0
    9.6463    2.2273   23.1774 H   0  0  0  0  0  0  0  0  0  0  0  0
    8.2368   -1.5645   21.0930 H   0  0  0  0  0  0  0  0  0  0  0  0
  1  2  2  0  0  0  0
  1  7  1  0  0  0  0
  2 10  1  0  0  0  0
  3  5  2  0  0  0  0
  3  9  1  0  0  0  0
  4  6  1  0  0  0  0
  4  9  2  0  0  0  0
  5 11  1  0  0  0  0
  6 11  2  0  0  0  0
  7 12  2  0  0  0  0
  8 10  2  0  0  0  0
  8 12  1  0  0  0  0
  9 20  1  0  0  0  0
 10 21  1  0  0  0  0
 11 26  1  0  0  0  0
 12 28  1  0  0  0  0
 13 14  2  0  0  0  0
 13 15  1  0  0  0  0
 13 24  1  0  0  0  0
 14 22  1  0  0  0  0
 14 25  1  0  0  0  0
 15 16  2  0  0  0  0
 16 17  1  0  0  0  0
 17 18  2  0  0  0  0
 18 24  1  0  0  0  0
 19 25  1  0  0  0  0
 19 26  1  0  0  0  0
 19 27  2  0  0  0  0
 21 26  1  0  0  0  0
 22 23  2  0  0  0  0
 23 24  1  0  0  0  0
  1 29  1  0  0  0  0
  2 30  1  0  0  0  0
  3 31  1  0  0  0  0
  4 32  1  0  0  0  0
  5 33  1  0  0  0  0
  6 34  1  0  0  0  0
  7 35  1  0  0  0  0
  8 36  1  0  0  0  0
 15 37  1  0  0  0  0
 16 38  1  0  0  0  0
 17 39  1  0  0  0  0
 18 40  1  0  0  0  0
 20 41  1  0  0  0  0
 20 42  1  0  0  0  0
 20 43  1  0  0  0  0
 21 44  1  0  0  0  0
 21 45  1  0  0  0  0
 25 46  1  0  0  0  0
M  END
> <clash_score>
0.6559760819313948

> <docking_score>
-7.781260013580322

> <overlap_score>
0.9430467486381531

$$$$
BENZO_101_1
  -OEChem-08232013443D

 47 50  0     0  0  0  0  0  0999 V2000
   14.2917    1.2412   23.8346 C   0  0  0  0  0  0  0  0  0  0  0  0
   13.5387    0.5668   24.7956 C   0  0  0  0  0  0  0  0  0  0  0  0
   13.6516    1.9336   22.8067 C   0  0  0  0  0  0  0  0  0  0  0  0
   12.1455    0.5845   24.7287 C   0  0  0  0  0  0  0  0  0  0  0  0
   12.2585    1.9514   22.7397 C   0  0  0  0  0  0  0  0  0  0  0  0
    9.0720   -1.1280   24.8640 C   0  0  0  0  0  0  0  0  0  0  0  0
    9.7200   -2.2600   22.8630 C   0  0  0  0  0  0  0  0  0  0  0  0
    8.9960   -2.3380   25.5320 C   0  0  0  0  0  0  0  0  0  0  0  0
    9.6730   -3.4710   23.5300 C   0  0  0  0  0  0  0  0  0  0  0  0
   11.5054    1.2768   23.7007 C   0  0  0  0  0  0  0  0  0  0  0  0
    9.3350   -1.0880   23.5010 C   0  0  0  0  0  0  0  0  0  0  0  0
    9.3070   -3.5340   24.8780 C   0  0  0  0  0  0  0  0  0  0  0  0
    6.1790    0.5730   19.9990 C   0  0  0  0  0  0  0  0  0  0  0  0
    7.3170   -0.1610   19.8550 C   0  0  0  0  0  0  0  0  0  0  0  0
    5.4210    0.9600   21.0930 C   0  0  0  0  0  0  0  0  0  0  0  0
    4.2750    1.7050   20.8490 C   0  0  0  0  0  0  0  0  0  0  0  0
    3.9160    2.0630   19.5520 C   0  0  0  0  0  0  0  0  0  0  0  0
    4.6890    1.6810   18.4640 C   0  0  0  0  0  0  0  0  0  0  0  0
    9.0420    0.3700   21.5280 C   0  0  0  0  0  0  0  0  0  0  0  0
    9.5894   -5.8809   24.7798 C   0  0  0  0  0  0  0  0  0  0  0  0
   10.0059    1.2962   23.6279 C   0  0  0  0  0  0  0  0  0  0  0  0
    7.6390   -0.2680   18.5410 N   0  0  0  0  0  0  0  0  0  0  0  0
    6.7580    0.3810   17.8350 N   0  0  0  0  0  0  0  0  0  0  0  0
    5.8300    0.9190   18.6970 N   0  0  0  0  0  0  0  0  0  0  0  0
    8.1890   -0.7180   20.8700 N   0  0  0  0  0  0  0  0  0  0  0  0
    9.4560    0.1560   22.8130 N   0  0  0  0  0  0  0  0  0  0  0  0
    9.2690    1.4140   20.9380 O   0  0  0  0  0  0  0  0  0  0  0  0
    9.2555   -4.7124   25.5274 O   0  0  0  0  0  0  0  0  0  0  0  0
   15.3764    1.2284   23.8877 H   0  0  0  0  0  0  0  0  0  0  0  0
   14.0368    0.0285   25.5967 H   0  0  0  0  0  0  0  0  0  0  0  0
   14.2376    2.4597   22.0589 H   0  0  0  0  0  0  0  0  0  0  0  0
   11.5669    0.0560   25.4818 H   0  0  0  0  0  0  0  0  0  0  0  0
   11.7684    2.4933   21.9352 H   0  0  0  0  0  0  0  0  0  0  0  0
    8.9221   -0.1995   25.4231 H   0  0  0  0  0  0  0  0  0  0  0  0
   10.0642   -2.2347   21.8253 H   0  0  0  0  0  0  0  0  0  0  0  0
    8.6902   -2.3588   26.5805 H   0  0  0  0  0  0  0  0  0  0  0  0
    9.9254   -4.3921   22.9961 H   0  0  0  0  0  0  0  0  0  0  0  0
    5.6855    0.7074   22.1002 H   0  0  0  0  0  0  0  0  0  0  0  0
    3.6634    2.0034   21.6926 H   0  0  0  0  0  0  0  0  0  0  0  0
    3.0111    2.6563   19.3629 H   0  0  0  0  0  0  0  0  0  0  0  0
    4.4370    1.9522   17.4626 H   0  0  0  0  0  0  0  0  0  0  0  0
    9.5074   -6.7611   25.4222 H   0  0  0  0  0  0  0  0  0  0  0  0
   10.6088   -5.7902   24.3963 H   0  0  0  0  0  0  0  0  0  0  0  0
    8.8944   -5.9778   23.9424 H   0  0  0  0  0  0  0  0  0  0  0  0
    9.5698    1.2303   24.6307 H   0  0  0  0  0  0  0  0  0  0  0  0
    9.6463    2.2273   23.1774 H   0  0  0  0  0  0  0  0  0  0  0  0
    8.2368   -1.5645   21.0930 H   0  0  0  0  0  0  0  0  0  0  0  0
  1  2  1  0  0  0  0
  1  3  2  0  0  0  0
  2  4  2  0  0  0  0
  3  5  1  0  0  0  0
  4 10  1  0  0  0  0
  5 10  2  0  0  0  0
  6  8  2  0  0  0  0
  6 11  1  0  0  0  0
  7  9  1  0  0  0  0
  7 11  2  0  0  0  0
  8 12  1  0  0  0  0
  9 12  2  0  0  0  0
 10 21  1  0  0  0  0
 11 26  1  0  0  0  0
 12 28  1  0  0  0  0
 13 14  2  0  0  0  0
 13 15  1  0  0  0  0
 13 24  1  0  0  0  0
 14 22  1  0  0  0  0
 14 25  1  0  0  0  0
 15 16  2  0  0  0  0
 16 17  1  0  0  0  0
 17 18  2  0  0  0  0
 18 24  1  0  0  0  0
 19 25  1  0  0  0  0
 19 26  1  0  0  0  0
 19 27  2  0  0  0  0
 20 28  1  0  0  0  0
 21 26  1  0  0  0  0
 22 23  2  0  0  0  0
 23 24  1  0  0  0  0
  1 29  1  0  0  0  0
  2 30  1  0  0  0  0
  3 31  1  0  0  0  0
  4 32  1  0  0  0  0
  5 33  1  0  0  0  0
  6 34  1  0  0  0  0
  7 35  1  0  0  0  0
  8 36  1  0  0  0  0
  9 37  1  0  0  0  0
 15 38  1  0  0  0  0
 16 39  1  0  0  0  0
 17 40  1  0  0  0  0
 18 41  1  0  0  0  0
 20 42  1  0  0  0  0
 20 43  1  0  0  0  0
 20 44  1  0  0  0  0
 21 45  1  0  0  0  0
 21 46  1  0  0  0  0
 25 47  1  0  0  0  0
M  END
> <clash_score>
0

> <docking_score>
-8.63823127746582

> <overlap_score>
0.9637998342514038

$$$$
BENZO_100_1
  -OEChem-08232013443D

 44 47  0     0  0  0  0  0  0999 V2000
    9.0720   -1.1280   24.8640 C   0  0  0  0  0  0  0  0  0  0  0  0
    9.7200   -2.2600   22.8630 C   0  0  0  0  0  0  0  0  0  0  0  0
    8.9960   -2.3380   25.5320 C   0  0  0  0  0  0  0  0  0  0  0  0
    9.6730   -3.4710   23.5300 C   0  0  0  0  0  0  0  0  0  0  0  0
   12.3102    2.4464   23.8216 C   0  0  0  0  0  0  0  0  0  0  0  0
   13.6541    2.1474   23.8666 C   0  0  0  0  0  0  0  0  0  0  0  0
   12.2650    0.1283   23.6577 C   0  0  0  0  0  0  0  0  0  0  0  0
   11.5054    1.2768   23.7007 C   0  0  0  0  0  0  0  0  0  0  0  0
    9.3350   -1.0880   23.5010 C   0  0  0  0  0  0  0  0  0  0  0  0
    9.3070   -3.5340   24.8780 C   0  0  0  0  0  0  0  0  0  0  0  0
    6.1790    0.5730   19.9990 C   0  0  0  0  0  0  0  0  0  0  0  0
    7.3170   -0.1610   19.8550 C   0  0  0  0  0  0  0  0  0  0  0  0
    5.4210    0.9600   21.0930 C   0  0  0  0  0  0  0  0  0  0  0  0
    4.2750    1.7050   20.8490 C   0  0  0  0  0  0  0  0  0  0  0  0
    3.9160    2.0630   19.5520 C   0  0  0  0  0  0  0  0  0  0  0  0
    4.6890    1.6810   18.4640 C   0  0  0  0  0  0  0  0  0  0  0  0
    9.0420    0.3700   21.5280 C   0  0  0  0  0  0  0  0  0  0  0  0
    8.8720   -4.6805   26.9013 C   0  0  0  0  0  0  0  0  0  0  0  0
   10.0059    1.2962   23.6279 C   0  0  0  0  0  0  0  0  0  0  0  0
    7.6390   -0.2680   18.5410 N   0  0  0  0  0  0  0  0  0  0  0  0
    6.7580    0.3810   17.8350 N   0  0  0  0  0  0  0  0  0  0  0  0
    5.8300    0.9190   18.6970 N   0  0  0  0  0  0  0  0  0  0  0  0
    8.1890   -0.7180   20.8700 N   0  0  0  0  0  0  0  0  0  0  0  0
    9.4560    0.1560   22.8130 N   0  0  0  0  0  0  0  0  0  0  0  0
    9.2690    1.4140   20.9380 O   0  0  0  0  0  0  0  0  0  0  0  0
    9.2555   -4.7124   25.5274 O   0  0  0  0  0  0  0  0  0  0  0  0
   13.9412    0.4624   23.7632 S   0  0  0  0  0  0  0  0  0  0  0  0
    8.9221   -0.1995   25.4231 H   0  0  0  0  0  0  0  0  0  0  0  0
   10.0642   -2.2347   21.8253 H   0  0  0  0  0  0  0  0  0  0  0  0
    8.6902   -2.3588   26.5805 H   0  0  0  0  0  0  0  0  0  0  0  0
    9.9254   -4.3921   22.9961 H   0  0  0  0  0  0  0  0  0  0  0  0
   11.9269    3.4577   23.8729 H   0  0  0  0  0  0  0  0  0  0  0  0
   14.4811    2.8377   23.9546 H   0  0  0  0  0  0  0  0  0  0  0  0
   11.9201   -0.8925   23.5683 H   0  0  0  0  0  0  0  0  0  0  0  0
    5.6855    0.7074   22.1002 H   0  0  0  0  0  0  0  0  0  0  0  0
    3.6634    2.0034   21.6926 H   0  0  0  0  0  0  0  0  0  0  0  0
    3.0111    2.6563   19.3629 H   0  0  0  0  0  0  0  0  0  0  0  0
    4.4370    1.9522   17.4626 H   0  0  0  0  0  0  0  0  0  0  0  0
    8.8711   -5.6964   27.3038 H   0  0  0  0  0  0  0  0  0  0  0  0
    7.8758   -4.2402   26.9923 H   0  0  0  0  0  0  0  0  0  0  0  0
    9.5894   -4.0716   27.4566 H   0  0  0  0  0  0  0  0  0  0  0  0
    9.5698    1.2303   24.6307 H   0  0  0  0  0  0  0  0  0  0  0  0
    9.6463    2.2273   23.1774 H   0  0  0  0  0  0  0  0  0  0  0  0
    8.2368   -1.5645   21.0930 H   0  0  0  0  0  0  0  0  0  0  0  0
  1  3  2  0  0  0  0
  1  9  1  0  0  0  0
  2  4  1  0  0  0  0
  2  9  2  0  0  0  0
  3 10  1  0  0  0  0
  4 10  2  0  0  0  0
  5  6  2  0  0  0  0
  5  8  1  0  0  0  0
  6 27  1  0  0  0  0
  7  8  2  0  0  0  0
  7 27  1  0  0  0  0
  8 19  1  0  0  0  0
  9 24  1  0  0  0  0
 10 26  1  0  0  0  0
 11 12  2  0  0  0  0
 11 13  1  0  0  0  0
 11 22  1  0  0  0  0
 12 20  1  0  0  0  0
 12 23  1  0  0  0  0
 13 14  2  0  0  0  0
 14 15  1  0  0  0  0
 15 16  2  0  0  0  0
 16 22  1  0  0  0  0
 17 23  1  0  0  0  0
 17 24  1  0  0  0  0
 17 25  2  0  0  0  0
 18 26  1  0  0  0  0
 19 24  1  0  0  0  0
 20 21  2  0  0  0  0
 21 22  1  0  0  0  0
  1 28  1  0  0  0  0
  2 29  1  0  0  0  0
  3 30  1  0  0  0  0
  4 31  1  0  0  0  0
  5 32  1  0  0  0  0
  6 33  1  0  0  0  0
  7 34  1  0  0  0  0
 13 35  1  0  0  0  0
 14 36  1  0  0  0  0
 15 37  1  0  0  0  0
 16 38  1  0  0  0  0
 18 39  1  0  0  0  0
 18 40  1  0  0  0  0
 18 41  1  0  0  0  0
 19 42  1  0  0  0  0
 19 43  1  0  0  0  0
 23 44  1  0  0  0  0
M  END
> <clash_score>
0

> <docking_score>
-7.731382846832275

> <overlap_score>
0.9481504559516907

$$$$
BENZO_103_1
  -OEChem-08232013443D

 47 50  0     0  0  0  0  0  0999 V2000
    9.0720   -1.1280   24.8640 C   0  0  0  0  0  0  0  0  0  0  0  0
    9.7200   -2.2600   22.8630 C   0  0  0  0  0  0  0  0  0  0  0  0
    8.9960   -2.3380   25.5320 C   0  0  0  0  0  0  0  0  0  0  0  0
    9.6730   -3.4710   23.5300 C   0  0  0  0  0  0  0  0  0  0  0  0
   12.4143    2.1041   23.0142 C   0  0  0  0  0  0  0  0  0  0  0  0
   12.2985    0.4479   24.4559 C   0  0  0  0  0  0  0  0  0  0  0  0
   11.5054    1.2768   23.7007 C   0  0  0  0  0  0  0  0  0  0  0  0
    9.3350   -1.0880   23.5010 C   0  0  0  0  0  0  0  0  0  0  0  0
    9.3070   -3.5340   24.8780 C   0  0  0  0  0  0  0  0  0  0  0  0
    6.1790    0.5730   19.9990 C   0  0  0  0  0  0  0  0  0  0  0  0
    7.3170   -0.1610   19.8550 C   0  0  0  0  0  0  0  0  0  0  0  0
    5.4210    0.9600   21.0930 C   0  0  0  0  0  0  0  0  0  0  0  0
    4.2750    1.7050   20.8490 C   0  0  0  0  0  0  0  0  0  0  0  0
    3.9160    2.0630   19.5520 C   0  0  0  0  0  0  0  0  0  0  0  0
    4.6890    1.6810   18.4640 C   0  0  0  0  0  0  0  0  0  0  0  0
    9.0420    0.3700   21.5280 C   0  0  0  0  0  0  0  0  0  0  0  0
   14.7775    0.2276   24.7467 C   0  0  0  0  0  0  0  0  0  0  0  0
    8.8720   -4.6805   26.9013 C   0  0  0  0  0  0  0  0  0  0  0  0
   10.0059    1.2962   23.6279 C   0  0  0  0  0  0  0  0  0  0  0  0
   13.6874    1.8261   23.3073 N   0  0  0  0  0  0  0  0  0  0  0  0
    7.6390   -0.2680   18.5410 N   0  0  0  0  0  0  0  0  0  0  0  0
    6.7580    0.3810   17.8350 N   0  0  0  0  0  0  0  0  0  0  0  0
   13.5842    0.8149   24.1865 N   0  0  0  0  0  0  0  0  0  0  0  0
    5.8300    0.9190   18.6970 N   0  0  0  0  0  0  0  0  0  0  0  0
    8.1890   -0.7180   20.8700 N   0  0  0  0  0  0  0  0  0  0  0  0
    9.4560    0.1560   22.8130 N   0  0  0  0  0  0  0  0  0  0  0  0
    9.2690    1.4140   20.9380 O   0  0  0  0  0  0  0  0  0  0  0  0
    9.2555   -4.7124   25.5274 O   0  0  0  0  0  0  0  0  0  0  0  0
    8.9221   -0.1995   25.4231 H   0  0  0  0  0  0  0  0  0  0  0  0
   10.0642   -2.2347   21.8253 H   0  0  0  0  0  0  0  0  0  0  0  0
    8.6902   -2.3588   26.5805 H   0  0  0  0  0  0  0  0  0  0  0  0
    9.9254   -4.3921   22.9961 H   0  0  0  0  0  0  0  0  0  0  0  0
   12.2044    2.8991   22.3127 H   0  0  0  0  0  0  0  0  0  0  0  0
   12.0634   -0.3512   25.1459 H   0  0  0  0  0  0  0  0  0  0  0  0
    5.6855    0.7074   22.1002 H   0  0  0  0  0  0  0  0  0  0  0  0
    3.6634    2.0034   21.6926 H   0  0  0  0  0  0  0  0  0  0  0  0
    3.0111    2.6563   19.3629 H   0  0  0  0  0  0  0  0  0  0  0  0
    4.4370    1.9522   17.4626 H   0  0  0  0  0  0  0  0  0  0  0  0
   15.0876   -0.5933   24.0947 H   0  0  0  0  0  0  0  0  0  0  0  0
   15.5631    0.9860   24.8065 H   0  0  0  0  0  0  0  0  0  0  0  0
   14.5602   -0.1428   25.7525 H   0  0  0  0  0  0  0  0  0  0  0  0
    8.8711   -5.6964   27.3038 H   0  0  0  0  0  0  0  0  0  0  0  0
    7.8758   -4.2402   26.9923 H   0  0  0  0  0  0  0  0  0  0  0  0
    9.5894   -4.0716   27.4566 H   0  0  0  0  0  0  0  0  0  0  0  0
    9.5698    1.2303   24.6307 H   0  0  0  0  0  0  0  0  0  0  0  0
    9.6463    2.2273   23.1774 H   0  0  0  0  0  0  0  0  0  0  0  0
    8.2368   -1.5645   21.0930 H   0  0  0  0  0  0  0  0  0  0  0  0
  1  3  2  0  0  0  0
  1  8  1  0  0  0  0
  2  4  1  0  0  0  0
  2  8  2  0  0  0  0
  3  9  1  0  0  0  0
  4  9  2  0  0  0  0
  5  7  1  0  0  0  0
  5 20  2  0  0  0  0
  6  7  2  0  0  0  0
  6 23  1  0  0  0  0
  7 19  1  0  0  0  0
  8 26  1  0  0  0  0
  9 28  1  0  0  0  0
 10 11  2  0  0  0  0
 10 12  1  0  0  0  0
 10 24  1  0  0  0  0
 11 21  1  0  0  0  0
 11 25  1  0  0  0  0
 12 13  2  0  0  0  0
 13 14  1  0  0  0  0
 14 15  2  0  0  0  0
 15 24  1  0  0  0  0
 16 25  1  0  0  0  0
 16 26  1  0  0  0  0
 16 27  2  0  0  0  0
 17 23  1  0  0  0  0
 18 28  1  0  0  0  0
 19 26  1  0  0  0  0
 20 23  1  0  0  0  0
 21 22  2  0  0  0  0
 22 24  1  0  0  0  0
  1 29  1  0  0  0  0
  2 30  1  0  0  0  0
  3 31  1  0  0  0  0
  4 32  1  0  0  0  0
  5 33  1  0  0  0  0
  6 34  1  0  0  0  0
 12 35  1  0  0  0  0
 13 36  1  0  0  0  0
 14 37  1  0  0  0  0
 15 38  1  0  0  0  0
 17 39  1  0  0  0  0
 17 40  1  0  0  0  0
 17 41  1  0  0  0  0
 18 42  1  0  0  0  0
 18 43  1  0  0  0  0
 18 44  1  0  0  0  0
 19 45  1  0  0  0  0
 19 46  1  0  0  0  0
 25 47  1  0  0  0  0
M  END
> <clash_score>
0

> <docking_score>
-8.276129722595215

> <overlap_score>
0.9612591862678528

$$$$
BENZO_102_1
  -OEChem-08232013443D

 47 50  0     0  0  0  0  0  0999 V2000
   13.6446    2.1626   23.0107 C   0  0  0  0  0  0  0  0  0  0  0  0
   12.2515    2.1792   22.9427 C   0  0  0  0  0  0  0  0  0  0  0  0
    9.0720   -1.1280   24.8640 C   0  0  0  0  0  0  0  0  0  0  0  0
    9.7200   -2.2600   22.8630 C   0  0  0  0  0  0  0  0  0  0  0  0
    8.9960   -2.3380   25.5320 C   0  0  0  0  0  0  0  0  0  0  0  0
    9.6730   -3.4710   23.5300 C   0  0  0  0  0  0  0  0  0  0  0  0
   14.2916    1.2434   23.8367 C   0  0  0  0  0  0  0  0  0  0  0  0
   12.1524    0.3577   24.5268 C   0  0  0  0  0  0  0  0  0  0  0  0
   11.5054    1.2768   23.7007 C   0  0  0  0  0  0  0  0  0  0  0  0
    9.3350   -1.0880   23.5010 C   0  0  0  0  0  0  0  0  0  0  0  0
    9.3070   -3.5340   24.8780 C   0  0  0  0  0  0  0  0  0  0  0  0
   13.5455    0.3411   24.5948 C   0  0  0  0  0  0  0  0  0  0  0  0
    6.1790    0.5730   19.9990 C   0  0  0  0  0  0  0  0  0  0  0  0
    7.3170   -0.1610   19.8550 C   0  0  0  0  0  0  0  0  0  0  0  0
    5.4210    0.9600   21.0930 C   0  0  0  0  0  0  0  0  0  0  0  0
    4.2750    1.7050   20.8490 C   0  0  0  0  0  0  0  0  0  0  0  0
    3.9160    2.0630   19.5520 C   0  0  0  0  0  0  0  0  0  0  0  0
    4.6890    1.6810   18.4640 C   0  0  0  0  0  0  0  0  0  0  0  0
    9.0420    0.3700   21.5280 C   0  0  0  0  0  0  0  0  0  0  0  0
    8.8720   -4.6805   26.9013 C   0  0  0  0  0  0  0  0  0  0  0  0
   10.0059    1.2962   23.6279 C   0  0  0  0  0  0  0  0  0  0  0  0
    7.6390   -0.2680   18.5410 N   0  0  0  0  0  0  0  0  0  0  0  0
    6.7580    0.3810   17.8350 N   0  0  0  0  0  0  0  0  0  0  0  0
    5.8300    0.9190   18.6970 N   0  0  0  0  0  0  0  0  0  0  0  0
    8.1890   -0.7180   20.8700 N   0  0  0  0  0  0  0  0  0  0  0  0
    9.4560    0.1560   22.8130 N   0  0  0  0  0  0  0  0  0  0  0  0
    9.2690    1.4140   20.9380 O   0  0  0  0  0  0  0  0  0  0  0  0
    9.2555   -4.7124   25.5274 O   0  0  0  0  0  0  0  0  0  0  0  0
   14.3443   -0.7919   25.6146 Cl  0  0  0  0  0  0  0  0  0  0  0  0
   14.2252    2.8655   22.4203 H   0  0  0  0  0  0  0  0  0  0  0  0
   11.7558    2.8989   22.2964 H   0  0  0  0  0  0  0  0  0  0  0  0
    8.9221   -0.1995   25.4231 H   0  0  0  0  0  0  0  0  0  0  0  0
   10.0642   -2.2347   21.8253 H   0  0  0  0  0  0  0  0  0  0  0  0
    8.6902   -2.3588   26.5805 H   0  0  0  0  0  0  0  0  0  0  0  0
    9.9254   -4.3921   22.9961 H   0  0  0  0  0  0  0  0  0  0  0  0
   15.3780    1.2421   23.8799 H   0  0  0  0  0  0  0  0  0  0  0  0
   11.5662   -0.3441   25.1155 H   0  0  0  0  0  0  0  0  0  0  0  0
    5.6855    0.7074   22.1002 H   0  0  0  0  0  0  0  0  0  0  0  0
    3.6634    2.0034   21.6926 H   0  0  0  0  0  0  0  0  0  0  0  0
    3.0111    2.6563   19.3629 H   0  0  0  0  0  0  0  0  0  0  0  0
    4.4370    1.9522   17.4626 H   0  0  0  0  0  0  0  0  0  0  0  0
    8.8711   -5.6964   27.3038 H   0  0  0  0  0  0  0  0  0  0  0  0
    7.8758   -4.2402   26.9923 H   0  0  0  0  0  0  0  0  0  0  0  0
    9.5894   -4.0716   27.4566 H   0  0  0  0  0  0  0  0  0  0  0  0
    9.5698    1.2303   24.6307 H   0  0  0  0  0  0  0  0  0  0  0  0
    9.6463    2.2273   23.1774 H   0  0  0  0  0  0  0  0  0  0  0  0
    8.2368   -1.5645   21.0930 H   0  0  0  0  0  0  0  0  0  0  0  0
  1  2  2  0  0  0  0
  1  7  1  0  0  0  0
  2  9  1  0  0  0  0
  3  5  2  0  0  0  0
  3 10  1  0  0  0  0
  4  6  1  0  0  0  0
  4 10  2  0  0  0  0
  5 11  1  0  0  0  0
  6 11  2  0  0  0  0
  7 12  2  0  0  0  0
  8  9  2  0  0  0  0
  8 12  1  0  0  0  0
  9 21  1  0  0  0  0
 10 26  1  0  0  0  0
 11 28  1  0  0  0  0
 12 29  1  0  0  0  0
 13 14  2  0  0  0  0
 13 15  1  0  0  0  0
 13 24  1  0  0  0  0
 14 22  1  0  0  0  0
 14 25  1  0  0  0  0
 15 16  2  0  0  0  0
 16 17  1  0  0  0  0
 17 18  2  0  0  0  0
 18 24  1  0  0  0  0
 19 25  1  0  0  0  0
 19 26  1  0  0  0  0
 19 27  2  0  0  0  0
 20 28  1  0  0  0  0
 21 26  1  0  0  0  0
 22 23  2  0  0  0  0
 23 24  1  0  0  0  0
  1 30  1  0  0  0  0
  2 31  1  0  0  0  0
  3 32  1  0  0  0  0
  4 33  1  0  0  0  0
  5 34  1  0  0  0  0
  6 35  1  0  0  0  0
  7 36  1  0  0  0  0
  8 37  1  0  0  0  0
 15 38  1  0  0  0  0
 16 39  1  0  0  0  0
 17 40  1  0  0  0  0
 18 41  1  0  0  0  0
 20 42  1  0  0  0  0
 20 43  1  0  0  0  0
 20 44  1  0  0  0  0
 21 45  1  0  0  0  0
 21 46  1  0  0  0  0
 25 47  1  0  0  0  0
M  END
> <clash_score>
0.6559760819313948

> <docking_score>
-7.517561435699463

> <overlap_score>
0.9653679132461548

$$$$
BENZO_105_1
  -OEChem-08232013443D

 57 61  0     0  0  0  0  0  0999 V2000
   14.2901    1.2070   23.8342 C   0  0  0  0  0  0  0  0  0  0  0  0
   13.5239    0.5665   24.8080 C   0  0  0  0  0  0  0  0  0  0  0  0
   13.6638    1.8841   22.7878 C   0  0  0  0  0  0  0  0  0  0  0  0
   12.1314    0.6030   24.7354 C   0  0  0  0  0  0  0  0  0  0  0  0
   12.2713    1.9205   22.7152 C   0  0  0  0  0  0  0  0  0  0  0  0
    8.9960   -2.3380   25.5320 C   0  0  0  0  0  0  0  0  0  0  0  0
    9.6730   -3.4710   23.5300 C   0  0  0  0  0  0  0  0  0  0  0  0
    9.0720   -1.1280   24.8640 C   0  0  0  0  0  0  0  0  0  0  0  0
    9.7200   -2.2600   22.8630 C   0  0  0  0  0  0  0  0  0  0  0  0
   11.5051    1.2800   23.6890 C   0  0  0  0  0  0  0  0  0  0  0  0
    9.3070   -3.5340   24.8780 C   0  0  0  0  0  0  0  0  0  0  0  0
    9.3350   -1.0880   23.5010 C   0  0  0  0  0  0  0  0  0  0  0  0
    6.1790    0.5730   19.9990 C   0  0  0  0  0  0  0  0  0  0  0  0
    7.3170   -0.1610   19.8550 C   0  0  0  0  0  0  0  0  0  0  0  0
    5.4210    0.9600   21.0930 C   0  0  0  0  0  0  0  0  0  0  0  0
    4.2750    1.7050   20.8490 C   0  0  0  0  0  0  0  0  0  0  0  0
    3.9160    2.0630   19.5520 C   0  0  0  0  0  0  0  0  0  0  0  0
    4.6890    1.6810   18.4640 C   0  0  0  0  0  0  0  0  0  0  0  0
    8.3597   -5.0073   26.6307 C   0  0  0  0  0  0  0  0  0  0  0  0
    9.0420    0.3700   21.5280 C   0  0  0  0  0  0  0  0  0  0  0  0
    8.4720   -6.3981   27.2296 C   0  0  0  0  0  0  0  0  0  0  0  0
    9.9252   -6.7605   27.4803 C   0  0  0  0  0  0  0  0  0  0  0  0
   10.7833   -6.6094   26.2282 C   0  0  0  0  0  0  0  0  0  0  0  0
   10.0539   -5.9099   25.0823 C   0  0  0  0  0  0  0  0  0  0  0  0
   10.0063    1.3195   23.6101 C   0  0  0  0  0  0  0  0  0  0  0  0
    7.6390   -0.2680   18.5410 N   0  0  0  0  0  0  0  0  0  0  0  0
    6.7580    0.3810   17.8350 N   0  0  0  0  0  0  0  0  0  0  0  0
    5.8300    0.9190   18.6970 N   0  0  0  0  0  0  0  0  0  0  0  0
    9.2529   -4.7797   25.5644 N   0  0  0  0  0  0  0  0  0  0  0  0
    8.1890   -0.7180   20.8700 N   0  0  0  0  0  0  0  0  0  0  0  0
    9.4560    0.1560   22.8130 N   0  0  0  0  0  0  0  0  0  0  0  0
    7.4954   -4.2356   27.0449 O   0  0  0  0  0  0  0  0  0  0  0  0
    9.2690    1.4140   20.9380 O   0  0  0  0  0  0  0  0  0  0  0  0
   15.3743    1.1796   23.8917 H   0  0  0  0  0  0  0  0  0  0  0  0
   14.0114    0.0402   25.6235 H   0  0  0  0  0  0  0  0  0  0  0  0
   14.2600    2.3838   22.0300 H   0  0  0  0  0  0  0  0  0  0  0  0
   11.5425    0.1009   25.4985 H   0  0  0  0  0  0  0  0  0  0  0  0
   11.7920    2.4504   21.8962 H   0  0  0  0  0  0  0  0  0  0  0  0
    8.6895   -2.3529   26.5807 H   0  0  0  0  0  0  0  0  0  0  0  0
    9.9262   -4.3897   22.9916 H   0  0  0  0  0  0  0  0  0  0  0  0
    8.9224   -0.1998   25.4238 H   0  0  0  0  0  0  0  0  0  0  0  0
   10.0649   -2.2343   21.8258 H   0  0  0  0  0  0  0  0  0  0  0  0
    5.6855    0.7074   22.1002 H   0  0  0  0  0  0  0  0  0  0  0  0
    3.6634    2.0034   21.6926 H   0  0  0  0  0  0  0  0  0  0  0  0
    3.0111    2.6563   19.3629 H   0  0  0  0  0  0  0  0  0  0  0  0
    4.4370    1.9522   17.4626 H   0  0  0  0  0  0  0  0  0  0  0  0
    7.9325   -6.4148   28.1641 H   0  0  0  0  0  0  0  0  0  0  0  0
    8.0254   -7.0920   26.5333 H   0  0  0  0  0  0  0  0  0  0  0  0
   10.3387   -6.1267   28.2923 H   0  0  0  0  0  0  0  0  0  0  0  0
    9.9904   -7.8023   27.8537 H   0  0  0  0  0  0  0  0  0  0  0  0
   11.7037   -6.0404   26.4771 H   0  0  0  0  0  0  0  0  0  0  0  0
   11.1411   -7.6068   25.8918 H   0  0  0  0  0  0  0  0  0  0  0  0
   10.7782   -5.5162   24.3756 H   0  0  0  0  0  0  0  0  0  0  0  0
    9.4042   -6.6189   24.5807 H   0  0  0  0  0  0  0  0  0  0  0  0
    9.5651    1.2527   24.6105 H   0  0  0  0  0  0  0  0  0  0  0  0
    9.6608    2.2581   23.1642 H   0  0  0  0  0  0  0  0  0  0  0  0
    8.2565   -1.5523   21.1108 H   0  0  0  0  0  0  0  0  0  0  0  0
  1  2  1  0  0  0  0
  1  3  2  0  0  0  0
  2  4  2  0  0  0  0
  3  5  1  0  0  0  0
  4 10  1  0  0  0  0
  5 10  2  0  0  0  0
  6  8  2  0  0  0  0
  6 11  1  0  0  0  0
  7  9  1  0  0  0  0
  7 11  2  0  0  0  0
  8 12  1  0  0  0  0
  9 12  2  0  0  0  0
 10 25  1  0  0  0  0
 11 29  1  0  0  0  0
 12 31  1  0  0  0  0
 13 14  2  0  0  0  0
 13 15  1  0  0  0  0
 13 28  1  0  0  0  0
 14 26  1  0  0  0  0
 14 30  1  0  0  0  0
 15 16  2  0  0  0  0
 16 17  1  0  0  0  0
 17 18  2  0  0  0  0
 18 28  1  0  0  0  0
 19 21  1  0  0  0  0
 19 29  1  0  0  0  0
 19 32  2  0  0  0  0
 20 30  1  0  0  0  0
 20 31  1  0  0  0  0
 20 33  2  0  0  0  0
 21 22  1  0  0  0  0
 22 23  1  0  0  0  0
 23 24  1  0  0  0  0
 24 29  1  0  0  0  0
 25 31  1  0  0  0  0
 26 27  2  0  0  0  0
 27 28  1  0  0  0  0
  1 34  1  0  0  0  0
  2 35  1  0  0  0  0
  3 36  1  0  0  0  0
  4 37  1  0  0  0  0
  5 38  1  0  0  0  0
  6 39  1  0  0  0  0
  7 40  1  0  0  0  0
  8 41  1  0  0  0  0
  9 42  1  0  0  0  0
 15 43  1  0  0  0  0
 16 44  1  0  0  0  0
 17 45  1  0  0  0  0
 18 46  1  0  0  0  0
 21 47  1  0  0  0  0
 21 48  1  0  0  0  0
 22 49  1  0  0  0  0
 22 50  1  0  0  0  0
 23 51  1  0  0  0  0
 23 52  1  0  0  0  0
 24 53  1  0  0  0  0
 24 54  1  0  0  0  0
 25 55  1  0  0  0  0
 25 56  1  0  0  0  0
 30 57  1  0  0  0  0
M  END
> <clash_score>
0.7790751876189459

> <docking_score>
-8.054508209228516

> <overlap_score>
1.0030076503753662

$$$$
BENZO_104_1
  -OEChem-08232013443D

 54 58  0     0  0  0  0  0  0999 V2000
    8.9960   -2.3380   25.5320 C   0  0  0  0  0  0  0  0  0  0  0  0
    9.6730   -3.4710   23.5300 C   0  0  0  0  0  0  0  0  0  0  0  0
    9.0720   -1.1280   24.8640 C   0  0  0  0  0  0  0  0  0  0  0  0
    9.7200   -2.2600   22.8630 C   0  0  0  0  0  0  0  0  0  0  0  0
   12.3626    1.3479   22.5531 C   0  0  0  0  0  0  0  0  0  0  0  0
   13.6932    1.2905   22.9051 C   0  0  0  0  0  0  0  0  0  0  0  0
   12.2130    1.1731   24.8660 C   0  0  0  0  0  0  0  0  0  0  0  0
   11.5051    1.2800   23.6890 C   0  0  0  0  0  0  0  0  0  0  0  0
    9.3070   -3.5340   24.8780 C   0  0  0  0  0  0  0  0  0  0  0  0
    9.3350   -1.0880   23.5010 C   0  0  0  0  0  0  0  0  0  0  0  0
    6.1790    0.5730   19.9990 C   0  0  0  0  0  0  0  0  0  0  0  0
    7.3170   -0.1610   19.8550 C   0  0  0  0  0  0  0  0  0  0  0  0
    5.4210    0.9600   21.0930 C   0  0  0  0  0  0  0  0  0  0  0  0
    4.2750    1.7050   20.8490 C   0  0  0  0  0  0  0  0  0  0  0  0
    3.9160    2.0630   19.5520 C   0  0  0  0  0  0  0  0  0  0  0  0
    4.6890    1.6810   18.4640 C   0  0  0  0  0  0  0  0  0  0  0  0
    8.3596   -5.0074   26.6308 C   0  0  0  0  0  0  0  0  0  0  0  0
    9.0420    0.3700   21.5280 C   0  0  0  0  0  0  0  0  0  0  0  0
    8.4579   -6.4047   27.2169 C   0  0  0  0  0  0  0  0  0  0  0  0
    8.4717   -7.4504   26.1159 C   0  0  0  0  0  0  0  0  0  0  0  0
    9.5645   -7.1893   25.0842 C   0  0  0  0  0  0  0  0  0  0  0  0
   10.2327   -5.8252   25.2501 C   0  0  0  0  0  0  0  0  0  0  0  0
   10.0063    1.3195   23.6101 C   0  0  0  0  0  0  0  0  0  0  0  0
    7.6390   -0.2680   18.5410 N   0  0  0  0  0  0  0  0  0  0  0  0
    6.7580    0.3810   17.8350 N   0  0  0  0  0  0  0  0  0  0  0  0
    5.8300    0.9190   18.6970 N   0  0  0  0  0  0  0  0  0  0  0  0
    9.2529   -4.7798   25.5645 N   0  0  0  0  0  0  0  0  0  0  0  0
    8.1890   -0.7180   20.8700 N   0  0  0  0  0  0  0  0  0  0  0  0
    9.4560    0.1560   22.8130 N   0  0  0  0  0  0  0  0  0  0  0  0
    7.5990   -4.1865   27.1424 O   0  0  0  0  0  0  0  0  0  0  0  0
    9.2690    1.4140   20.9380 O   0  0  0  0  0  0  0  0  0  0  0  0
   13.9044    1.1553   24.5990 S   0  0  0  0  0  0  0  0  0  0  0  0
    8.6895   -2.3529   26.5807 H   0  0  0  0  0  0  0  0  0  0  0  0
    9.9262   -4.3897   22.9916 H   0  0  0  0  0  0  0  0  0  0  0  0
    8.9224   -0.1998   25.4238 H   0  0  0  0  0  0  0  0  0  0  0  0
   10.0649   -2.2343   21.8258 H   0  0  0  0  0  0  0  0  0  0  0  0
   12.0249    1.4340   21.5280 H   0  0  0  0  0  0  0  0  0  0  0  0
   14.5513    1.3208   22.2486 H   0  0  0  0  0  0  0  0  0  0  0  0
   11.8219    1.1033   25.8716 H   0  0  0  0  0  0  0  0  0  0  0  0
    5.6855    0.7074   22.1002 H   0  0  0  0  0  0  0  0  0  0  0  0
    3.6634    2.0034   21.6926 H   0  0  0  0  0  0  0  0  0  0  0  0
    3.0111    2.6563   19.3629 H   0  0  0  0  0  0  0  0  0  0  0  0
    4.4370    1.9522   17.4626 H   0  0  0  0  0  0  0  0  0  0  0  0
    9.3706   -6.4745   27.7885 H   0  0  0  0  0  0  0  0  0  0  0  0
    7.6055   -6.5497   27.8636 H   0  0  0  0  0  0  0  0  0  0  0  0
    8.6095   -8.4604   26.5550 H   0  0  0  0  0  0  0  0  0  0  0  0
    7.4835   -7.4763   25.6142 H   0  0  0  0  0  0  0  0  0  0  0  0
   10.3359   -7.9850   25.1531 H   0  0  0  0  0  0  0  0  0  0  0  0
    9.1458   -7.2796   24.0582 H   0  0  0  0  0  0  0  0  0  0  0  0
   10.9408   -5.8640   26.0725 H   0  0  0  0  0  0  0  0  0  0  0  0
   10.7521   -5.5631   24.3347 H   0  0  0  0  0  0  0  0  0  0  0  0
    9.5651    1.2527   24.6105 H   0  0  0  0  0  0  0  0  0  0  0  0
    9.6608    2.2581   23.1642 H   0  0  0  0  0  0  0  0  0  0  0  0
    8.2565   -1.5523   21.1108 H   0  0  0  0  0  0  0  0  0  0  0  0
  1  3  2  0  0  0  0
  1  9  1  0  0  0  0
  2  4  1  0  0  0  0
  2  9  2  0  0  0  0
  3 10  1  0  0  0  0
  4 10  2  0  0  0  0
  5  6  2  0  0  0  0
  5  8  1  0  0  0  0
  6 32  1  0  0  0  0
  7  8  2  0  0  0  0
  7 32  1  0  0  0  0
  8 23  1  0  0  0  0
  9 27  1  0  0  0  0
 10 29  1  0  0  0  0
 11 12  2  0  0  0  0
 11 13  1  0  0  0  0
 11 26  1  0  0  0  0
 12 24  1  0  0  0  0
 12 28  1  0  0  0  0
 13 14  2  0  0  0  0
 14 15  1  0  0  0  0
 15 16  2  0  0  0  0
 16 26  1  0  0  0  0
 17 19  1  0  0  0  0
 17 27  1  0  0  0  0
 17 30  2  0  0  0  0
 18 28  1  0  0  0  0
 18 29  1  0  0  0  0
 18 31  2  0  0  0  0
 19 20  1  0  0  0  0
 20 21  1  0  0  0  0
 21 22  1  0  0  0  0
 22 27  1  0  0  0  0
 23 29  1  0  0  0  0
 24 25  2  0  0  0  0
 25 26  1  0  0  0  0
  1 33  1  0  0  0  0
  2 34  1  0  0  0  0
  3 35  1  0  0  0  0
  4 36  1  0  0  0  0
  5 37  1  0  0  0  0
  6 38  1  0  0  0  0
  7 39  1  0  0  0  0
 13 40  1  0  0  0  0
 14 41  1  0  0  0  0
 15 42  1  0  0  0  0
 16 43  1  0  0  0  0
 19 44  1  0  0  0  0
 19 45  1  0  0  0  0
 20 46  1  0  0  0  0
 20 47  1  0  0  0  0
 21 48  1  0  0  0  0
 21 49  1  0  0  0  0
 22 50  1  0  0  0  0
 22 51  1  0  0  0  0
 23 52  1  0  0  0  0
 23 53  1  0  0  0  0
 28 54  1  0  0  0  0
M  END
> <clash_score>
0.6354466317061015

> <docking_score>
-8.008360862731934

> <overlap_score>
0.9860453009605408

$$$$
BENZO_109_1
  -OEChem-08232013443D

 56 60  0     0  0  0  0  0  0999 V2000
   14.2935    1.3712   23.7866 C   0  0  0  0  0  0  0  0  0  0  0  0
   13.5637    0.6911   24.7615 C   0  0  0  0  0  0  0  0  0  0  0  0
   13.6297    2.0345   22.7545 C   0  0  0  0  0  0  0  0  0  0  0  0
   12.1701    0.6742   24.7044 C   0  0  0  0  0  0  0  0  0  0  0  0
   12.2361    2.0176   22.6974 C   0  0  0  0  0  0  0  0  0  0  0  0
    8.9960   -2.3380   25.5320 C   0  0  0  0  0  0  0  0  0  0  0  0
    9.6730   -3.4710   23.5300 C   0  0  0  0  0  0  0  0  0  0  0  0
    9.0720   -1.1280   24.8640 C   0  0  0  0  0  0  0  0  0  0  0  0
    9.7200   -2.2600   22.8630 C   0  0  0  0  0  0  0  0  0  0  0  0
   11.5063    1.3374   23.6723 C   0  0  0  0  0  0  0  0  0  0  0  0
    9.3070   -3.5340   24.8780 C   0  0  0  0  0  0  0  0  0  0  0  0
    9.3350   -1.0880   23.5010 C   0  0  0  0  0  0  0  0  0  0  0  0
    6.1790    0.5730   19.9990 C   0  0  0  0  0  0  0  0  0  0  0  0
    7.3170   -0.1610   19.8550 C   0  0  0  0  0  0  0  0  0  0  0  0
    5.4210    0.9600   21.0930 C   0  0  0  0  0  0  0  0  0  0  0  0
    4.2750    1.7050   20.8490 C   0  0  0  0  0  0  0  0  0  0  0  0
    3.9160    2.0630   19.5520 C   0  0  0  0  0  0  0  0  0  0  0  0
    4.6890    1.6810   18.4640 C   0  0  0  0  0  0  0  0  0  0  0  0
    9.0420    0.3700   21.5280 C   0  0  0  0  0  0  0  0  0  0  0  0
   10.0771   -5.0255   26.7193 C   0  0  0  0  0  0  0  0  0  0  0  0
    8.0927   -5.6195   25.4071 C   0  0  0  0  0  0  0  0  0  0  0  0
    9.1933   -4.9427   27.9592 C   0  0  0  0  0  0  0  0  0  0  0  0
    7.2756   -5.5290   26.6967 C   0  0  0  0  0  0  0  0  0  0  0  0
   10.0063    1.3195   23.6101 C   0  0  0  0  0  0  0  0  0  0  0  0
    7.6390   -0.2680   18.5410 N   0  0  0  0  0  0  0  0  0  0  0  0
    6.7580    0.3810   17.8350 N   0  0  0  0  0  0  0  0  0  0  0  0
    5.8300    0.9190   18.6970 N   0  0  0  0  0  0  0  0  0  0  0  0
    9.2563   -4.7368   25.5413 N   0  0  0  0  0  0  0  0  0  0  0  0
    8.1890   -0.7180   20.8700 N   0  0  0  0  0  0  0  0  0  0  0  0
    9.4560    0.1560   22.8130 N   0  0  0  0  0  0  0  0  0  0  0  0
    9.2690    1.4140   20.9380 O   0  0  0  0  0  0  0  0  0  0  0  0
    8.0883   -5.8459   27.8325 O   0  0  0  0  0  0  0  0  0  0  0  0
   15.3785    1.3853   23.8320 H   0  0  0  0  0  0  0  0  0  0  0  0
   14.0803    0.1755   25.5658 H   0  0  0  0  0  0  0  0  0  0  0  0
   14.1975    2.5650   21.9960 H   0  0  0  0  0  0  0  0  0  0  0  0
   11.6097    0.1415   25.4682 H   0  0  0  0  0  0  0  0  0  0  0  0
   11.7275    2.5370   21.8896 H   0  0  0  0  0  0  0  0  0  0  0  0
    8.6905   -2.3533   26.5810 H   0  0  0  0  0  0  0  0  0  0  0  0
    9.9266   -4.3896   22.9917 H   0  0  0  0  0  0  0  0  0  0  0  0
    8.9233   -0.1992   25.4232 H   0  0  0  0  0  0  0  0  0  0  0  0
   10.0650   -2.2330   21.8256 H   0  0  0  0  0  0  0  0  0  0  0  0
    5.6855    0.7074   22.1002 H   0  0  0  0  0  0  0  0  0  0  0  0
    3.6634    2.0034   21.6926 H   0  0  0  0  0  0  0  0  0  0  0  0
    3.0111    2.6563   19.3629 H   0  0  0  0  0  0  0  0  0  0  0  0
    4.4370    1.9522   17.4626 H   0  0  0  0  0  0  0  0  0  0  0  0
   10.8985   -4.3115   26.8085 H   0  0  0  0  0  0  0  0  0  0  0  0
   10.4915   -6.0334   26.6323 H   0  0  0  0  0  0  0  0  0  0  0  0
    8.4327   -6.6456   25.2620 H   0  0  0  0  0  0  0  0  0  0  0  0
    7.4725   -5.3241   24.5619 H   0  0  0  0  0  0  0  0  0  0  0  0
    9.7636   -5.2398   28.8419 H   0  0  0  0  0  0  0  0  0  0  0  0
    8.8236   -3.9268   28.1248 H   0  0  0  0  0  0  0  0  0  0  0  0
    6.8339   -4.5337   26.8232 H   0  0  0  0  0  0  0  0  0  0  0  0
    6.4550   -6.2521   26.6643 H   0  0  0  0  0  0  0  0  0  0  0  0
    9.5786    1.2746   24.6176 H   0  0  0  0  0  0  0  0  0  0  0  0
    9.6218    2.2274   23.1337 H   0  0  0  0  0  0  0  0  0  0  0  0
    8.2565   -1.5523   21.1108 H   0  0  0  0  0  0  0  0  0  0  0  0
  1  2  1  0  0  0  0
  1  3  2  0  0  0  0
  2  4  2  0  0  0  0
  3  5  1  0  0  0  0
  4 10  1  0  0  0  0
  5 10  2  0  0  0  0
  6  8  2  0  0  0  0
  6 11  1  0  0  0  0
  7  9  1  0  0  0  0
  7 11  2  0  0  0  0
  8 12  1  0  0  0  0
  9 12  2  0  0  0  0
 10 24  1  0  0  0  0
 11 28  1  0  0  0  0
 12 30  1  0  0  0  0
 13 14  2  0  0  0  0
 13 15  1  0  0  0  0
 13 27  1  0  0  0  0
 14 25  1  0  0  0  0
 14 29  1  0  0  0  0
 15 16  2  0  0  0  0
 16 17  1  0  0  0  0
 17 18  2  0  0  0  0
 18 27  1  0  0  0  0
 19 29  1  0  0  0  0
 19 30  1  0  0  0  0
 19 31  2  0  0  0  0
 20 22  1  0  0  0  0
 20 28  1  0  0  0  0
 21 23  1  0  0  0  0
 21 28  1  0  0  0  0
 22 32  1  0  0  0  0
 23 32  1  0  0  0  0
 24 30  1  0  0  0  0
 25 26  2  0  0  0  0
 26 27  1  0  0  0  0
  1 33  1  0  0  0  0
  2 34  1  0  0  0  0
  3 35  1  0  0  0  0
  4 36  1  0  0  0  0
  5 37  1  0  0  0  0
  6 38  1  0  0  0  0
  7 39  1  0  0  0  0
  8 40  1  0  0  0  0
  9 41  1  0  0  0  0
 15 42  1  0  0  0  0
 16 43  1  0  0  0  0
 17 44  1  0  0  0  0
 18 45  1  0  0  0  0
 20 46  1  0  0  0  0
 20 47  1  0  0  0  0
 21 48  1  0  0  0  0
 21 49  1  0  0  0  0
 22 50  1  0  0  0  0
 22 51  1  0  0  0  0
 23 52  1  0  0  0  0
 23 53  1  0  0  0  0
 24 54  1  0  0  0  0
 24 55  1  0  0  0  0
 29 56  1  0  0  0  0
M  END
> <clash_score>
0

> <docking_score>
-8.987387657165527

> <overlap_score>
0.992071270942688

$$$$
BENZO_107_1
  -OEChem-08232013443D

 57 61  0     0  0  0  0  0  0999 V2000
    8.9960   -2.3380   25.5320 C   0  0  0  0  0  0  0  0  0  0  0  0
    9.6730   -3.4710   23.5300 C   0  0  0  0  0  0  0  0  0  0  0  0
    9.0720   -1.1280   24.8640 C   0  0  0  0  0  0  0  0  0  0  0  0
    9.7200   -2.2600   22.8630 C   0  0  0  0  0  0  0  0  0  0  0  0
   12.3069    1.1739   24.8412 C   0  0  0  0  0  0  0  0  0  0  0  0
   12.4021    1.3368   22.6504 C   0  0  0  0  0  0  0  0  0  0  0  0
   11.5051    1.2800   23.6890 C   0  0  0  0  0  0  0  0  0  0  0  0
    9.3070   -3.5340   24.8780 C   0  0  0  0  0  0  0  0  0  0  0  0
    9.3350   -1.0880   23.5010 C   0  0  0  0  0  0  0  0  0  0  0  0
    6.1790    0.5730   19.9990 C   0  0  0  0  0  0  0  0  0  0  0  0
    7.3170   -0.1610   19.8550 C   0  0  0  0  0  0  0  0  0  0  0  0
    5.4210    0.9600   21.0930 C   0  0  0  0  0  0  0  0  0  0  0  0
    4.2750    1.7050   20.8490 C   0  0  0  0  0  0  0  0  0  0  0  0
    3.9160    2.0630   19.5520 C   0  0  0  0  0  0  0  0  0  0  0  0
    4.6890    1.6810   18.4640 C   0  0  0  0  0  0  0  0  0  0  0  0
    8.3597   -5.0073   26.6307 C   0  0  0  0  0  0  0  0  0  0  0  0
    9.0420    0.3700   21.5280 C   0  0  0  0  0  0  0  0  0  0  0  0
    8.4720   -6.3981   27.2296 C   0  0  0  0  0  0  0  0  0  0  0  0
    9.9252   -6.7605   27.4803 C   0  0  0  0  0  0  0  0  0  0  0  0
   10.7833   -6.6094   26.2282 C   0  0  0  0  0  0  0  0  0  0  0  0
   10.0539   -5.9099   25.0823 C   0  0  0  0  0  0  0  0  0  0  0  0
   14.9044    1.2854   22.5284 C   0  0  0  0  0  0  0  0  0  0  0  0
   10.0063    1.3195   23.6101 C   0  0  0  0  0  0  0  0  0  0  0  0
   13.6129    1.1635   24.5614 N   0  0  0  0  0  0  0  0  0  0  0  0
    7.6390   -0.2680   18.5410 N   0  0  0  0  0  0  0  0  0  0  0  0
    6.7580    0.3810   17.8350 N   0  0  0  0  0  0  0  0  0  0  0  0
   13.6386    1.2638   23.2214 N   0  0  0  0  0  0  0  0  0  0  0  0
    5.8300    0.9190   18.6970 N   0  0  0  0  0  0  0  0  0  0  0  0
    9.2529   -4.7797   25.5644 N   0  0  0  0  0  0  0  0  0  0  0  0
    8.1890   -0.7180   20.8700 N   0  0  0  0  0  0  0  0  0  0  0  0
    9.4560    0.1560   22.8130 N   0  0  0  0  0  0  0  0  0  0  0  0
    7.4954   -4.2356   27.0449 O   0  0  0  0  0  0  0  0  0  0  0  0
    9.2690    1.4140   20.9380 O   0  0  0  0  0  0  0  0  0  0  0  0
    8.6895   -2.3529   26.5807 H   0  0  0  0  0  0  0  0  0  0  0  0
    9.9262   -4.3897   22.9916 H   0  0  0  0  0  0  0  0  0  0  0  0
    8.9224   -0.1998   25.4238 H   0  0  0  0  0  0  0  0  0  0  0  0
   10.0649   -2.2343   21.8258 H   0  0  0  0  0  0  0  0  0  0  0  0
   11.9964    1.1027   25.8740 H   0  0  0  0  0  0  0  0  0  0  0  0
   12.2692    1.4196   21.5802 H   0  0  0  0  0  0  0  0  0  0  0  0
    5.6855    0.7074   22.1002 H   0  0  0  0  0  0  0  0  0  0  0  0
    3.6634    2.0034   21.6926 H   0  0  0  0  0  0  0  0  0  0  0  0
    3.0111    2.6563   19.3629 H   0  0  0  0  0  0  0  0  0  0  0  0
    4.4370    1.9522   17.4626 H   0  0  0  0  0  0  0  0  0  0  0  0
    7.9325   -6.4148   28.1641 H   0  0  0  0  0  0  0  0  0  0  0  0
    8.0254   -7.0920   26.5333 H   0  0  0  0  0  0  0  0  0  0  0  0
   10.3387   -6.1267   28.2923 H   0  0  0  0  0  0  0  0  0  0  0  0
    9.9904   -7.8023   27.8537 H   0  0  0  0  0  0  0  0  0  0  0  0
   11.7037   -6.0404   26.4771 H   0  0  0  0  0  0  0  0  0  0  0  0
   11.1411   -7.6068   25.8918 H   0  0  0  0  0  0  0  0  0  0  0  0
   10.7782   -5.5162   24.3756 H   0  0  0  0  0  0  0  0  0  0  0  0
    9.4042   -6.6189   24.5807 H   0  0  0  0  0  0  0  0  0  0  0  0
   15.2253    2.3271   22.4447 H   0  0  0  0  0  0  0  0  0  0  0  0
   15.6384    0.7034   23.0926 H   0  0  0  0  0  0  0  0  0  0  0  0
   14.7810    0.8414   21.5367 H   0  0  0  0  0  0  0  0  0  0  0  0
    9.5651    1.2527   24.6105 H   0  0  0  0  0  0  0  0  0  0  0  0
    9.6608    2.2581   23.1642 H   0  0  0  0  0  0  0  0  0  0  0  0
    8.2565   -1.5523   21.1108 H   0  0  0  0  0  0  0  0  0  0  0  0
  1  3  2  0  0  0  0
  1  8  1  0  0  0  0
  2  4  1  0  0  0  0
  2  8  2  0  0  0  0
  3  9  1  0  0  0  0
  4  9  2  0  0  0  0
  5  7  1  0  0  0  0
  5 24  2  0  0  0  0
  6  7  2  0  0  0  0
  6 27  1  0  0  0  0
  7 23  1  0  0  0  0
  8 29  1  0  0  0  0
  9 31  1  0  0  0  0
 10 11  2  0  0  0  0
 10 12  1  0  0  0  0
 10 28  1  0  0  0  0
 11 25  1  0  0  0  0
 11 30  1  0  0  0  0
 12 13  2  0  0  0  0
 13 14  1  0  0  0  0
 14 15  2  0  0  0  0
 15 28  1  0  0  0  0
 16 18  1  0  0  0  0
 16 29  1  0  0  0  0
 16 32  2  0  0  0  0
 17 30  1  0  0  0  0
 17 31  1  0  0  0  0
 17 33  2  0  0  0  0
 18 19  1  0  0  0  0
 19 20  1  0  0  0  0
 20 21  1  0  0  0  0
 21 29  1  0  0  0  0
 22 27  1  0  0  0  0
 23 31  1  0  0  0  0
 24 27  1  0  0  0  0
 25 26  2  0  0  0  0
 26 28  1  0  0  0  0
  1 34  1  0  0  0  0
  2 35  1  0  0  0  0
  3 36  1  0  0  0  0
  4 37  1  0  0  0  0
  5 38  1  0  0  0  0
  6 39  1  0  0  0  0
 12 40  1  0  0  0  0
 13 41  1  0  0  0  0
 14 42  1  0  0  0  0
 15 43  1  0  0  0  0
 18 44  1  0  0  0  0
 18 45  1  0  0  0  0
 19 46  1  0  0  0  0
 19 47  1  0  0  0  0
 20 48  1  0  0  0  0
 20 49  1  0  0  0  0
 21 50  1  0  0  0  0
 21 51  1  0  0  0  0
 22 52  1  0  0  0  0
 22 53  1  0  0  0  0
 22 54  1  0  0  0  0
 23 55  1  0  0  0  0
 23 56  1  0  0  0  0
 30 57  1  0  0  0  0
M  END
> <clash_score>
0.7790751876189459

> <docking_score>
-7.837991714477539

> <overlap_score>
0.9960875511169434

$$$$
BENZO_106_1
  -OEChem-08232013443D

 57 61  0     0  0  0  0  0  0999 V2000
   13.6586    2.1422   23.0138 C   0  0  0  0  0  0  0  0  0  0  0  0
   12.2662    2.1775   22.9401 C   0  0  0  0  0  0  0  0  0  0  0  0
    8.9960   -2.3380   25.5320 C   0  0  0  0  0  0  0  0  0  0  0  0
    9.6730   -3.4710   23.5300 C   0  0  0  0  0  0  0  0  0  0  0  0
    9.0720   -1.1280   24.8640 C   0  0  0  0  0  0  0  0  0  0  0  0
    9.7200   -2.2600   22.8630 C   0  0  0  0  0  0  0  0  0  0  0  0
   14.2900    1.2092   23.8363 C   0  0  0  0  0  0  0  0  0  0  0  0
   12.1365    0.3471   24.5116 C   0  0  0  0  0  0  0  0  0  0  0  0
   11.5051    1.2800   23.6890 C   0  0  0  0  0  0  0  0  0  0  0  0
    9.3070   -3.5340   24.8780 C   0  0  0  0  0  0  0  0  0  0  0  0
    9.3350   -1.0880   23.5010 C   0  0  0  0  0  0  0  0  0  0  0  0
   13.5290    0.3117   24.5853 C   0  0  0  0  0  0  0  0  0  0  0  0
    6.1790    0.5730   19.9990 C   0  0  0  0  0  0  0  0  0  0  0  0
    7.3170   -0.1610   19.8550 C   0  0  0  0  0  0  0  0  0  0  0  0
    5.4210    0.9600   21.0930 C   0  0  0  0  0  0  0  0  0  0  0  0
    4.2750    1.7050   20.8490 C   0  0  0  0  0  0  0  0  0  0  0  0
    3.9160    2.0630   19.5520 C   0  0  0  0  0  0  0  0  0  0  0  0
    4.6890    1.6810   18.4640 C   0  0  0  0  0  0  0  0  0  0  0  0
    8.3597   -5.0073   26.6307 C   0  0  0  0  0  0  0  0  0  0  0  0
    9.0420    0.3700   21.5280 C   0  0  0  0  0  0  0  0  0  0  0  0
    8.4720   -6.3981   27.2296 C   0  0  0  0  0  0  0  0  0  0  0  0
    9.9252   -6.7605   27.4803 C   0  0  0  0  0  0  0  0  0  0  0  0
   10.7833   -6.6094   26.2282 C   0  0  0  0  0  0  0  0  0  0  0  0
   10.0539   -5.9099   25.0823 C   0  0  0  0  0  0  0  0  0  0  0  0
   10.0063    1.3195   23.6101 C   0  0  0  0  0  0  0  0  0  0  0  0
    7.6390   -0.2680   18.5410 N   0  0  0  0  0  0  0  0  0  0  0  0
    6.7580    0.3810   17.8350 N   0  0  0  0  0  0  0  0  0  0  0  0
    5.8300    0.9190   18.6970 N   0  0  0  0  0  0  0  0  0  0  0  0
    9.2529   -4.7797   25.5644 N   0  0  0  0  0  0  0  0  0  0  0  0
    8.1890   -0.7180   20.8700 N   0  0  0  0  0  0  0  0  0  0  0  0
    9.4560    0.1560   22.8130 N   0  0  0  0  0  0  0  0  0  0  0  0
    7.4954   -4.2356   27.0449 O   0  0  0  0  0  0  0  0  0  0  0  0
    9.2690    1.4140   20.9380 O   0  0  0  0  0  0  0  0  0  0  0  0
   14.3085   -0.8384   25.6008 Cl  0  0  0  0  0  0  0  0  0  0  0  0
   14.2509    2.8413   22.4305 H   0  0  0  0  0  0  0  0  0  0  0  0
   11.7826    2.9079   22.2966 H   0  0  0  0  0  0  0  0  0  0  0  0
    8.6895   -2.3529   26.5807 H   0  0  0  0  0  0  0  0  0  0  0  0
    9.9262   -4.3897   22.9916 H   0  0  0  0  0  0  0  0  0  0  0  0
    8.9224   -0.1998   25.4238 H   0  0  0  0  0  0  0  0  0  0  0  0
   10.0649   -2.2343   21.8258 H   0  0  0  0  0  0  0  0  0  0  0  0
   15.3761    1.1934   23.8841 H   0  0  0  0  0  0  0  0  0  0  0  0
   11.5386   -0.3509   25.0931 H   0  0  0  0  0  0  0  0  0  0  0  0
    5.6855    0.7074   22.1002 H   0  0  0  0  0  0  0  0  0  0  0  0
    3.6634    2.0034   21.6926 H   0  0  0  0  0  0  0  0  0  0  0  0
    3.0111    2.6563   19.3629 H   0  0  0  0  0  0  0  0  0  0  0  0
    4.4370    1.9522   17.4626 H   0  0  0  0  0  0  0  0  0  0  0  0
    7.9325   -6.4148   28.1641 H   0  0  0  0  0  0  0  0  0  0  0  0
    8.0254   -7.0920   26.5333 H   0  0  0  0  0  0  0  0  0  0  0  0
   10.3387   -6.1267   28.2923 H   0  0  0  0  0  0  0  0  0  0  0  0
    9.9904   -7.8023   27.8537 H   0  0  0  0  0  0  0  0  0  0  0  0
   11.7037   -6.0404   26.4771 H   0  0  0  0  0  0  0  0  0  0  0  0
   11.1411   -7.6068   25.8918 H   0  0  0  0  0  0  0  0  0  0  0  0
   10.7782   -5.5162   24.3756 H   0  0  0  0  0  0  0  0  0  0  0  0
    9.4042   -6.6189   24.5807 H   0  0  0  0  0  0  0  0  0  0  0  0
    9.5651    1.2527   24.6105 H   0  0  0  0  0  0  0  0  0  0  0  0
    9.6608    2.2581   23.1642 H   0  0  0  0  0  0  0  0  0  0  0  0
    8.2565   -1.5523   21.1108 H   0  0  0  0  0  0  0  0  0  0  0  0
  1  2  2  0  0  0  0
  1  7  1  0  0  0  0
  2  9  1  0  0  0  0
  3  5  2  0  0  0  0
  3 10  1  0  0  0  0
  4  6  1  0  0  0  0
  4 10  2  0  0  0  0
  5 11  1  0  0  0  0
  6 11  2  0  0  0  0
  7 12  2  0  0  0  0
  8  9  2  0  0  0  0
  8 12  1  0  0  0  0
  9 25  1  0  0  0  0
 10 29  1  0  0  0  0
 11 31  1  0  0  0  0
 12 34  1  0  0  0  0
 13 14  2  0  0  0  0
 13 15  1  0  0  0  0
 13 28  1  0  0  0  0
 14 26  1  0  0  0  0
 14 30  1  0  0  0  0
 15 16  2  0  0  0  0
 16 17  1  0  0  0  0
 17 18  2  0  0  0  0
 18 28  1  0  0  0  0
 19 21  1  0  0  0  0
 19 29  1  0  0  0  0
 19 32  2  0  0  0  0
 20 30  1  0  0  0  0
 20 31  1  0  0  0  0
 20 33  2  0  0  0  0
 21 22  1  0  0  0  0
 22 23  1  0  0  0  0
 23 24  1  0  0  0  0
 24 29  1  0  0  0  0
 25 31  1  0  0  0  0
 26 27  2  0  0  0  0
 27 28  1  0  0  0  0
  1 35  1  0  0  0  0
  2 36  1  0  0  0  0
  3 37  1  0  0  0  0
  4 38  1  0  0  0  0
  5 39  1  0  0  0  0
  6 40  1  0  0  0  0
  7 41  1  0  0  0  0
  8 42  1  0  0  0  0
 15 43  1  0  0  0  0
 16 44  1  0  0  0  0
 17 45  1  0  0  0  0
 18 46  1  0  0  0  0
 21 47  1  0  0  0  0
 21 48  1  0  0  0  0
 22 49  1  0  0  0  0
 22 50  1  0  0  0  0
 23 51  1  0  0  0  0
 23 52  1  0  0  0  0
 24 53  1  0  0  0  0
 24 54  1  0  0  0  0
 25 55  1  0  0  0  0
 25 56  1  0  0  0  0
 30 57  1  0  0  0  0
M  END
> <clash_score>
1.4506021645831106

> <docking_score>
-6.888908386230469

> <overlap_score>
1.0076640844345093

$$$$
BENZO_108_1
  -OEChem-08232013443D

 53 57  0     0  0  0  0  0  0999 V2000
    8.9960   -2.3380   25.5320 C   0  0  0  0  0  0  0  0  0  0  0  0
    9.6730   -3.4710   23.5300 C   0  0  0  0  0  0  0  0  0  0  0  0
    9.0720   -1.1280   24.8640 C   0  0  0  0  0  0  0  0  0  0  0  0
    9.7200   -2.2600   22.8630 C   0  0  0  0  0  0  0  0  0  0  0  0
   12.2840    2.5287   23.7511 C   0  0  0  0  0  0  0  0  0  0  0  0
   13.6349    2.2627   23.7953 C   0  0  0  0  0  0  0  0  0  0  0  0
   12.2925    0.2062   23.6591 C   0  0  0  0  0  0  0  0  0  0  0  0
   11.5063    1.3374   23.6723 C   0  0  0  0  0  0  0  0  0  0  0  0
    9.3070   -3.5340   24.8780 C   0  0  0  0  0  0  0  0  0  0  0  0
    9.3350   -1.0880   23.5010 C   0  0  0  0  0  0  0  0  0  0  0  0
    6.1790    0.5730   19.9990 C   0  0  0  0  0  0  0  0  0  0  0  0
    7.3170   -0.1610   19.8550 C   0  0  0  0  0  0  0  0  0  0  0  0
    5.4210    0.9600   21.0930 C   0  0  0  0  0  0  0  0  0  0  0  0
    4.2750    1.7050   20.8490 C   0  0  0  0  0  0  0  0  0  0  0  0
    3.9160    2.0630   19.5520 C   0  0  0  0  0  0  0  0  0  0  0  0
    4.6890    1.6810   18.4640 C   0  0  0  0  0  0  0  0  0  0  0  0
    9.0420    0.3700   21.5280 C   0  0  0  0  0  0  0  0  0  0  0  0
   10.0771   -5.0255   26.7193 C   0  0  0  0  0  0  0  0  0  0  0  0
    8.0927   -5.6195   25.4071 C   0  0  0  0  0  0  0  0  0  0  0  0
    9.1933   -4.9427   27.9592 C   0  0  0  0  0  0  0  0  0  0  0  0
    7.2756   -5.5290   26.6967 C   0  0  0  0  0  0  0  0  0  0  0  0
   10.0063    1.3195   23.6101 C   0  0  0  0  0  0  0  0  0  0  0  0
    7.6390   -0.2680   18.5410 N   0  0  0  0  0  0  0  0  0  0  0  0
    6.7580    0.3810   17.8350 N   0  0  0  0  0  0  0  0  0  0  0  0
    5.8300    0.9190   18.6970 N   0  0  0  0  0  0  0  0  0  0  0  0
    9.2563   -4.7368   25.5413 N   0  0  0  0  0  0  0  0  0  0  0  0
    8.1890   -0.7180   20.8700 N   0  0  0  0  0  0  0  0  0  0  0  0
    9.4560    0.1560   22.8130 N   0  0  0  0  0  0  0  0  0  0  0  0
    9.2690    1.4140   20.9380 O   0  0  0  0  0  0  0  0  0  0  0  0
    8.0883   -5.8459   27.8325 O   0  0  0  0  0  0  0  0  0  0  0  0
   13.9610    0.5825   23.7418 S   0  0  0  0  0  0  0  0  0  0  0  0
    8.6905   -2.3533   26.5810 H   0  0  0  0  0  0  0  0  0  0  0  0
    9.9266   -4.3896   22.9917 H   0  0  0  0  0  0  0  0  0  0  0  0
    8.9233   -0.1992   25.4232 H   0  0  0  0  0  0  0  0  0  0  0  0
   10.0650   -2.2330   21.8256 H   0  0  0  0  0  0  0  0  0  0  0  0
   11.8774    3.5319   23.7739 H   0  0  0  0  0  0  0  0  0  0  0  0
   14.4460    2.9746   23.8558 H   0  0  0  0  0  0  0  0  0  0  0  0
   11.9711   -0.8246   23.6038 H   0  0  0  0  0  0  0  0  0  0  0  0
    5.6855    0.7074   22.1002 H   0  0  0  0  0  0  0  0  0  0  0  0
    3.6634    2.0034   21.6926 H   0  0  0  0  0  0  0  0  0  0  0  0
    3.0111    2.6563   19.3629 H   0  0  0  0  0  0  0  0  0  0  0  0
    4.4370    1.9522   17.4626 H   0  0  0  0  0  0  0  0  0  0  0  0
   10.8985   -4.3115   26.8085 H   0  0  0  0  0  0  0  0  0  0  0  0
   10.4915   -6.0334   26.6323 H   0  0  0  0  0  0  0  0  0  0  0  0
    8.4327   -6.6456   25.2620 H   0  0  0  0  0  0  0  0  0  0  0  0
    7.4725   -5.3241   24.5619 H   0  0  0  0  0  0  0  0  0  0  0  0
    9.7636   -5.2398   28.8419 H   0  0  0  0  0  0  0  0  0  0  0  0
    8.8236   -3.9268   28.1248 H   0  0  0  0  0  0  0  0  0  0  0  0
    6.8339   -4.5337   26.8232 H   0  0  0  0  0  0  0  0  0  0  0  0
    6.4550   -6.2521   26.6643 H   0  0  0  0  0  0  0  0  0  0  0  0
    9.5786    1.2746   24.6176 H   0  0  0  0  0  0  0  0  0  0  0  0
    9.6218    2.2274   23.1337 H   0  0  0  0  0  0  0  0  0  0  0  0
    8.2565   -1.5523   21.1108 H   0  0  0  0  0  0  0  0  0  0  0  0
  1  3  2  0  0  0  0
  1  9  1  0  0  0  0
  2  4  1  0  0  0  0
  2  9  2  0  0  0  0
  3 10  1  0  0  0  0
  4 10  2  0  0  0  0
  5  6  2  0  0  0  0
  5  8  1  0  0  0  0
  6 31  1  0  0  0  0
  7  8  2  0  0  0  0
  7 31  1  0  0  0  0
  8 22  1  0  0  0  0
  9 26  1  0  0  0  0
 10 28  1  0  0  0  0
 11 12  2  0  0  0  0
 11 13  1  0  0  0  0
 11 25  1  0  0  0  0
 12 23  1  0  0  0  0
 12 27  1  0  0  0  0
 13 14  2  0  0  0  0
 14 15  1  0  0  0  0
 15 16  2  0  0  0  0
 16 25  1  0  0  0  0
 17 27  1  0  0  0  0
 17 28  1  0  0  0  0
 17 29  2  0  0  0  0
 18 20  1  0  0  0  0
 18 26  1  0  0  0  0
 19 21  1  0  0  0  0
 19 26  1  0  0  0  0
 20 30  1  0  0  0  0
 21 30  1  0  0  0  0
 22 28  1  0  0  0  0
 23 24  2  0  0  0  0
 24 25  1  0  0  0  0
  1 32  1  0  0  0  0
  2 33  1  0  0  0  0
  3 34  1  0  0  0  0
  4 35  1  0  0  0  0
  5 36  1  0  0  0  0
  6 37  1  0  0  0  0
  7 38  1  0  0  0  0
 13 39  1  0  0  0  0
 14 40  1  0  0  0  0
 15 41  1  0  0  0  0
 16 42  1  0  0  0  0
 18 43  1  0  0  0  0
 18 44  1  0  0  0  0
 19 45  1  0  0  0  0
 19 46  1  0  0  0  0
 20 47  1  0  0  0  0
 20 48  1  0  0  0  0
 21 49  1  0  0  0  0
 21 50  1  0  0  0  0
 22 51  1  0  0  0  0
 22 52  1  0  0  0  0
 27 53  1  0  0  0  0
M  END
> <clash_score>
0

> <docking_score>
-8.232762336730957

> <overlap_score>
0.9806849360466003

$$$$
BENZO_113_1
  -OEChem-08232013443D

 53 56  0     0  0  0  0  0  0999 V2000
   14.2916    1.2405   23.8360 C   0  0  0  0  0  0  0  0  0  0  0  0
    4.2750    1.7050   20.8490 C   0  0  0  0  0  0  0  0  0  0  0  0
   13.5382    0.5663   24.7968 C   0  0  0  0  0  0  0  0  0  0  0  0
   13.6520    1.9328   22.8077 C   0  0  0  0  0  0  0  0  0  0  0  0
    3.9160    2.0630   19.5520 C   0  0  0  0  0  0  0  0  0  0  0  0
    5.4210    0.9600   21.0930 C   0  0  0  0  0  0  0  0  0  0  0  0
   12.1450    0.5843   24.7295 C   0  0  0  0  0  0  0  0  0  0  0  0
   12.2589    1.9508   22.7403 C   0  0  0  0  0  0  0  0  0  0  0  0
    4.6890    1.6810   18.4640 C   0  0  0  0  0  0  0  0  0  0  0  0
    9.0720   -1.1280   24.8640 C   0  0  0  0  0  0  0  0  0  0  0  0
    9.7200   -2.2600   22.8630 C   0  0  0  0  0  0  0  0  0  0  0  0
    8.9960   -2.3380   25.5320 C   0  0  0  0  0  0  0  0  0  0  0  0
    9.6730   -3.4710   23.5300 C   0  0  0  0  0  0  0  0  0  0  0  0
    7.6390   -0.2680   18.5410 C   0  0  0  0  0  0  0  0  0  0  0  0
    6.1790    0.5730   19.9990 C   0  0  0  0  0  0  0  0  0  0  0  0
   11.5054    1.2766   23.7012 C   0  0  0  0  0  0  0  0  0  0  0  0
    5.8300    0.9190   18.6970 C   0  0  0  0  0  0  0  0  0  0  0  0
    9.3350   -1.0880   23.5010 C   0  0  0  0  0  0  0  0  0  0  0  0
    9.3070   -3.5340   24.8780 C   0  0  0  0  0  0  0  0  0  0  0  0
    7.3170   -0.1610   19.8550 C   0  0  0  0  0  0  0  0  0  0  0  0
    9.0420    0.3700   21.5280 C   0  0  0  0  0  0  0  0  0  0  0  0
    8.0128   -5.2151   26.1416 C   0  0  0  0  0  0  0  0  0  0  0  0
   10.4372   -5.5860   25.6589 C   0  0  0  0  0  0  0  0  0  0  0  0
   10.0059    1.2962   23.6279 C   0  0  0  0  0  0  0  0  0  0  0  0
    6.7580    0.3810   17.8350 N   0  0  0  0  0  0  0  0  0  0  0  0
    8.1890   -0.7180   20.8700 N   0  0  0  0  0  0  0  0  0  0  0  0
    9.4560    0.1560   22.8130 N   0  0  0  0  0  0  0  0  0  0  0  0
    9.2543   -4.7552   25.5519 N   0  0  0  0  0  0  0  0  0  0  0  0
    9.2690    1.4140   20.9380 O   0  0  0  0  0  0  0  0  0  0  0  0
   15.3763    1.2275   23.8893 H   0  0  0  0  0  0  0  0  0  0  0  0
    3.6453    2.0152   21.6831 H   0  0  0  0  0  0  0  0  0  0  0  0
   14.0360    0.0281   25.5982 H   0  0  0  0  0  0  0  0  0  0  0  0
   14.2383    2.4587   22.0601 H   0  0  0  0  0  0  0  0  0  0  0  0
    3.0147    2.6520   19.3913 H   0  0  0  0  0  0  0  0  0  0  0  0
    5.6991    0.6995   22.1042 H   0  0  0  0  0  0  0  0  0  0  0  0
   11.5661    0.0560   25.4824 H   0  0  0  0  0  0  0  0  0  0  0  0
   11.7692    2.4927   21.9356 H   0  0  0  0  0  0  0  0  0  0  0  0
    4.4051    1.9733   17.4488 H   0  0  0  0  0  0  0  0  0  0  0  0
    8.9217   -0.1995   25.4232 H   0  0  0  0  0  0  0  0  0  0  0  0
   10.0643   -2.2341   21.8254 H   0  0  0  0  0  0  0  0  0  0  0  0
    8.6893   -2.3540   26.5808 H   0  0  0  0  0  0  0  0  0  0  0  0
    9.9257   -4.3898   22.9921 H   0  0  0  0  0  0  0  0  0  0  0  0
    8.4825   -0.7940   18.0623 H   0  0  0  0  0  0  0  0  0  0  0  0
    8.1744   -6.1904   26.6238 H   0  0  0  0  0  0  0  0  0  0  0  0
    7.6718   -4.4870   26.8924 H   0  0  0  0  0  0  0  0  0  0  0  0
    7.2494   -5.3166   25.3561 H   0  0  0  0  0  0  0  0  0  0  0  0
   10.1946   -6.4996   26.2216 H   0  0  0  0  0  0  0  0  0  0  0  0
   10.7865   -5.8578   24.6518 H   0  0  0  0  0  0  0  0  0  0  0  0
   11.2285   -5.0312   26.1842 H   0  0  0  0  0  0  0  0  0  0  0  0
    9.5695    1.2298   24.6305 H   0  0  0  0  0  0  0  0  0  0  0  0
    9.6466    2.2276   23.1778 H   0  0  0  0  0  0  0  0  0  0  0  0
    6.7266    0.4930   16.8305 H   0  0  0  0  0  0  0  0  0  0  0  0
    8.2383   -1.5634   21.0944 H   0  0  0  0  0  0  0  0  0  0  0  0
  1  3  1  0  0  0  0
  1  4  2  0  0  0  0
  2  5  1  0  0  0  0
  2  6  2  0  0  0  0
  3  7  2  0  0  0  0
  4  8  1  0  0  0  0
  5  9  2  0  0  0  0
  6 15  1  0  0  0  0
  7 16  1  0  0  0  0
  8 16  2  0  0  0  0
  9 17  1  0  0  0  0
 10 12  2  0  0  0  0
 10 18  1  0  0  0  0
 11 13  1  0  0  0  0
 11 18  2  0  0  0  0
 12 19  1  0  0  0  0
 13 19  2  0  0  0  0
 14 20  2  0  0  0  0
 14 25  1  0  0  0  0
 15 17  2  0  0  0  0
 15 20  1  0  0  0  0
 16 24  1  0  0  0  0
 17 25  1  0  0  0  0
 18 27  1  0  0  0  0
 19 28  1  0  0  0  0
 20 26  1  0  0  0  0
 21 26  1  0  0  0  0
 21 27  1  0  0  0  0
 21 29  2  0  0  0  0
 22 28  1  0  0  0  0
 23 28  1  0  0  0  0
 24 27  1  0  0  0  0
  1 30  1  0  0  0  0
  2 31  1  0  0  0  0
  3 32  1  0  0  0  0
  4 33  1  0  0  0  0
  5 34  1  0  0  0  0
  6 35  1  0  0  0  0
  7 36  1  0  0  0  0
  8 37  1  0  0  0  0
  9 38  1  0  0  0  0
 10 39  1  0  0  0  0
 11 40  1  0  0  0  0
 12 41  1  0  0  0  0
 13 42  1  0  0  0  0
 14 43  1  0  0  0  0
 22 44  1  0  0  0  0
 22 45  1  0  0  0  0
 22 46  1  0  0  0  0
 23 47  1  0  0  0  0
 23 48  1  0  0  0  0
 23 49  1  0  0  0  0
 24 50  1  0  0  0  0
 24 51  1  0  0  0  0
 25 52  1  0  0  0  0
 26 53  1  0  0  0  0
M  END
> <clash_score>
0

> <docking_score>
-9.038724899291992

> <overlap_score>
0.9775222539901733

$$$$
BENZO_112_1
  -OEChem-08232013443D

 50 53  0     0  0  0  0  0  0999 V2000
    4.2750    1.7050   20.8490 C   0  0  0  0  0  0  0  0  0  0  0  0
    3.9160    2.0630   19.5520 C   0  0  0  0  0  0  0  0  0  0  0  0
    5.4210    0.9600   21.0930 C   0  0  0  0  0  0  0  0  0  0  0  0
    4.6890    1.6810   18.4640 C   0  0  0  0  0  0  0  0  0  0  0  0
    9.0720   -1.1280   24.8640 C   0  0  0  0  0  0  0  0  0  0  0  0
    9.7200   -2.2600   22.8630 C   0  0  0  0  0  0  0  0  0  0  0  0
    8.9960   -2.3380   25.5320 C   0  0  0  0  0  0  0  0  0  0  0  0
    9.6730   -3.4710   23.5300 C   0  0  0  0  0  0  0  0  0  0  0  0
   12.3103    2.4459   23.8230 C   0  0  0  0  0  0  0  0  0  0  0  0
    7.6390   -0.2680   18.5410 C   0  0  0  0  0  0  0  0  0  0  0  0
   13.6541    2.1467   23.8683 C   0  0  0  0  0  0  0  0  0  0  0  0
   12.2649    0.1280   23.6577 C   0  0  0  0  0  0  0  0  0  0  0  0
    6.1790    0.5730   19.9990 C   0  0  0  0  0  0  0  0  0  0  0  0
   11.5054    1.2766   23.7012 C   0  0  0  0  0  0  0  0  0  0  0  0
    5.8300    0.9190   18.6970 C   0  0  0  0  0  0  0  0  0  0  0  0
    9.3350   -1.0880   23.5010 C   0  0  0  0  0  0  0  0  0  0  0  0
    9.3070   -3.5340   24.8780 C   0  0  0  0  0  0  0  0  0  0  0  0
    7.3170   -0.1610   19.8550 C   0  0  0  0  0  0  0  0  0  0  0  0
    9.0420    0.3700   21.5280 C   0  0  0  0  0  0  0  0  0  0  0  0
    8.0128   -5.2151   26.1416 C   0  0  0  0  0  0  0  0  0  0  0  0
   10.4372   -5.5860   25.6589 C   0  0  0  0  0  0  0  0  0  0  0  0
   10.0059    1.2962   23.6279 C   0  0  0  0  0  0  0  0  0  0  0  0
    6.7580    0.3810   17.8350 N   0  0  0  0  0  0  0  0  0  0  0  0
    8.1890   -0.7180   20.8700 N   0  0  0  0  0  0  0  0  0  0  0  0
    9.4560    0.1560   22.8130 N   0  0  0  0  0  0  0  0  0  0  0  0
    9.2543   -4.7552   25.5519 N   0  0  0  0  0  0  0  0  0  0  0  0
    9.2690    1.4140   20.9380 O   0  0  0  0  0  0  0  0  0  0  0  0
   13.9410    0.4617   23.7640 S   0  0  0  0  0  0  0  0  0  0  0  0
    3.6453    2.0152   21.6831 H   0  0  0  0  0  0  0  0  0  0  0  0
    3.0147    2.6520   19.3913 H   0  0  0  0  0  0  0  0  0  0  0  0
    5.6991    0.6995   22.1042 H   0  0  0  0  0  0  0  0  0  0  0  0
    4.4051    1.9733   17.4488 H   0  0  0  0  0  0  0  0  0  0  0  0
    8.9217   -0.1995   25.4232 H   0  0  0  0  0  0  0  0  0  0  0  0
   10.0643   -2.2341   21.8254 H   0  0  0  0  0  0  0  0  0  0  0  0
    8.6893   -2.3540   26.5808 H   0  0  0  0  0  0  0  0  0  0  0  0
    9.9257   -4.3898   22.9921 H   0  0  0  0  0  0  0  0  0  0  0  0
   11.9272    3.4573   23.8748 H   0  0  0  0  0  0  0  0  0  0  0  0
    8.4825   -0.7940   18.0623 H   0  0  0  0  0  0  0  0  0  0  0  0
   14.4812    2.8369   23.9569 H   0  0  0  0  0  0  0  0  0  0  0  0
   11.9198   -0.8927   23.5676 H   0  0  0  0  0  0  0  0  0  0  0  0
    8.1744   -6.1904   26.6238 H   0  0  0  0  0  0  0  0  0  0  0  0
    7.6718   -4.4870   26.8924 H   0  0  0  0  0  0  0  0  0  0  0  0
    7.2494   -5.3166   25.3561 H   0  0  0  0  0  0  0  0  0  0  0  0
   10.1946   -6.4996   26.2216 H   0  0  0  0  0  0  0  0  0  0  0  0
   10.7865   -5.8578   24.6518 H   0  0  0  0  0  0  0  0  0  0  0  0
   11.2285   -5.0312   26.1842 H   0  0  0  0  0  0  0  0  0  0  0  0
    9.5695    1.2298   24.6305 H   0  0  0  0  0  0  0  0  0  0  0  0
    9.6466    2.2276   23.1778 H   0  0  0  0  0  0  0  0  0  0  0  0
    6.7266    0.4930   16.8305 H   0  0  0  0  0  0  0  0  0  0  0  0
    8.2383   -1.5634   21.0944 H   0  0  0  0  0  0  0  0  0  0  0  0
  1  2  1  0  0  0  0
  1  3  2  0  0  0  0
  2  4  2  0  0  0  0
  3 13  1  0  0  0  0
  4 15  1  0  0  0  0
  5  7  2  0  0  0  0
  5 16  1  0  0  0  0
  6  8  1  0  0  0  0
  6 16  2  0  0  0  0
  7 17  1  0  0  0  0
  8 17  2  0  0  0  0
  9 11  2  0  0  0  0
  9 14  1  0  0  0  0
 10 18  2  0  0  0  0
 10 23  1  0  0  0  0
 11 28  1  0  0  0  0
 12 14  2  0  0  0  0
 12 28  1  0  0  0  0
 13 15  2  0  0  0  0
 13 18  1  0  0  0  0
 14 22  1  0  0  0  0
 15 23  1  0  0  0  0
 16 25  1  0  0  0  0
 17 26  1  0  0  0  0
 18 24  1  0  0  0  0
 19 24  1  0  0  0  0
 19 25  1  0  0  0  0
 19 27  2  0  0  0  0
 20 26  1  0  0  0  0
 21 26  1  0  0  0  0
 22 25  1  0  0  0  0
  1 29  1  0  0  0  0
  2 30  1  0  0  0  0
  3 31  1  0  0  0  0
  4 32  1  0  0  0  0
  5 33  1  0  0  0  0
  6 34  1  0  0  0  0
  7 35  1  0  0  0  0
  8 36  1  0  0  0  0
  9 37  1  0  0  0  0
 10 38  1  0  0  0  0
 11 39  1  0  0  0  0
 12 40  1  0  0  0  0
 20 41  1  0  0  0  0
 20 42  1  0  0  0  0
 20 43  1  0  0  0  0
 21 44  1  0  0  0  0
 21 45  1  0  0  0  0
 21 46  1  0  0  0  0
 22 47  1  0  0  0  0
 22 48  1  0  0  0  0
 23 49  1  0  0  0  0
 24 50  1  0  0  0  0
M  END
> <clash_score>
0

> <docking_score>
-8.099203109741211

> <overlap_score>
0.9643486142158508

$$$$
BENZO_111_1
  -OEChem-08232013443D

 56 60  0     0  0  0  0  0  0999 V2000
    8.9960   -2.3380   25.5320 C   0  0  0  0  0  0  0  0  0  0  0  0
    9.6730   -3.4710   23.5300 C   0  0  0  0  0  0  0  0  0  0  0  0
    9.0720   -1.1280   24.8640 C   0  0  0  0  0  0  0  0  0  0  0  0
    9.7200   -2.2600   22.8630 C   0  0  0  0  0  0  0  0  0  0  0  0
   12.3908    2.1640   22.9538 C   0  0  0  0  0  0  0  0  0  0  0  0
   12.3238    0.5511   24.4468 C   0  0  0  0  0  0  0  0  0  0  0  0
   11.5063    1.3374   23.6723 C   0  0  0  0  0  0  0  0  0  0  0  0
    9.3070   -3.5340   24.8780 C   0  0  0  0  0  0  0  0  0  0  0  0
    9.3350   -1.0880   23.5010 C   0  0  0  0  0  0  0  0  0  0  0  0
    6.1790    0.5730   19.9990 C   0  0  0  0  0  0  0  0  0  0  0  0
    7.3170   -0.1610   19.8550 C   0  0  0  0  0  0  0  0  0  0  0  0
    5.4210    0.9600   21.0930 C   0  0  0  0  0  0  0  0  0  0  0  0
    4.2750    1.7050   20.8490 C   0  0  0  0  0  0  0  0  0  0  0  0
    3.9160    2.0630   19.5520 C   0  0  0  0  0  0  0  0  0  0  0  0
    4.6890    1.6810   18.4640 C   0  0  0  0  0  0  0  0  0  0  0  0
    9.0420    0.3700   21.5280 C   0  0  0  0  0  0  0  0  0  0  0  0
   10.0771   -5.0255   26.7193 C   0  0  0  0  0  0  0  0  0  0  0  0
    8.0927   -5.6195   25.4071 C   0  0  0  0  0  0  0  0  0  0  0  0
    9.1933   -4.9427   27.9592 C   0  0  0  0  0  0  0  0  0  0  0  0
    7.2756   -5.5290   26.6967 C   0  0  0  0  0  0  0  0  0  0  0  0
   14.8092    0.3979   24.7260 C   0  0  0  0  0  0  0  0  0  0  0  0
   10.0063    1.3195   23.6101 C   0  0  0  0  0  0  0  0  0  0  0  0
   13.6720    1.9251   23.2460 N   0  0  0  0  0  0  0  0  0  0  0  0
    7.6390   -0.2680   18.5410 N   0  0  0  0  0  0  0  0  0  0  0  0
    6.7580    0.3810   17.8350 N   0  0  0  0  0  0  0  0  0  0  0  0
   13.5986    0.9395   24.1567 N   0  0  0  0  0  0  0  0  0  0  0  0
    5.8300    0.9190   18.6970 N   0  0  0  0  0  0  0  0  0  0  0  0
    9.2563   -4.7368   25.5413 N   0  0  0  0  0  0  0  0  0  0  0  0
    8.1890   -0.7180   20.8700 N   0  0  0  0  0  0  0  0  0  0  0  0
    9.4560    0.1560   22.8130 N   0  0  0  0  0  0  0  0  0  0  0  0
    9.2690    1.4140   20.9380 O   0  0  0  0  0  0  0  0  0  0  0  0
    8.0883   -5.8459   27.8325 O   0  0  0  0  0  0  0  0  0  0  0  0
    8.6905   -2.3533   26.5810 H   0  0  0  0  0  0  0  0  0  0  0  0
    9.9266   -4.3896   22.9917 H   0  0  0  0  0  0  0  0  0  0  0  0
    8.9233   -0.1992   25.4232 H   0  0  0  0  0  0  0  0  0  0  0  0
   10.0650   -2.2330   21.8256 H   0  0  0  0  0  0  0  0  0  0  0  0
   12.1576    2.9318   22.2297 H   0  0  0  0  0  0  0  0  0  0  0  0
   12.1121   -0.2315   25.1628 H   0  0  0  0  0  0  0  0  0  0  0  0
    5.6855    0.7074   22.1002 H   0  0  0  0  0  0  0  0  0  0  0  0
    3.6634    2.0034   21.6926 H   0  0  0  0  0  0  0  0  0  0  0  0
    3.0111    2.6563   19.3629 H   0  0  0  0  0  0  0  0  0  0  0  0
    4.4370    1.9522   17.4626 H   0  0  0  0  0  0  0  0  0  0  0  0
   10.8985   -4.3115   26.8085 H   0  0  0  0  0  0  0  0  0  0  0  0
   10.4915   -6.0334   26.6323 H   0  0  0  0  0  0  0  0  0  0  0  0
    8.4327   -6.6456   25.2620 H   0  0  0  0  0  0  0  0  0  0  0  0
    7.4725   -5.3241   24.5619 H   0  0  0  0  0  0  0  0  0  0  0  0
    9.7636   -5.2398   28.8419 H   0  0  0  0  0  0  0  0  0  0  0  0
    8.8236   -3.9268   28.1248 H   0  0  0  0  0  0  0  0  0  0  0  0
    6.8339   -4.5337   26.8232 H   0  0  0  0  0  0  0  0  0  0  0  0
    6.4550   -6.2521   26.6643 H   0  0  0  0  0  0  0  0  0  0  0  0
   15.1341   -0.4353   24.0973 H   0  0  0  0  0  0  0  0  0  0  0  0
   15.5770    1.1759   24.7564 H   0  0  0  0  0  0  0  0  0  0  0  0
   14.6073    0.0539   25.7442 H   0  0  0  0  0  0  0  0  0  0  0  0
    9.5786    1.2746   24.6176 H   0  0  0  0  0  0  0  0  0  0  0  0
    9.6218    2.2274   23.1337 H   0  0  0  0  0  0  0  0  0  0  0  0
    8.2565   -1.5523   21.1108 H   0  0  0  0  0  0  0  0  0  0  0  0
  1  3  2  0  0  0  0
  1  8  1  0  0  0  0
  2  4  1  0  0  0  0
  2  8  2  0  0  0  0
  3  9  1  0  0  0  0
  4  9  2  0  0  0  0
  5  7  1  0  0  0  0
  5 23  2  0  0  0  0
  6  7  2  0  0  0  0
  6 26  1  0  0  0  0
  7 22  1  0  0  0  0
  8 28  1  0  0  0  0
  9 30  1  0  0  0  0
 10 11  2  0  0  0  0
 10 12  1  0  0  0  0
 10 27  1  0  0  0  0
 11 24  1  0  0  0  0
 11 29  1  0  0  0  0
 12 13  2  0  0  0  0
 13 14  1  0  0  0  0
 14 15  2  0  0  0  0
 15 27  1  0  0  0  0
 16 29  1  0  0  0  0
 16 30  1  0  0  0  0
 16 31  2  0  0  0  0
 17 19  1  0  0  0  0
 17 28  1  0  0  0  0
 18 20  1  0  0  0  0
 18 28  1  0  0  0  0
 19 32  1  0  0  0  0
 20 32  1  0  0  0  0
 21 26  1  0  0  0  0
 22 30  1  0  0  0  0
 23 26  1  0  0  0  0
 24 25  2  0  0  0  0
 25 27  1  0  0  0  0
  1 33  1  0  0  0  0
  2 34  1  0  0  0  0
  3 35  1  0  0  0  0
  4 36  1  0  0  0  0
  5 37  1  0  0  0  0
  6 38  1  0  0  0  0
 12 39  1  0  0  0  0
 13 40  1  0  0  0  0
 14 41  1  0  0  0  0
 15 42  1  0  0  0  0
 17 43  1  0  0  0  0
 17 44  1  0  0  0  0
 18 45  1  0  0  0  0
 18 46  1  0  0  0  0
 19 47  1  0  0  0  0
 19 48  1  0  0  0  0
 20 49  1  0  0  0  0
 20 50  1  0  0  0  0
 21 51  1  0  0  0  0
 21 52  1  0  0  0  0
 21 53  1  0  0  0  0
 22 54  1  0  0  0  0
 22 55  1  0  0  0  0
 29 56  1  0  0  0  0
M  END
> <clash_score>
0

> <docking_score>
-8.782339096069336

> <overlap_score>
0.9925914406776428

$$$$
BENZO_110_1
  -OEChem-08232013443D

 56 60  0     0  0  0  0  0  0999 V2000
   13.5726    0.4739   24.5786 C   0  0  0  0  0  0  0  0  0  0  0  0
   12.1790    0.4585   24.5212 C   0  0  0  0  0  0  0  0  0  0  0  0
    8.9960   -2.3380   25.5320 C   0  0  0  0  0  0  0  0  0  0  0  0
    9.6730   -3.4710   23.5300 C   0  0  0  0  0  0  0  0  0  0  0  0
    9.0720   -1.1280   24.8640 C   0  0  0  0  0  0  0  0  0  0  0  0
    9.7200   -2.2600   22.8630 C   0  0  0  0  0  0  0  0  0  0  0  0
   14.2935    1.3683   23.7873 C   0  0  0  0  0  0  0  0  0  0  0  0
   12.2271    2.2318   22.8810 C   0  0  0  0  0  0  0  0  0  0  0  0
   11.5063    1.3374   23.6723 C   0  0  0  0  0  0  0  0  0  0  0  0
    9.3070   -3.5340   24.8780 C   0  0  0  0  0  0  0  0  0  0  0  0
    9.3350   -1.0880   23.5010 C   0  0  0  0  0  0  0  0  0  0  0  0
   13.6207    2.2472   22.9385 C   0  0  0  0  0  0  0  0  0  0  0  0
    6.1790    0.5730   19.9990 C   0  0  0  0  0  0  0  0  0  0  0  0
    7.3170   -0.1610   19.8550 C   0  0  0  0  0  0  0  0  0  0  0  0
    5.4210    0.9600   21.0930 C   0  0  0  0  0  0  0  0  0  0  0  0
    4.2750    1.7050   20.8490 C   0  0  0  0  0  0  0  0  0  0  0  0
    3.9160    2.0630   19.5520 C   0  0  0  0  0  0  0  0  0  0  0  0
    4.6890    1.6810   18.4640 C   0  0  0  0  0  0  0  0  0  0  0  0
    9.0420    0.3700   21.5280 C   0  0  0  0  0  0  0  0  0  0  0  0
   10.0771   -5.0255   26.7193 C   0  0  0  0  0  0  0  0  0  0  0  0
    8.0927   -5.6195   25.4071 C   0  0  0  0  0  0  0  0  0  0  0  0
    9.1933   -4.9427   27.9592 C   0  0  0  0  0  0  0  0  0  0  0  0
    7.2756   -5.5290   26.6967 C   0  0  0  0  0  0  0  0  0  0  0  0
   10.0063    1.3195   23.6101 C   0  0  0  0  0  0  0  0  0  0  0  0
    7.6390   -0.2680   18.5410 N   0  0  0  0  0  0  0  0  0  0  0  0
    6.7580    0.3810   17.8350 N   0  0  0  0  0  0  0  0  0  0  0  0
    5.8300    0.9190   18.6970 N   0  0  0  0  0  0  0  0  0  0  0  0
    9.2563   -4.7368   25.5413 N   0  0  0  0  0  0  0  0  0  0  0  0
    8.1890   -0.7180   20.8700 N   0  0  0  0  0  0  0  0  0  0  0  0
    9.4560    0.1560   22.8130 N   0  0  0  0  0  0  0  0  0  0  0  0
    9.2690    1.4140   20.9380 O   0  0  0  0  0  0  0  0  0  0  0  0
    8.0883   -5.8459   27.8325 O   0  0  0  0  0  0  0  0  0  0  0  0
   14.5107    3.3497   21.9616 Cl  0  0  0  0  0  0  0  0  0  0  0  0
   14.0961   -0.2108   25.2397 H   0  0  0  0  0  0  0  0  0  0  0  0
   11.6255   -0.2418   25.1412 H   0  0  0  0  0  0  0  0  0  0  0  0
    8.6905   -2.3533   26.5810 H   0  0  0  0  0  0  0  0  0  0  0  0
    9.9266   -4.3896   22.9917 H   0  0  0  0  0  0  0  0  0  0  0  0
    8.9233   -0.1992   25.4232 H   0  0  0  0  0  0  0  0  0  0  0  0
   10.0650   -2.2330   21.8256 H   0  0  0  0  0  0  0  0  0  0  0  0
   15.3793    1.3689   23.8423 H   0  0  0  0  0  0  0  0  0  0  0  0
   11.6979    2.9154   22.2211 H   0  0  0  0  0  0  0  0  0  0  0  0
    5.6855    0.7074   22.1002 H   0  0  0  0  0  0  0  0  0  0  0  0
    3.6634    2.0034   21.6926 H   0  0  0  0  0  0  0  0  0  0  0  0
    3.0111    2.6563   19.3629 H   0  0  0  0  0  0  0  0  0  0  0  0
    4.4370    1.9522   17.4626 H   0  0  0  0  0  0  0  0  0  0  0  0
   10.8985   -4.3115   26.8085 H   0  0  0  0  0  0  0  0  0  0  0  0
   10.4915   -6.0334   26.6323 H   0  0  0  0  0  0  0  0  0  0  0  0
    8.4327   -6.6456   25.2620 H   0  0  0  0  0  0  0  0  0  0  0  0
    7.4725   -5.3241   24.5619 H   0  0  0  0  0  0  0  0  0  0  0  0
    9.7636   -5.2398   28.8419 H   0  0  0  0  0  0  0  0  0  0  0  0
    8.8236   -3.9268   28.1248 H   0  0  0  0  0  0  0  0  0  0  0  0
    6.8339   -4.5337   26.8232 H   0  0  0  0  0  0  0  0  0  0  0  0
    6.4550   -6.2521   26.6643 H   0  0  0  0  0  0  0  0  0  0  0  0
    9.5786    1.2746   24.6176 H   0  0  0  0  0  0  0  0  0  0  0  0
    9.6218    2.2274   23.1337 H   0  0  0  0  0  0  0  0  0  0  0  0
    8.2565   -1.5523   21.1108 H   0  0  0  0  0  0  0  0  0  0  0  0
  1  2  2  0  0  0  0
  1  7  1  0  0  0  0
  2  9  1  0  0  0  0
  3  5  2  0  0  0  0
  3 10  1  0  0  0  0
  4  6  1  0  0  0  0
  4 10  2  0  0  0  0
  5 11  1  0  0  0  0
  6 11  2  0  0  0  0
  7 12  2  0  0  0  0
  8  9  2  0  0  0  0
  8 12  1  0  0  0  0
  9 24  1  0  0  0  0
 10 28  1  0  0  0  0
 11 30  1  0  0  0  0
 12 33  1  0  0  0  0
 13 14  2  0  0  0  0
 13 15  1  0  0  0  0
 13 27  1  0  0  0  0
 14 25  1  0  0  0  0
 14 29  1  0  0  0  0
 15 16  2  0  0  0  0
 16 17  1  0  0  0  0
 17 18  2  0  0  0  0
 18 27  1  0  0  0  0
 19 29  1  0  0  0  0
 19 30  1  0  0  0  0
 19 31  2  0  0  0  0
 20 22  1  0  0  0  0
 20 28  1  0  0  0  0
 21 23  1  0  0  0  0
 21 28  1  0  0  0  0
 22 32  1  0  0  0  0
 23 32  1  0  0  0  0
 24 30  1  0  0  0  0
 25 26  2  0  0  0  0
 26 27  1  0  0  0  0
  1 34  1  0  0  0  0
  2 35  1  0  0  0  0
  3 36  1  0  0  0  0
  4 37  1  0  0  0  0
  5 38  1  0  0  0  0
  6 39  1  0  0  0  0
  7 40  1  0  0  0  0
  8 41  1  0  0  0  0
 15 42  1  0  0  0  0
 16 43  1  0  0  0  0
 17 44  1  0  0  0  0
 18 45  1  0  0  0  0
 20 46  1  0  0  0  0
 20 47  1  0  0  0  0
 21 48  1  0  0  0  0
 21 49  1  0  0  0  0
 22 50  1  0  0  0  0
 22 51  1  0  0  0  0
 23 52  1  0  0  0  0
 23 53  1  0  0  0  0
 24 54  1  0  0  0  0
 24 55  1  0  0  0  0
 29 56  1  0  0  0  0
M  END
> <clash_score>
0

> <docking_score>
-7.916258811950684

> <overlap_score>
1.0027565956115723

$$$$
BENZO_115_1
  -OEChem-08232013443D

 53 56  0     0  0  0  0  0  0999 V2000
    4.2750    1.7050   20.8490 C   0  0  0  0  0  0  0  0  0  0  0  0
    3.9160    2.0630   19.5520 C   0  0  0  0  0  0  0  0  0  0  0  0
    5.4210    0.9600   21.0930 C   0  0  0  0  0  0  0  0  0  0  0  0
    4.6890    1.6810   18.4640 C   0  0  0  0  0  0  0  0  0  0  0  0
    9.0720   -1.1280   24.8640 C   0  0  0  0  0  0  0  0  0  0  0  0
    9.7200   -2.2600   22.8630 C   0  0  0  0  0  0  0  0  0  0  0  0
    8.9960   -2.3380   25.5320 C   0  0  0  0  0  0  0  0  0  0  0  0
    9.6730   -3.4710   23.5300 C   0  0  0  0  0  0  0  0  0  0  0  0
   12.4146    2.1041   23.0154 C   0  0  0  0  0  0  0  0  0  0  0  0
   12.2981    0.4470   24.4561 C   0  0  0  0  0  0  0  0  0  0  0  0
    7.6390   -0.2680   18.5410 C   0  0  0  0  0  0  0  0  0  0  0  0
    6.1790    0.5730   19.9990 C   0  0  0  0  0  0  0  0  0  0  0  0
   11.5054    1.2766   23.7012 C   0  0  0  0  0  0  0  0  0  0  0  0
    5.8300    0.9190   18.6970 C   0  0  0  0  0  0  0  0  0  0  0  0
    9.3350   -1.0880   23.5010 C   0  0  0  0  0  0  0  0  0  0  0  0
    9.3070   -3.5340   24.8780 C   0  0  0  0  0  0  0  0  0  0  0  0
    7.3170   -0.1610   19.8550 C   0  0  0  0  0  0  0  0  0  0  0  0
    9.0420    0.3700   21.5280 C   0  0  0  0  0  0  0  0  0  0  0  0
   14.7770    0.2262   24.7476 C   0  0  0  0  0  0  0  0  0  0  0  0
    8.0128   -5.2151   26.1416 C   0  0  0  0  0  0  0  0  0  0  0  0
   10.4372   -5.5860   25.6589 C   0  0  0  0  0  0  0  0  0  0  0  0
   10.0059    1.2962   23.6279 C   0  0  0  0  0  0  0  0  0  0  0  0
   13.6876    1.8257   23.3088 N   0  0  0  0  0  0  0  0  0  0  0  0
    6.7580    0.3810   17.8350 N   0  0  0  0  0  0  0  0  0  0  0  0
   13.5839    0.8141   24.1874 N   0  0  0  0  0  0  0  0  0  0  0  0
    8.1890   -0.7180   20.8700 N   0  0  0  0  0  0  0  0  0  0  0  0
    9.4560    0.1560   22.8130 N   0  0  0  0  0  0  0  0  0  0  0  0
    9.2543   -4.7552   25.5519 N   0  0  0  0  0  0  0  0  0  0  0  0
    9.2690    1.4140   20.9380 O   0  0  0  0  0  0  0  0  0  0  0  0
    3.6453    2.0152   21.6831 H   0  0  0  0  0  0  0  0  0  0  0  0
    3.0147    2.6520   19.3913 H   0  0  0  0  0  0  0  0  0  0  0  0
    5.6991    0.6995   22.1042 H   0  0  0  0  0  0  0  0  0  0  0  0
    4.4051    1.9733   17.4488 H   0  0  0  0  0  0  0  0  0  0  0  0
    8.9217   -0.1995   25.4232 H   0  0  0  0  0  0  0  0  0  0  0  0
   10.0643   -2.2341   21.8254 H   0  0  0  0  0  0  0  0  0  0  0  0
    8.6893   -2.3540   26.5808 H   0  0  0  0  0  0  0  0  0  0  0  0
    9.9257   -4.3898   22.9921 H   0  0  0  0  0  0  0  0  0  0  0  0
   12.2051    2.8996   22.3144 H   0  0  0  0  0  0  0  0  0  0  0  0
   12.0626   -0.3524   25.1455 H   0  0  0  0  0  0  0  0  0  0  0  0
    8.4825   -0.7940   18.0623 H   0  0  0  0  0  0  0  0  0  0  0  0
   15.0871   -0.5943   24.0952 H   0  0  0  0  0  0  0  0  0  0  0  0
   15.5627    0.9844   24.8081 H   0  0  0  0  0  0  0  0  0  0  0  0
   14.5593   -0.1447   25.7531 H   0  0  0  0  0  0  0  0  0  0  0  0
    8.1744   -6.1904   26.6238 H   0  0  0  0  0  0  0  0  0  0  0  0
    7.6718   -4.4870   26.8924 H   0  0  0  0  0  0  0  0  0  0  0  0
    7.2494   -5.3166   25.3561 H   0  0  0  0  0  0  0  0  0  0  0  0
   10.1946   -6.4996   26.2216 H   0  0  0  0  0  0  0  0  0  0  0  0
   10.7865   -5.8578   24.6518 H   0  0  0  0  0  0  0  0  0  0  0  0
   11.2285   -5.0312   26.1842 H   0  0  0  0  0  0  0  0  0  0  0  0
    9.5695    1.2298   24.6305 H   0  0  0  0  0  0  0  0  0  0  0  0
    9.6466    2.2276   23.1778 H   0  0  0  0  0  0  0  0  0  0  0  0
    6.7266    0.4930   16.8305 H   0  0  0  0  0  0  0  0  0  0  0  0
    8.2383   -1.5634   21.0944 H   0  0  0  0  0  0  0  0  0  0  0  0
  1  2  1  0  0  0  0
  1  3  2  0  0  0  0
  2  4  2  0  0  0  0
  3 12  1  0  0  0  0
  4 14  1  0  0  0  0
  5  7  2  0  0  0  0
  5 15  1  0  0  0  0
  6  8  1  0  0  0  0
  6 15  2  0  0  0  0
  7 16  1  0  0  0  0
  8 16  2  0  0  0  0
  9 13  1  0  0  0  0
  9 23  2  0  0  0  0
 10 13  2  0  0  0  0
 10 25  1  0  0  0  0
 11 17  2  0  0  0  0
 11 24  1  0  0  0  0
 12 14  2  0  0  0  0
 12 17  1  0  0  0  0
 13 22  1  0  0  0  0
 14 24  1  0  0  0  0
 15 27  1  0  0  0  0
 16 28  1  0  0  0  0
 17 26  1  0  0  0  0
 18 26  1  0  0  0  0
 18 27  1  0  0  0  0
 18 29  2  0  0  0  0
 19 25  1  0  0  0  0
 20 28  1  0  0  0  0
 21 28  1  0  0  0  0
 22 27  1  0  0  0  0
 23 25  1  0  0  0  0
  1 30  1  0  0  0  0
  2 31  1  0  0  0  0
  3 32  1  0  0  0  0
  4 33  1  0  0  0  0
  5 34  1  0  0  0  0
  6 35  1  0  0  0  0
  7 36  1  0  0  0  0
  8 37  1  0  0  0  0
  9 38  1  0  0  0  0
 10 39  1  0  0  0  0
 11 40  1  0  0  0  0
 19 41  1  0  0  0  0
 19 42  1  0  0  0  0
 19 43  1  0  0  0  0
 20 44  1  0  0  0  0
 20 45  1  0  0  0  0
 20 46  1  0  0  0  0
 21 47  1  0  0  0  0
 21 48  1  0  0  0  0
 21 49  1  0  0  0  0
 22 50  1  0  0  0  0
 22 51  1  0  0  0  0
 24 52  1  0  0  0  0
 26 53  1  0  0  0  0
M  END
> <clash_score>
0

> <docking_score>
-8.644636154174805

> <overlap_score>
0.9774180054664612

$$$$
BENZO_114_1
  -OEChem-08232013443D

 53 56  0     0  0  0  0  0  0999 V2000
    4.2750    1.7050   20.8490 C   0  0  0  0  0  0  0  0  0  0  0  0
    3.9160    2.0630   19.5520 C   0  0  0  0  0  0  0  0  0  0  0  0
   13.6449    2.1624   23.0124 C   0  0  0  0  0  0  0  0  0  0  0  0
    5.4210    0.9600   21.0930 C   0  0  0  0  0  0  0  0  0  0  0  0
   12.2519    2.1793   22.9439 C   0  0  0  0  0  0  0  0  0  0  0  0
    4.6890    1.6810   18.4640 C   0  0  0  0  0  0  0  0  0  0  0  0
    9.0720   -1.1280   24.8640 C   0  0  0  0  0  0  0  0  0  0  0  0
    9.7200   -2.2600   22.8630 C   0  0  0  0  0  0  0  0  0  0  0  0
    8.9960   -2.3380   25.5320 C   0  0  0  0  0  0  0  0  0  0  0  0
    9.6730   -3.4710   23.5300 C   0  0  0  0  0  0  0  0  0  0  0  0
   14.2915    1.2427   23.8381 C   0  0  0  0  0  0  0  0  0  0  0  0
   12.1520    0.3569   24.5269 C   0  0  0  0  0  0  0  0  0  0  0  0
    7.6390   -0.2680   18.5410 C   0  0  0  0  0  0  0  0  0  0  0  0
    6.1790    0.5730   19.9990 C   0  0  0  0  0  0  0  0  0  0  0  0
   11.5054    1.2766   23.7012 C   0  0  0  0  0  0  0  0  0  0  0  0
    5.8300    0.9190   18.6970 C   0  0  0  0  0  0  0  0  0  0  0  0
    9.3350   -1.0880   23.5010 C   0  0  0  0  0  0  0  0  0  0  0  0
    9.3070   -3.5340   24.8780 C   0  0  0  0  0  0  0  0  0  0  0  0
    7.3170   -0.1610   19.8550 C   0  0  0  0  0  0  0  0  0  0  0  0
   13.5450    0.3400   24.5954 C   0  0  0  0  0  0  0  0  0  0  0  0
    9.0420    0.3700   21.5280 C   0  0  0  0  0  0  0  0  0  0  0  0
    8.0128   -5.2151   26.1416 C   0  0  0  0  0  0  0  0  0  0  0  0
   10.4372   -5.5860   25.6589 C   0  0  0  0  0  0  0  0  0  0  0  0
   10.0059    1.2962   23.6279 C   0  0  0  0  0  0  0  0  0  0  0  0
    6.7580    0.3810   17.8350 N   0  0  0  0  0  0  0  0  0  0  0  0
    8.1890   -0.7180   20.8700 N   0  0  0  0  0  0  0  0  0  0  0  0
    9.4560    0.1560   22.8130 N   0  0  0  0  0  0  0  0  0  0  0  0
    9.2543   -4.7552   25.5519 N   0  0  0  0  0  0  0  0  0  0  0  0
    9.2690    1.4140   20.9380 O   0  0  0  0  0  0  0  0  0  0  0  0
   14.3433   -0.7938   25.6148 Cl  0  0  0  0  0  0  0  0  0  0  0  0
    3.6453    2.0152   21.6831 H   0  0  0  0  0  0  0  0  0  0  0  0
    3.0147    2.6520   19.3913 H   0  0  0  0  0  0  0  0  0  0  0  0
   14.2258    2.8656   22.4226 H   0  0  0  0  0  0  0  0  0  0  0  0
    5.6991    0.6995   22.1042 H   0  0  0  0  0  0  0  0  0  0  0  0
   11.7565    2.8995   22.2979 H   0  0  0  0  0  0  0  0  0  0  0  0
    4.4051    1.9733   17.4488 H   0  0  0  0  0  0  0  0  0  0  0  0
    8.9217   -0.1995   25.4232 H   0  0  0  0  0  0  0  0  0  0  0  0
   10.0643   -2.2341   21.8254 H   0  0  0  0  0  0  0  0  0  0  0  0
    8.6893   -2.3540   26.5808 H   0  0  0  0  0  0  0  0  0  0  0  0
    9.9257   -4.3898   22.9921 H   0  0  0  0  0  0  0  0  0  0  0  0
   15.3779    1.2411   23.8817 H   0  0  0  0  0  0  0  0  0  0  0  0
   11.5654   -0.3452   25.1150 H   0  0  0  0  0  0  0  0  0  0  0  0
    8.4825   -0.7940   18.0623 H   0  0  0  0  0  0  0  0  0  0  0  0
    8.1744   -6.1904   26.6238 H   0  0  0  0  0  0  0  0  0  0  0  0
    7.6718   -4.4870   26.8924 H   0  0  0  0  0  0  0  0  0  0  0  0
    7.2494   -5.3166   25.3561 H   0  0  0  0  0  0  0  0  0  0  0  0
   10.1946   -6.4996   26.2216 H   0  0  0  0  0  0  0  0  0  0  0  0
   10.7865   -5.8578   24.6518 H   0  0  0  0  0  0  0  0  0  0  0  0
   11.2285   -5.0312   26.1842 H   0  0  0  0  0  0  0  0  0  0  0  0
    9.5695    1.2298   24.6305 H   0  0  0  0  0  0  0  0  0  0  0  0
    9.6466    2.2276   23.1778 H   0  0  0  0  0  0  0  0  0  0  0  0
    6.7266    0.4930   16.8305 H   0  0  0  0  0  0  0  0  0  0  0  0
    8.2383   -1.5634   21.0944 H   0  0  0  0  0  0  0  0  0  0  0  0
  1  2  1  0  0  0  0
  1  4  2  0  0  0  0
  2  6  2  0  0  0  0
  3  5  2  0  0  0  0
  3 11  1  0  0  0  0
  4 14  1  0  0  0  0
  5 15  1  0  0  0  0
  6 16  1  0  0  0  0
  7  9  2  0  0  0  0
  7 17  1  0  0  0  0
  8 10  1  0  0  0  0
  8 17  2  0  0  0  0
  9 18  1  0  0  0  0
 10 18  2  0  0  0  0
 11 20  2  0  0  0  0
 12 15  2  0  0  0  0
 12 20  1  0  0  0  0
 13 19  2  0  0  0  0
 13 25  1  0  0  0  0
 14 16  2  0  0  0  0
 14 19  1  0  0  0  0
 15 24  1  0  0  0  0
 16 25  1  0  0  0  0
 17 27  1  0  0  0  0
 18 28  1  0  0  0  0
 19 26  1  0  0  0  0
 20 30  1  0  0  0  0
 21 26  1  0  0  0  0
 21 27  1  0  0  0  0
 21 29  2  0  0  0  0
 22 28  1  0  0  0  0
 23 28  1  0  0  0  0
 24 27  1  0  0  0  0
  1 31  1  0  0  0  0
  2 32  1  0  0  0  0
  3 33  1  0  0  0  0
  4 34  1  0  0  0  0
  5 35  1  0  0  0  0
  6 36  1  0  0  0  0
  7 37  1  0  0  0  0
  8 38  1  0  0  0  0
  9 39  1  0  0  0  0
 10 40  1  0  0  0  0
 11 41  1  0  0  0  0
 12 42  1  0  0  0  0
 13 43  1  0  0  0  0
 22 44  1  0  0  0  0
 22 45  1  0  0  0  0
 22 46  1  0  0  0  0
 23 47  1  0  0  0  0
 23 48  1  0  0  0  0
 23 49  1  0  0  0  0
 24 50  1  0  0  0  0
 24 51  1  0  0  0  0
 25 52  1  0  0  0  0
 26 53  1  0  0  0  0
M  END
> <clash_score>
0.6564484085739959

> <docking_score>
-7.886445999145508

> <overlap_score>
0.9815095663070679

$$$$
BENZO_117_1
  -OEChem-08232013443D

 55 58  0     0  0  0  0  0  0999 V2000
   14.2916    1.2405   23.8360 C   0  0  0  0  0  0  0  0  0  0  0  0
    4.2750    1.7050   20.8490 C   0  0  0  0  0  0  0  0  0  0  0  0
   13.5382    0.5663   24.7968 C   0  0  0  0  0  0  0  0  0  0  0  0
   13.6520    1.9328   22.8077 C   0  0  0  0  0  0  0  0  0  0  0  0
    3.9160    2.0630   19.5520 C   0  0  0  0  0  0  0  0  0  0  0  0
    5.4210    0.9600   21.0930 C   0  0  0  0  0  0  0  0  0  0  0  0
   12.1450    0.5843   24.7295 C   0  0  0  0  0  0  0  0  0  0  0  0
   12.2589    1.9508   22.7403 C   0  0  0  0  0  0  0  0  0  0  0  0
    4.6890    1.6810   18.4640 C   0  0  0  0  0  0  0  0  0  0  0  0
    8.9960   -2.3380   25.5320 C   0  0  0  0  0  0  0  0  0  0  0  0
    9.6730   -3.4710   23.5300 C   0  0  0  0  0  0  0  0  0  0  0  0
    9.0720   -1.1280   24.8640 C   0  0  0  0  0  0  0  0  0  0  0  0
    9.7200   -2.2600   22.8630 C   0  0  0  0  0  0  0  0  0  0  0  0
    7.6390   -0.2680   18.5410 C   0  0  0  0  0  0  0  0  0  0  0  0
    6.1790    0.5730   19.9990 C   0  0  0  0  0  0  0  0  0  0  0  0
   11.5054    1.2766   23.7012 C   0  0  0  0  0  0  0  0  0  0  0  0
    5.8300    0.9190   18.6970 C   0  0  0  0  0  0  0  0  0  0  0  0
    9.3070   -3.5340   24.8780 C   0  0  0  0  0  0  0  0  0  0  0  0
    9.3350   -1.0880   23.5010 C   0  0  0  0  0  0  0  0  0  0  0  0
    7.3170   -0.1610   19.8550 C   0  0  0  0  0  0  0  0  0  0  0  0
    9.5334   -6.0236   25.0414 C   0  0  0  0  0  0  0  0  0  0  0  0
    9.0420    0.3700   21.5280 C   0  0  0  0  0  0  0  0  0  0  0  0
   10.6330   -7.3746   26.8775 C   0  0  0  0  0  0  0  0  0  0  0  0
   10.0059    1.2962   23.6279 C   0  0  0  0  0  0  0  0  0  0  0  0
    9.3523   -7.0865   26.1149 C   0  0  0  0  0  0  0  0  0  0  0  0
    6.7580    0.3810   17.8350 N   0  0  0  0  0  0  0  0  0  0  0  0
    9.2546   -4.7422   25.5438 N   0  0  0  0  0  0  0  0  0  0  0  0
    8.1890   -0.7180   20.8700 N   0  0  0  0  0  0  0  0  0  0  0  0
    9.4560    0.1560   22.8130 N   0  0  0  0  0  0  0  0  0  0  0  0
    9.8806   -6.3053   23.8992 O   0  0  0  0  0  0  0  0  0  0  0  0
    9.2690    1.4140   20.9380 O   0  0  0  0  0  0  0  0  0  0  0  0
   15.3763    1.2275   23.8893 H   0  0  0  0  0  0  0  0  0  0  0  0
    3.6453    2.0152   21.6831 H   0  0  0  0  0  0  0  0  0  0  0  0
   14.0360    0.0281   25.5982 H   0  0  0  0  0  0  0  0  0  0  0  0
   14.2383    2.4587   22.0601 H   0  0  0  0  0  0  0  0  0  0  0  0
    3.0147    2.6520   19.3913 H   0  0  0  0  0  0  0  0  0  0  0  0
    5.6991    0.6995   22.1042 H   0  0  0  0  0  0  0  0  0  0  0  0
   11.5661    0.0560   25.4824 H   0  0  0  0  0  0  0  0  0  0  0  0
   11.7692    2.4927   21.9356 H   0  0  0  0  0  0  0  0  0  0  0  0
    4.4051    1.9733   17.4488 H   0  0  0  0  0  0  0  0  0  0  0  0
    8.6895   -2.3529   26.5807 H   0  0  0  0  0  0  0  0  0  0  0  0
    9.9262   -4.3897   22.9916 H   0  0  0  0  0  0  0  0  0  0  0  0
    8.9224   -0.1998   25.4238 H   0  0  0  0  0  0  0  0  0  0  0  0
   10.0649   -2.2343   21.8258 H   0  0  0  0  0  0  0  0  0  0  0  0
    8.4825   -0.7940   18.0623 H   0  0  0  0  0  0  0  0  0  0  0  0
   11.4241   -7.7171   26.2024 H   0  0  0  0  0  0  0  0  0  0  0  0
   10.4629   -8.1531   27.6277 H   0  0  0  0  0  0  0  0  0  0  0  0
   10.9949   -6.4779   27.3912 H   0  0  0  0  0  0  0  0  0  0  0  0
    9.5695    1.2298   24.6305 H   0  0  0  0  0  0  0  0  0  0  0  0
    9.6466    2.2276   23.1778 H   0  0  0  0  0  0  0  0  0  0  0  0
    8.5795   -6.7463   26.8138 H   0  0  0  0  0  0  0  0  0  0  0  0
    8.9966   -8.0064   25.6367 H   0  0  0  0  0  0  0  0  0  0  0  0
    6.7266    0.4930   16.8305 H   0  0  0  0  0  0  0  0  0  0  0  0
    8.9776   -4.7057   26.5317 H   0  0  0  0  0  0  0  0  0  0  0  0
    8.2383   -1.5634   21.0944 H   0  0  0  0  0  0  0  0  0  0  0  0
  1  3  1  0  0  0  0
  1  4  2  0  0  0  0
  2  5  1  0  0  0  0
  2  6  2  0  0  0  0
  3  7  2  0  0  0  0
  4  8  1  0  0  0  0
  5  9  2  0  0  0  0
  6 15  1  0  0  0  0
  7 16  1  0  0  0  0
  8 16  2  0  0  0  0
  9 17  1  0  0  0  0
 10 12  2  0  0  0  0
 10 18  1  0  0  0  0
 11 13  1  0  0  0  0
 11 18  2  0  0  0  0
 12 19  1  0  0  0  0
 13 19  2  0  0  0  0
 14 20  2  0  0  0  0
 14 26  1  0  0  0  0
 15 17  2  0  0  0  0
 15 20  1  0  0  0  0
 16 24  1  0  0  0  0
 17 26  1  0  0  0  0
 18 27  1  0  0  0  0
 19 29  1  0  0  0  0
 20 28  1  0  0  0  0
 21 25  1  0  0  0  0
 21 27  1  0  0  0  0
 21 30  2  0  0  0  0
 22 28  1  0  0  0  0
 22 29  1  0  0  0  0
 22 31  2  0  0  0  0
 23 25  1  0  0  0  0
 24 29  1  0  0  0  0
  1 32  1  0  0  0  0
  2 33  1  0  0  0  0
  3 34  1  0  0  0  0
  4 35  1  0  0  0  0
  5 36  1  0  0  0  0
  6 37  1  0  0  0  0
  7 38  1  0  0  0  0
  8 39  1  0  0  0  0
  9 40  1  0  0  0  0
 10 41  1  0  0  0  0
 11 42  1  0  0  0  0
 12 43  1  0  0  0  0
 13 44  1  0  0  0  0
 14 45  1  0  0  0  0
 23 46  1  0  0  0  0
 23 47  1  0  0  0  0
 23 48  1  0  0  0  0
 24 49  1  0  0  0  0
 24 50  1  0  0  0  0
 25 51  1  0  0  0  0
 25 52  1  0  0  0  0
 26 53  1  0  0  0  0
 27 54  1  0  0  0  0
 28 55  1  0  0  0  0
M  END
> <clash_score>
1.4986599553670592

> <docking_score>
-5.844448566436768

> <overlap_score>
0.9797417521476746

$$$$
BENZO_116_1
  -OEChem-08232013443D

 52 55  0     0  0  0  0  0  0999 V2000
    4.2750    1.7050   20.8490 C   0  0  0  0  0  0  0  0  0  0  0  0
    3.9160    2.0630   19.5520 C   0  0  0  0  0  0  0  0  0  0  0  0
    5.4210    0.9600   21.0930 C   0  0  0  0  0  0  0  0  0  0  0  0
    4.6890    1.6810   18.4640 C   0  0  0  0  0  0  0  0  0  0  0  0
    8.9960   -2.3380   25.5320 C   0  0  0  0  0  0  0  0  0  0  0  0
    9.6730   -3.4710   23.5300 C   0  0  0  0  0  0  0  0  0  0  0  0
    9.0720   -1.1280   24.8640 C   0  0  0  0  0  0  0  0  0  0  0  0
    9.7200   -2.2600   22.8630 C   0  0  0  0  0  0  0  0  0  0  0  0
   12.3103    2.4459   23.8230 C   0  0  0  0  0  0  0  0  0  0  0  0
    7.6390   -0.2680   18.5410 C   0  0  0  0  0  0  0  0  0  0  0  0
   13.6541    2.1467   23.8683 C   0  0  0  0  0  0  0  0  0  0  0  0
   12.2649    0.1280   23.6577 C   0  0  0  0  0  0  0  0  0  0  0  0
    6.1790    0.5730   19.9990 C   0  0  0  0  0  0  0  0  0  0  0  0
   11.5054    1.2766   23.7012 C   0  0  0  0  0  0  0  0  0  0  0  0
    5.8300    0.9190   18.6970 C   0  0  0  0  0  0  0  0  0  0  0  0
    9.3070   -3.5340   24.8780 C   0  0  0  0  0  0  0  0  0  0  0  0
    9.3350   -1.0880   23.5010 C   0  0  0  0  0  0  0  0  0  0  0  0
    7.3170   -0.1610   19.8550 C   0  0  0  0  0  0  0  0  0  0  0  0
    9.5334   -6.0236   25.0414 C   0  0  0  0  0  0  0  0  0  0  0  0
    9.0420    0.3700   21.5280 C   0  0  0  0  0  0  0  0  0  0  0  0
   10.6330   -7.3746   26.8775 C   0  0  0  0  0  0  0  0  0  0  0  0
   10.0059    1.2962   23.6279 C   0  0  0  0  0  0  0  0  0  0  0  0
    9.3523   -7.0865   26.1149 C   0  0  0  0  0  0  0  0  0  0  0  0
    6.7580    0.3810   17.8350 N   0  0  0  0  0  0  0  0  0  0  0  0
    9.2546   -4.7422   25.5438 N   0  0  0  0  0  0  0  0  0  0  0  0
    8.1890   -0.7180   20.8700 N   0  0  0  0  0  0  0  0  0  0  0  0
    9.4560    0.1560   22.8130 N   0  0  0  0  0  0  0  0  0  0  0  0
    9.8806   -6.3053   23.8992 O   0  0  0  0  0  0  0  0  0  0  0  0
    9.2690    1.4140   20.9380 O   0  0  0  0  0  0  0  0  0  0  0  0
   13.9410    0.4617   23.7640 S   0  0  0  0  0  0  0  0  0  0  0  0
    3.6453    2.0152   21.6831 H   0  0  0  0  0  0  0  0  0  0  0  0
    3.0147    2.6520   19.3913 H   0  0  0  0  0  0  0  0  0  0  0  0
    5.6991    0.6995   22.1042 H   0  0  0  0  0  0  0  0  0  0  0  0
    4.4051    1.9733   17.4488 H   0  0  0  0  0  0  0  0  0  0  0  0
    8.6895   -2.3529   26.5807 H   0  0  0  0  0  0  0  0  0  0  0  0
    9.9262   -4.3897   22.9916 H   0  0  0  0  0  0  0  0  0  0  0  0
    8.9224   -0.1998   25.4238 H   0  0  0  0  0  0  0  0  0  0  0  0
   10.0649   -2.2343   21.8258 H   0  0  0  0  0  0  0  0  0  0  0  0
   11.9272    3.4573   23.8748 H   0  0  0  0  0  0  0  0  0  0  0  0
    8.4825   -0.7940   18.0623 H   0  0  0  0  0  0  0  0  0  0  0  0
   14.4812    2.8369   23.9569 H   0  0  0  0  0  0  0  0  0  0  0  0
   11.9198   -0.8927   23.5676 H   0  0  0  0  0  0  0  0  0  0  0  0
   11.4241   -7.7171   26.2024 H   0  0  0  0  0  0  0  0  0  0  0  0
   10.4629   -8.1531   27.6277 H   0  0  0  0  0  0  0  0  0  0  0  0
   10.9949   -6.4779   27.3912 H   0  0  0  0  0  0  0  0  0  0  0  0
    9.5695    1.2298   24.6305 H   0  0  0  0  0  0  0  0  0  0  0  0
    9.6466    2.2276   23.1778 H   0  0  0  0  0  0  0  0  0  0  0  0
    8.5795   -6.7463   26.8138 H   0  0  0  0  0  0  0  0  0  0  0  0
    8.9966   -8.0064   25.6367 H   0  0  0  0  0  0  0  0  0  0  0  0
    6.7266    0.4930   16.8305 H   0  0  0  0  0  0  0  0  0  0  0  0
    8.9776   -4.7057   26.5317 H   0  0  0  0  0  0  0  0  0  0  0  0
    8.2383   -1.5634   21.0944 H   0  0  0  0  0  0  0  0  0  0  0  0
  1  2  1  0  0  0  0
  1  3  2  0  0  0  0
  2  4  2  0  0  0  0
  3 13  1  0  0  0  0
  4 15  1  0  0  0  0
  5  7  2  0  0  0  0
  5 16  1  0  0  0  0
  6  8  1  0  0  0  0
  6 16  2  0  0  0  0
  7 17  1  0  0  0  0
  8 17  2  0  0  0  0
  9 11  2  0  0  0  0
  9 14  1  0  0  0  0
 10 18  2  0  0  0  0
 10 24  1  0  0  0  0
 11 30  1  0  0  0  0
 12 14  2  0  0  0  0
 12 30  1  0  0  0  0
 13 15  2  0  0  0  0
 13 18  1  0  0  0  0
 14 22  1  0  0  0  0
 15 24  1  0  0  0  0
 16 25  1  0  0  0  0
 17 27  1  0  0  0  0
 18 26  1  0  0  0  0
 19 23  1  0  0  0  0
 19 25  1  0  0  0  0
 19 28  2  0  0  0  0
 20 26  1  0  0  0  0
 20 27  1  0  0  0  0
 20 29  2  0  0  0  0
 21 23  1  0  0  0  0
 22 27  1  0  0  0  0
  1 31  1  0  0  0  0
  2 32  1  0  0  0  0
  3 33  1  0  0  0  0
  4 34  1  0  0  0  0
  5 35  1  0  0  0  0
  6 36  1  0  0  0  0
  7 37  1  0  0  0  0
  8 38  1  0  0  0  0
  9 39  1  0  0  0  0
 10 40  1  0  0  0  0
 11 41  1  0  0  0  0
 12 42  1  0  0  0  0
 21 43  1  0  0  0  0
 21 44  1  0  0  0  0
 21 45  1  0  0  0  0
 22 46  1  0  0  0  0
 22 47  1  0  0  0  0
 23 48  1  0  0  0  0
 23 49  1  0  0  0  0
 24 50  1  0  0  0  0
 25 51  1  0  0  0  0
 26 52  1  0  0  0  0
M  END
> <clash_score>
1.4986599553670592

> <docking_score>
-4.904929161071777

> <overlap_score>
0.9666174650192261

$$$$
BENZO_121_1
  -OEChem-08232013443D

 60 64  0     0  0  0  0  0  0999 V2000
   14.2935    1.3712   23.7867 C   0  0  0  0  0  0  0  0  0  0  0  0
    4.2750    1.7050   20.8490 C   0  0  0  0  0  0  0  0  0  0  0  0
   13.5637    0.6911   24.7616 C   0  0  0  0  0  0  0  0  0  0  0  0
   13.6297    2.0345   22.7546 C   0  0  0  0  0  0  0  0  0  0  0  0
    3.9160    2.0630   19.5520 C   0  0  0  0  0  0  0  0  0  0  0  0
    5.4210    0.9600   21.0930 C   0  0  0  0  0  0  0  0  0  0  0  0
   12.1701    0.6742   24.7044 C   0  0  0  0  0  0  0  0  0  0  0  0
   12.2361    2.0176   22.6974 C   0  0  0  0  0  0  0  0  0  0  0  0
    4.6890    1.6810   18.4640 C   0  0  0  0  0  0  0  0  0  0  0  0
    8.9960   -2.3380   25.5320 C   0  0  0  0  0  0  0  0  0  0  0  0
    9.6730   -3.4710   23.5300 C   0  0  0  0  0  0  0  0  0  0  0  0
    9.0720   -1.1280   24.8640 C   0  0  0  0  0  0  0  0  0  0  0  0
    9.7200   -2.2600   22.8630 C   0  0  0  0  0  0  0  0  0  0  0  0
    7.6390   -0.2680   18.5410 C   0  0  0  0  0  0  0  0  0  0  0  0
    6.1790    0.5730   19.9990 C   0  0  0  0  0  0  0  0  0  0  0  0
   11.5063    1.3375   23.6723 C   0  0  0  0  0  0  0  0  0  0  0  0
    5.8300    0.9190   18.6970 C   0  0  0  0  0  0  0  0  0  0  0  0
    9.3070   -3.5340   24.8780 C   0  0  0  0  0  0  0  0  0  0  0  0
    9.3350   -1.0880   23.5010 C   0  0  0  0  0  0  0  0  0  0  0  0
    7.3170   -0.1610   19.8550 C   0  0  0  0  0  0  0  0  0  0  0  0
    9.0420    0.3700   21.5280 C   0  0  0  0  0  0  0  0  0  0  0  0
    7.3635   -6.1361   27.1888 C   0  0  0  0  0  0  0  0  0  0  0  0
    8.1961   -4.9735   27.7341 C   0  0  0  0  0  0  0  0  0  0  0  0
    7.1942   -6.0394   25.6709 C   0  0  0  0  0  0  0  0  0  0  0  0
    9.5196   -4.8490   26.9797 C   0  0  0  0  0  0  0  0  0  0  0  0
    8.5442   -5.8838   24.9639 C   0  0  0  0  0  0  0  0  0  0  0  0
   10.0063    1.3195   23.6101 C   0  0  0  0  0  0  0  0  0  0  0  0
    6.7580    0.3810   17.8350 N   0  0  0  0  0  0  0  0  0  0  0  0
    9.2562   -4.7384   25.5422 N   0  0  0  0  0  0  0  0  0  0  0  0
    8.1890   -0.7180   20.8700 N   0  0  0  0  0  0  0  0  0  0  0  0
    9.4560    0.1560   22.8130 N   0  0  0  0  0  0  0  0  0  0  0  0
    9.2690    1.4140   20.9380 O   0  0  0  0  0  0  0  0  0  0  0  0
   15.3785    1.3854   23.8321 H   0  0  0  0  0  0  0  0  0  0  0  0
    3.6453    2.0152   21.6831 H   0  0  0  0  0  0  0  0  0  0  0  0
   14.0803    0.1755   25.5659 H   0  0  0  0  0  0  0  0  0  0  0  0
   14.1975    2.5650   21.9960 H   0  0  0  0  0  0  0  0  0  0  0  0
    3.0147    2.6520   19.3913 H   0  0  0  0  0  0  0  0  0  0  0  0
    5.6991    0.6995   22.1042 H   0  0  0  0  0  0  0  0  0  0  0  0
   11.6097    0.1416   25.4683 H   0  0  0  0  0  0  0  0  0  0  0  0
   11.7275    2.5370   21.8896 H   0  0  0  0  0  0  0  0  0  0  0  0
    4.4051    1.9733   17.4488 H   0  0  0  0  0  0  0  0  0  0  0  0
    8.6905   -2.3533   26.5810 H   0  0  0  0  0  0  0  0  0  0  0  0
    9.9266   -4.3896   22.9917 H   0  0  0  0  0  0  0  0  0  0  0  0
    8.9233   -0.1992   25.4231 H   0  0  0  0  0  0  0  0  0  0  0  0
   10.0650   -2.2330   21.8256 H   0  0  0  0  0  0  0  0  0  0  0  0
    8.4825   -0.7940   18.0623 H   0  0  0  0  0  0  0  0  0  0  0  0
    7.8482   -7.0901   27.4469 H   0  0  0  0  0  0  0  0  0  0  0  0
    6.3760   -6.1438   27.6724 H   0  0  0  0  0  0  0  0  0  0  0  0
    7.6307   -4.0424   27.6403 H   0  0  0  0  0  0  0  0  0  0  0  0
    8.3915   -5.1310   28.7968 H   0  0  0  0  0  0  0  0  0  0  0  0
    6.6888   -6.9376   25.3010 H   0  0  0  0  0  0  0  0  0  0  0  0
    6.5515   -5.1859   25.4257 H   0  0  0  0  0  0  0  0  0  0  0  0
   10.0492   -3.9640   27.3414 H   0  0  0  0  0  0  0  0  0  0  0  0
   10.1431   -5.7254   27.1778 H   0  0  0  0  0  0  0  0  0  0  0  0
    9.1338   -6.7931   25.0868 H   0  0  0  0  0  0  0  0  0  0  0  0
    8.3656   -5.7264   23.8998 H   0  0  0  0  0  0  0  0  0  0  0  0
    9.5785    1.2746   24.6176 H   0  0  0  0  0  0  0  0  0  0  0  0
    9.6218    2.2274   23.1337 H   0  0  0  0  0  0  0  0  0  0  0  0
    6.7266    0.4930   16.8305 H   0  0  0  0  0  0  0  0  0  0  0  0
    8.2565   -1.5523   21.1108 H   0  0  0  0  0  0  0  0  0  0  0  0
  1  3  1  0  0  0  0
  1  4  2  0  0  0  0
  2  5  1  0  0  0  0
  2  6  2  0  0  0  0
  3  7  2  0  0  0  0
  4  8  1  0  0  0  0
  5  9  2  0  0  0  0
  6 15  1  0  0  0  0
  7 16  1  0  0  0  0
  8 16  2  0  0  0  0
  9 17  1  0  0  0  0
 10 12  2  0  0  0  0
 10 18  1  0  0  0  0
 11 13  1  0  0  0  0
 11 18  2  0  0  0  0
 12 19  1  0  0  0  0
 13 19  2  0  0  0  0
 14 20  2  0  0  0  0
 14 28  1  0  0  0  0
 15 17  2  0  0  0  0
 15 20  1  0  0  0  0
 16 27  1  0  0  0  0
 17 28  1  0  0  0  0
 18 29  1  0  0  0  0
 19 31  1  0  0  0  0
 20 30  1  0  0  0  0
 21 30  1  0  0  0  0
 21 31  1  0  0  0  0
 21 32  2  0  0  0  0
 22 23  1  0  0  0  0
 22 24  1  0  0  0  0
 23 25  1  0  0  0  0
 24 26  1  0  0  0  0
 25 29  1  0  0  0  0
 26 29  1  0  0  0  0
 27 31  1  0  0  0  0
  1 33  1  0  0  0  0
  2 34  1  0  0  0  0
  3 35  1  0  0  0  0
  4 36  1  0  0  0  0
  5 37  1  0  0  0  0
  6 38  1  0  0  0  0
  7 39  1  0  0  0  0
  8 40  1  0  0  0  0
  9 41  1  0  0  0  0
 10 42  1  0  0  0  0
 11 43  1  0  0  0  0
 12 44  1  0  0  0  0
 13 45  1  0  0  0  0
 14 46  1  0  0  0  0
 22 47  1  0  0  0  0
 22 48  1  0  0  0  0
 23 49  1  0  0  0  0
 23 50  1  0  0  0  0
 24 51  1  0  0  0  0
 24 52  1  0  0  0  0
 25 53  1  0  0  0  0
 25 54  1  0  0  0  0
 26 55  1  0  0  0  0
 26 56  1  0  0  0  0
 27 57  1  0  0  0  0
 27 58  1  0  0  0  0
 28 59  1  0  0  0  0
 30 60  1  0  0  0  0
M  END
> <clash_score>
0

> <docking_score>
-8.113149642944336

> <overlap_score>
0.9949210286140442

$$$$
BENZO_118_1
  -OEChem-08232013443D

 55 58  0     0  0  0  0  0  0999 V2000
    4.2750    1.7050   20.8490 C   0  0  0  0  0  0  0  0  0  0  0  0
    3.9160    2.0630   19.5520 C   0  0  0  0  0  0  0  0  0  0  0  0
   13.6449    2.1624   23.0124 C   0  0  0  0  0  0  0  0  0  0  0  0
    5.4210    0.9600   21.0930 C   0  0  0  0  0  0  0  0  0  0  0  0
   12.2519    2.1793   22.9439 C   0  0  0  0  0  0  0  0  0  0  0  0
    4.6890    1.6810   18.4640 C   0  0  0  0  0  0  0  0  0  0  0  0
    8.9960   -2.3380   25.5320 C   0  0  0  0  0  0  0  0  0  0  0  0
    9.6730   -3.4710   23.5300 C   0  0  0  0  0  0  0  0  0  0  0  0
    9.0720   -1.1280   24.8640 C   0  0  0  0  0  0  0  0  0  0  0  0
    9.7200   -2.2600   22.8630 C   0  0  0  0  0  0  0  0  0  0  0  0
   14.2915    1.2427   23.8381 C   0  0  0  0  0  0  0  0  0  0  0  0
   12.1520    0.3569   24.5269 C   0  0  0  0  0  0  0  0  0  0  0  0
    7.6390   -0.2680   18.5410 C   0  0  0  0  0  0  0  0  0  0  0  0
    6.1790    0.5730   19.9990 C   0  0  0  0  0  0  0  0  0  0  0  0
   11.5054    1.2766   23.7012 C   0  0  0  0  0  0  0  0  0  0  0  0
    5.8300    0.9190   18.6970 C   0  0  0  0  0  0  0  0  0  0  0  0
    9.3070   -3.5340   24.8780 C   0  0  0  0  0  0  0  0  0  0  0  0
    9.3350   -1.0880   23.5010 C   0  0  0  0  0  0  0  0  0  0  0  0
    7.3170   -0.1610   19.8550 C   0  0  0  0  0  0  0  0  0  0  0  0
   13.5450    0.3400   24.5954 C   0  0  0  0  0  0  0  0  0  0  0  0
    9.5334   -6.0236   25.0414 C   0  0  0  0  0  0  0  0  0  0  0  0
    9.0420    0.3700   21.5280 C   0  0  0  0  0  0  0  0  0  0  0  0
   10.6330   -7.3746   26.8775 C   0  0  0  0  0  0  0  0  0  0  0  0
   10.0059    1.2962   23.6279 C   0  0  0  0  0  0  0  0  0  0  0  0
    9.3523   -7.0865   26.1149 C   0  0  0  0  0  0  0  0  0  0  0  0
    6.7580    0.3810   17.8350 N   0  0  0  0  0  0  0  0  0  0  0  0
    9.2546   -4.7422   25.5438 N   0  0  0  0  0  0  0  0  0  0  0  0
    8.1890   -0.7180   20.8700 N   0  0  0  0  0  0  0  0  0  0  0  0
    9.4560    0.1560   22.8130 N   0  0  0  0  0  0  0  0  0  0  0  0
    9.8806   -6.3053   23.8992 O   0  0  0  0  0  0  0  0  0  0  0  0
    9.2690    1.4140   20.9380 O   0  0  0  0  0  0  0  0  0  0  0  0
   14.3433   -0.7938   25.6148 Cl  0  0  0  0  0  0  0  0  0  0  0  0
    3.6453    2.0152   21.6831 H   0  0  0  0  0  0  0  0  0  0  0  0
    3.0147    2.6520   19.3913 H   0  0  0  0  0  0  0  0  0  0  0  0
   14.2258    2.8656   22.4226 H   0  0  0  0  0  0  0  0  0  0  0  0
    5.6991    0.6995   22.1042 H   0  0  0  0  0  0  0  0  0  0  0  0
   11.7565    2.8995   22.2979 H   0  0  0  0  0  0  0  0  0  0  0  0
    4.4051    1.9733   17.4488 H   0  0  0  0  0  0  0  0  0  0  0  0
    8.6895   -2.3529   26.5807 H   0  0  0  0  0  0  0  0  0  0  0  0
    9.9262   -4.3897   22.9916 H   0  0  0  0  0  0  0  0  0  0  0  0
    8.9224   -0.1998   25.4238 H   0  0  0  0  0  0  0  0  0  0  0  0
   10.0649   -2.2343   21.8258 H   0  0  0  0  0  0  0  0  0  0  0  0
   15.3779    1.2411   23.8817 H   0  0  0  0  0  0  0  0  0  0  0  0
   11.5654   -0.3452   25.1150 H   0  0  0  0  0  0  0  0  0  0  0  0
    8.4825   -0.7940   18.0623 H   0  0  0  0  0  0  0  0  0  0  0  0
   11.4241   -7.7171   26.2024 H   0  0  0  0  0  0  0  0  0  0  0  0
   10.4629   -8.1531   27.6277 H   0  0  0  0  0  0  0  0  0  0  0  0
   10.9949   -6.4779   27.3912 H   0  0  0  0  0  0  0  0  0  0  0  0
    9.5695    1.2298   24.6305 H   0  0  0  0  0  0  0  0  0  0  0  0
    9.6466    2.2276   23.1778 H   0  0  0  0  0  0  0  0  0  0  0  0
    8.5795   -6.7463   26.8138 H   0  0  0  0  0  0  0  0  0  0  0  0
    8.9966   -8.0064   25.6367 H   0  0  0  0  0  0  0  0  0  0  0  0
    6.7266    0.4930   16.8305 H   0  0  0  0  0  0  0  0  0  0  0  0
    8.9776   -4.7057   26.5317 H   0  0  0  0  0  0  0  0  0  0  0  0
    8.2383   -1.5634   21.0944 H   0  0  0  0  0  0  0  0  0  0  0  0
  1  2  1  0  0  0  0
  1  4  2  0  0  0  0
  2  6  2  0  0  0  0
  3  5  2  0  0  0  0
  3 11  1  0  0  0  0
  4 14  1  0  0  0  0
  5 15  1  0  0  0  0
  6 16  1  0  0  0  0
  7  9  2  0  0  0  0
  7 17  1  0  0  0  0
  8 10  1  0  0  0  0
  8 17  2  0  0  0  0
  9 18  1  0  0  0  0
 10 18  2  0  0  0  0
 11 20  2  0  0  0  0
 12 15  2  0  0  0  0
 12 20  1  0  0  0  0
 13 19  2  0  0  0  0
 13 26  1  0  0  0  0
 14 16  2  0  0  0  0
 14 19  1  0  0  0  0
 15 24  1  0  0  0  0
 16 26  1  0  0  0  0
 17 27  1  0  0  0  0
 18 29  1  0  0  0  0
 19 28  1  0  0  0  0
 20 32  1  0  0  0  0
 21 25  1  0  0  0  0
 21 27  1  0  0  0  0
 21 30  2  0  0  0  0
 22 28  1  0  0  0  0
 22 29  1  0  0  0  0
 22 31  2  0  0  0  0
 23 25  1  0  0  0  0
 24 29  1  0  0  0  0
  1 33  1  0  0  0  0
  2 34  1  0  0  0  0
  3 35  1  0  0  0  0
  4 36  1  0  0  0  0
  5 37  1  0  0  0  0
  6 38  1  0  0  0  0
  7 39  1  0  0  0  0
  8 40  1  0  0  0  0
  9 41  1  0  0  0  0
 10 42  1  0  0  0  0
 11 43  1  0  0  0  0
 12 44  1  0  0  0  0
 13 45  1  0  0  0  0
 23 46  1  0  0  0  0
 23 47  1  0  0  0  0
 23 48  1  0  0  0  0
 24 49  1  0  0  0  0
 24 50  1  0  0  0  0
 25 51  1  0  0  0  0
 25 52  1  0  0  0  0
 26 53  1  0  0  0  0
 27 54  1  0  0  0  0
 28 55  1  0  0  0  0
M  END
> <clash_score>
2.1551083639410553

> <docking_score>
-4.692169666290283

> <overlap_score>
0.9837124943733215

$$$$
BENZO_119_1
  -OEChem-08232013443D

 55 58  0     0  0  0  0  0  0999 V2000
    4.2750    1.7050   20.8490 C   0  0  0  0  0  0  0  0  0  0  0  0
    3.9160    2.0630   19.5520 C   0  0  0  0  0  0  0  0  0  0  0  0
    5.4210    0.9600   21.0930 C   0  0  0  0  0  0  0  0  0  0  0  0
    4.6890    1.6810   18.4640 C   0  0  0  0  0  0  0  0  0  0  0  0
    8.9960   -2.3380   25.5320 C   0  0  0  0  0  0  0  0  0  0  0  0
    9.6730   -3.4710   23.5300 C   0  0  0  0  0  0  0  0  0  0  0  0
    9.0720   -1.1280   24.8640 C   0  0  0  0  0  0  0  0  0  0  0  0
    9.7200   -2.2600   22.8630 C   0  0  0  0  0  0  0  0  0  0  0  0
   12.4146    2.1041   23.0154 C   0  0  0  0  0  0  0  0  0  0  0  0
   12.2981    0.4470   24.4561 C   0  0  0  0  0  0  0  0  0  0  0  0
    7.6390   -0.2680   18.5410 C   0  0  0  0  0  0  0  0  0  0  0  0
    6.1790    0.5730   19.9990 C   0  0  0  0  0  0  0  0  0  0  0  0
   11.5054    1.2766   23.7012 C   0  0  0  0  0  0  0  0  0  0  0  0
    5.8300    0.9190   18.6970 C   0  0  0  0  0  0  0  0  0  0  0  0
    9.3070   -3.5340   24.8780 C   0  0  0  0  0  0  0  0  0  0  0  0
    9.3350   -1.0880   23.5010 C   0  0  0  0  0  0  0  0  0  0  0  0
    7.3170   -0.1610   19.8550 C   0  0  0  0  0  0  0  0  0  0  0  0
    9.5334   -6.0236   25.0414 C   0  0  0  0  0  0  0  0  0  0  0  0
    9.0420    0.3700   21.5280 C   0  0  0  0  0  0  0  0  0  0  0  0
   10.6330   -7.3746   26.8775 C   0  0  0  0  0  0  0  0  0  0  0  0
   14.7770    0.2262   24.7476 C   0  0  0  0  0  0  0  0  0  0  0  0
   10.0059    1.2962   23.6279 C   0  0  0  0  0  0  0  0  0  0  0  0
    9.3523   -7.0865   26.1149 C   0  0  0  0  0  0  0  0  0  0  0  0
   13.6876    1.8257   23.3088 N   0  0  0  0  0  0  0  0  0  0  0  0
    6.7580    0.3810   17.8350 N   0  0  0  0  0  0  0  0  0  0  0  0
   13.5839    0.8141   24.1874 N   0  0  0  0  0  0  0  0  0  0  0  0
    9.2546   -4.7422   25.5438 N   0  0  0  0  0  0  0  0  0  0  0  0
    8.1890   -0.7180   20.8700 N   0  0  0  0  0  0  0  0  0  0  0  0
    9.4560    0.1560   22.8130 N   0  0  0  0  0  0  0  0  0  0  0  0
    9.8806   -6.3053   23.8992 O   0  0  0  0  0  0  0  0  0  0  0  0
    9.2690    1.4140   20.9380 O   0  0  0  0  0  0  0  0  0  0  0  0
    3.6453    2.0152   21.6831 H   0  0  0  0  0  0  0  0  0  0  0  0
    3.0147    2.6520   19.3913 H   0  0  0  0  0  0  0  0  0  0  0  0
    5.6991    0.6995   22.1042 H   0  0  0  0  0  0  0  0  0  0  0  0
    4.4051    1.9733   17.4488 H   0  0  0  0  0  0  0  0  0  0  0  0
    8.6895   -2.3529   26.5807 H   0  0  0  0  0  0  0  0  0  0  0  0
    9.9262   -4.3897   22.9916 H   0  0  0  0  0  0  0  0  0  0  0  0
    8.9224   -0.1998   25.4238 H   0  0  0  0  0  0  0  0  0  0  0  0
   10.0649   -2.2343   21.8258 H   0  0  0  0  0  0  0  0  0  0  0  0
   12.2051    2.8996   22.3144 H   0  0  0  0  0  0  0  0  0  0  0  0
   12.0626   -0.3524   25.1455 H   0  0  0  0  0  0  0  0  0  0  0  0
    8.4825   -0.7940   18.0623 H   0  0  0  0  0  0  0  0  0  0  0  0
   11.4241   -7.7171   26.2024 H   0  0  0  0  0  0  0  0  0  0  0  0
   10.4629   -8.1531   27.6277 H   0  0  0  0  0  0  0  0  0  0  0  0
   10.9949   -6.4779   27.3912 H   0  0  0  0  0  0  0  0  0  0  0  0
   15.0871   -0.5943   24.0952 H   0  0  0  0  0  0  0  0  0  0  0  0
   15.5627    0.9844   24.8081 H   0  0  0  0  0  0  0  0  0  0  0  0
   14.5593   -0.1447   25.7531 H   0  0  0  0  0  0  0  0  0  0  0  0
    9.5695    1.2298   24.6305 H   0  0  0  0  0  0  0  0  0  0  0  0
    9.6466    2.2276   23.1778 H   0  0  0  0  0  0  0  0  0  0  0  0
    8.5795   -6.7463   26.8138 H   0  0  0  0  0  0  0  0  0  0  0  0
    8.9966   -8.0064   25.6367 H   0  0  0  0  0  0  0  0  0  0  0  0
    6.7266    0.4930   16.8305 H   0  0  0  0  0  0  0  0  0  0  0  0
    8.9776   -4.7057   26.5317 H   0  0  0  0  0  0  0  0  0  0  0  0
    8.2383   -1.5634   21.0944 H   0  0  0  0  0  0  0  0  0  0  0  0
  1  2  1  0  0  0  0
  1  3  2  0  0  0  0
  2  4  2  0  0  0  0
  3 12  1  0  0  0  0
  4 14  1  0  0  0  0
  5  7  2  0  0  0  0
  5 15  1  0  0  0  0
  6  8  1  0  0  0  0
  6 15  2  0  0  0  0
  7 16  1  0  0  0  0
  8 16  2  0  0  0  0
  9 13  1  0  0  0  0
  9 24  2  0  0  0  0
 10 13  2  0  0  0  0
 10 26  1  0  0  0  0
 11 17  2  0  0  0  0
 11 25  1  0  0  0  0
 12 14  2  0  0  0  0
 12 17  1  0  0  0  0
 13 22  1  0  0  0  0
 14 25  1  0  0  0  0
 15 27  1  0  0  0  0
 16 29  1  0  0  0  0
 17 28  1  0  0  0  0
 18 23  1  0  0  0  0
 18 27  1  0  0  0  0
 18 30  2  0  0  0  0
 19 28  1  0  0  0  0
 19 29  1  0  0  0  0
 19 31  2  0  0  0  0
 20 23  1  0  0  0  0
 21 26  1  0  0  0  0
 22 29  1  0  0  0  0
 24 26  1  0  0  0  0
  1 32  1  0  0  0  0
  2 33  1  0  0  0  0
  3 34  1  0  0  0  0
  4 35  1  0  0  0  0
  5 36  1  0  0  0  0
  6 37  1  0  0  0  0
  7 38  1  0  0  0  0
  8 39  1  0  0  0  0
  9 40  1  0  0  0  0
 10 41  1  0  0  0  0
 11 42  1  0  0  0  0
 20 43  1  0  0  0  0
 20 44  1  0  0  0  0
 20 45  1  0  0  0  0
 21 46  1  0  0  0  0
 21 47  1  0  0  0  0
 21 48  1  0  0  0  0
 22 49  1  0  0  0  0
 22 50  1  0  0  0  0
 23 51  1  0  0  0  0
 23 52  1  0  0  0  0
 25 53  1  0  0  0  0
 27 54  1  0  0  0  0
 28 55  1  0  0  0  0
M  END
> <clash_score>
1.4986599553670592

> <docking_score>
-5.450361251831055

> <overlap_score>
0.979637086391449

$$$$
BENZO_120_1
  -OEChem-08232013443D

 57 61  0     0  0  0  0  0  0999 V2000
    4.2750    1.7050   20.8490 C   0  0  0  0  0  0  0  0  0  0  0  0
    3.9160    2.0630   19.5520 C   0  0  0  0  0  0  0  0  0  0  0  0
    5.4210    0.9600   21.0930 C   0  0  0  0  0  0  0  0  0  0  0  0
    4.6890    1.6810   18.4640 C   0  0  0  0  0  0  0  0  0  0  0  0
    8.9960   -2.3380   25.5320 C   0  0  0  0  0  0  0  0  0  0  0  0
    9.6730   -3.4710   23.5300 C   0  0  0  0  0  0  0  0  0  0  0  0
    9.0720   -1.1280   24.8640 C   0  0  0  0  0  0  0  0  0  0  0  0
    9.7200   -2.2600   22.8630 C   0  0  0  0  0  0  0  0  0  0  0  0
   12.3486    1.3935   22.5245 C   0  0  0  0  0  0  0  0  0  0  0  0
    7.6390   -0.2680   18.5410 C   0  0  0  0  0  0  0  0  0  0  0  0
   13.6840    1.3978   22.8623 C   0  0  0  0  0  0  0  0  0  0  0  0
   12.2302    1.3009   24.8439 C   0  0  0  0  0  0  0  0  0  0  0  0
    6.1790    0.5730   19.9990 C   0  0  0  0  0  0  0  0  0  0  0  0
   11.5063    1.3375   23.6723 C   0  0  0  0  0  0  0  0  0  0  0  0
    5.8300    0.9190   18.6970 C   0  0  0  0  0  0  0  0  0  0  0  0
    9.3070   -3.5340   24.8780 C   0  0  0  0  0  0  0  0  0  0  0  0
    9.3350   -1.0880   23.5010 C   0  0  0  0  0  0  0  0  0  0  0  0
    7.3170   -0.1610   19.8550 C   0  0  0  0  0  0  0  0  0  0  0  0
    9.0420    0.3700   21.5280 C   0  0  0  0  0  0  0  0  0  0  0  0
    7.6075   -7.0890   25.4795 C   0  0  0  0  0  0  0  0  0  0  0  0
    7.1392   -5.7989   26.1565 C   0  0  0  0  0  0  0  0  0  0  0  0
    8.6478   -6.8051   24.3935 C   0  0  0  0  0  0  0  0  0  0  0  0
    8.3303   -4.9793   26.6524 C   0  0  0  0  0  0  0  0  0  0  0  0
    9.8033   -5.9551   24.9309 C   0  0  0  0  0  0  0  0  0  0  0  0
   10.0063    1.3195   23.6101 C   0  0  0  0  0  0  0  0  0  0  0  0
    6.7580    0.3810   17.8350 N   0  0  0  0  0  0  0  0  0  0  0  0
    9.2562   -4.7384   25.5422 N   0  0  0  0  0  0  0  0  0  0  0  0
    8.1890   -0.7180   20.8700 N   0  0  0  0  0  0  0  0  0  0  0  0
    9.4560    0.1560   22.8130 N   0  0  0  0  0  0  0  0  0  0  0  0
    9.2690    1.4140   20.9380 O   0  0  0  0  0  0  0  0  0  0  0  0
   13.9181    1.3344   24.5574 S   0  0  0  0  0  0  0  0  0  0  0  0
    3.6453    2.0152   21.6831 H   0  0  0  0  0  0  0  0  0  0  0  0
    3.0147    2.6520   19.3913 H   0  0  0  0  0  0  0  0  0  0  0  0
    5.6991    0.6995   22.1042 H   0  0  0  0  0  0  0  0  0  0  0  0
    4.4051    1.9733   17.4488 H   0  0  0  0  0  0  0  0  0  0  0  0
    8.6905   -2.3533   26.5810 H   0  0  0  0  0  0  0  0  0  0  0  0
    9.9266   -4.3896   22.9917 H   0  0  0  0  0  0  0  0  0  0  0  0
    8.9233   -0.1992   25.4231 H   0  0  0  0  0  0  0  0  0  0  0  0
   10.0650   -2.2330   21.8256 H   0  0  0  0  0  0  0  0  0  0  0  0
   11.9970    1.4285   21.5010 H   0  0  0  0  0  0  0  0  0  0  0  0
    8.4825   -0.7940   18.0623 H   0  0  0  0  0  0  0  0  0  0  0  0
   14.5334    1.4345   22.1949 H   0  0  0  0  0  0  0  0  0  0  0  0
   11.8527    1.2549   25.8560 H   0  0  0  0  0  0  0  0  0  0  0  0
    8.0356   -7.7671   26.2335 H   0  0  0  0  0  0  0  0  0  0  0  0
    6.7454   -7.6111   25.0398 H   0  0  0  0  0  0  0  0  0  0  0  0
    6.5539   -5.2055   25.4489 H   0  0  0  0  0  0  0  0  0  0  0  0
    6.4855   -6.0435   26.9963 H   0  0  0  0  0  0  0  0  0  0  0  0
    9.0392   -7.7512   24.0053 H   0  0  0  0  0  0  0  0  0  0  0  0
    8.1711   -6.2867   23.5535 H   0  0  0  0  0  0  0  0  0  0  0  0
    7.9625   -4.0328   27.0569 H   0  0  0  0  0  0  0  0  0  0  0  0
    8.8426   -5.5180   27.4546 H   0  0  0  0  0  0  0  0  0  0  0  0
   10.3696   -6.5240   25.6692 H   0  0  0  0  0  0  0  0  0  0  0  0
   10.4665   -5.7029   24.1030 H   0  0  0  0  0  0  0  0  0  0  0  0
    9.5785    1.2746   24.6176 H   0  0  0  0  0  0  0  0  0  0  0  0
    9.6218    2.2274   23.1337 H   0  0  0  0  0  0  0  0  0  0  0  0
    6.7266    0.4930   16.8305 H   0  0  0  0  0  0  0  0  0  0  0  0
    8.2565   -1.5523   21.1108 H   0  0  0  0  0  0  0  0  0  0  0  0
  1  2  1  0  0  0  0
  1  3  2  0  0  0  0
  2  4  2  0  0  0  0
  3 13  1  0  0  0  0
  4 15  1  0  0  0  0
  5  7  2  0  0  0  0
  5 16  1  0  0  0  0
  6  8  1  0  0  0  0
  6 16  2  0  0  0  0
  7 17  1  0  0  0  0
  8 17  2  0  0  0  0
  9 11  2  0  0  0  0
  9 14  1  0  0  0  0
 10 18  2  0  0  0  0
 10 26  1  0  0  0  0
 11 31  1  0  0  0  0
 12 14  2  0  0  0  0
 12 31  1  0  0  0  0
 13 15  2  0  0  0  0
 13 18  1  0  0  0  0
 14 25  1  0  0  0  0
 15 26  1  0  0  0  0
 16 27  1  0  0  0  0
 17 29  1  0  0  0  0
 18 28  1  0  0  0  0
 19 28  1  0  0  0  0
 19 29  1  0  0  0  0
 19 30  2  0  0  0  0
 20 21  1  0  0  0  0
 20 22  1  0  0  0  0
 21 23  1  0  0  0  0
 22 24  1  0  0  0  0
 23 27  1  0  0  0  0
 24 27  1  0  0  0  0
 25 29  1  0  0  0  0
  1 32  1  0  0  0  0
  2 33  1  0  0  0  0
  3 34  1  0  0  0  0
  4 35  1  0  0  0  0
  5 36  1  0  0  0  0
  6 37  1  0  0  0  0
  7 38  1  0  0  0  0
  8 39  1  0  0  0  0
  9 40  1  0  0  0  0
 10 41  1  0  0  0  0
 11 42  1  0  0  0  0
 12 43  1  0  0  0  0
 20 44  1  0  0  0  0
 20 45  1  0  0  0  0
 21 46  1  0  0  0  0
 21 47  1  0  0  0  0
 22 48  1  0  0  0  0
 22 49  1  0  0  0  0
 23 50  1  0  0  0  0
 23 51  1  0  0  0  0
 24 52  1  0  0  0  0
 24 53  1  0  0  0  0
 25 54  1  0  0  0  0
 25 55  1  0  0  0  0
 26 56  1  0  0  0  0
 28 57  1  0  0  0  0
M  END
> <clash_score>
0

> <docking_score>
-7.636709213256836

> <overlap_score>
0.9799782037734985

$$$$
BENZO_125_1
  -OEChem-08232013443D

 48 51  0     0  0  0  0  0  0999 V2000
   14.2916    1.2405   23.8360 C   0  0  0  0  0  0  0  0  0  0  0  0
    4.2750    1.7050   20.8490 C   0  0  0  0  0  0  0  0  0  0  0  0
   13.5382    0.5663   24.7968 C   0  0  0  0  0  0  0  0  0  0  0  0
   13.6520    1.9328   22.8077 C   0  0  0  0  0  0  0  0  0  0  0  0
    3.9160    2.0630   19.5520 C   0  0  0  0  0  0  0  0  0  0  0  0
    5.4210    0.9600   21.0930 C   0  0  0  0  0  0  0  0  0  0  0  0
   12.1450    0.5843   24.7295 C   0  0  0  0  0  0  0  0  0  0  0  0
   12.2589    1.9508   22.7403 C   0  0  0  0  0  0  0  0  0  0  0  0
    8.9960   -2.3380   25.5320 C   0  0  0  0  0  0  0  0  0  0  0  0
    9.6730   -3.4710   23.5300 C   0  0  0  0  0  0  0  0  0  0  0  0
    4.6890    1.6810   18.4640 C   0  0  0  0  0  0  0  0  0  0  0  0
    9.0720   -1.1280   24.8640 C   0  0  0  0  0  0  0  0  0  0  0  0
    9.7200   -2.2600   22.8630 C   0  0  0  0  0  0  0  0  0  0  0  0
    7.6390   -0.2680   18.5410 C   0  0  0  0  0  0  0  0  0  0  0  0
    6.1790    0.5730   19.9990 C   0  0  0  0  0  0  0  0  0  0  0  0
    9.3070   -3.5340   24.8780 C   0  0  0  0  0  0  0  0  0  0  0  0
   11.5054    1.2766   23.7012 C   0  0  0  0  0  0  0  0  0  0  0  0
    5.8300    0.9190   18.6970 C   0  0  0  0  0  0  0  0  0  0  0  0
    9.3350   -1.0880   23.5010 C   0  0  0  0  0  0  0  0  0  0  0  0
    7.3170   -0.1610   19.8550 C   0  0  0  0  0  0  0  0  0  0  0  0
    9.0420    0.3700   21.5280 C   0  0  0  0  0  0  0  0  0  0  0  0
    9.2505   -4.8264   25.5904 C   0  0  0  0  0  0  0  0  0  0  0  0
   10.0059    1.2962   23.6279 C   0  0  0  0  0  0  0  0  0  0  0  0
    6.7580    0.3810   17.8350 N   0  0  0  0  0  0  0  0  0  0  0  0
    8.1890   -0.7180   20.8700 N   0  0  0  0  0  0  0  0  0  0  0  0
    9.4560    0.1560   22.8130 N   0  0  0  0  0  0  0  0  0  0  0  0
    9.2690    1.4140   20.9380 O   0  0  0  0  0  0  0  0  0  0  0  0
   15.3763    1.2275   23.8893 H   0  0  0  0  0  0  0  0  0  0  0  0
    3.6453    2.0152   21.6831 H   0  0  0  0  0  0  0  0  0  0  0  0
   14.0360    0.0281   25.5982 H   0  0  0  0  0  0  0  0  0  0  0  0
   14.2383    2.4587   22.0601 H   0  0  0  0  0  0  0  0  0  0  0  0
    3.0147    2.6520   19.3913 H   0  0  0  0  0  0  0  0  0  0  0  0
    5.6991    0.6995   22.1042 H   0  0  0  0  0  0  0  0  0  0  0  0
   11.5661    0.0560   25.4824 H   0  0  0  0  0  0  0  0  0  0  0  0
   11.7692    2.4927   21.9356 H   0  0  0  0  0  0  0  0  0  0  0  0
    8.6919   -2.3557   26.5813 H   0  0  0  0  0  0  0  0  0  0  0  0
    9.9267   -4.3907   22.9939 H   0  0  0  0  0  0  0  0  0  0  0  0
    4.4051    1.9733   17.4488 H   0  0  0  0  0  0  0  0  0  0  0  0
    8.9217   -0.1995   25.4231 H   0  0  0  0  0  0  0  0  0  0  0  0
   10.0653   -2.2339   21.8256 H   0  0  0  0  0  0  0  0  0  0  0  0
    8.4825   -0.7940   18.0623 H   0  0  0  0  0  0  0  0  0  0  0  0
    8.2503   -5.2678   25.5020 H   0  0  0  0  0  0  0  0  0  0  0  0
    9.9817   -5.5374   25.1845 H   0  0  0  0  0  0  0  0  0  0  0  0
    9.4841   -4.7043   26.6562 H   0  0  0  0  0  0  0  0  0  0  0  0
    9.5695    1.2298   24.6305 H   0  0  0  0  0  0  0  0  0  0  0  0
    9.6466    2.2276   23.1778 H   0  0  0  0  0  0  0  0  0  0  0  0
    6.7266    0.4930   16.8305 H   0  0  0  0  0  0  0  0  0  0  0  0
    8.2383   -1.5634   21.0944 H   0  0  0  0  0  0  0  0  0  0  0  0
  1  3  1  0  0  0  0
  1  4  2  0  0  0  0
  2  5  1  0  0  0  0
  2  6  2  0  0  0  0
  3  7  2  0  0  0  0
  4  8  1  0  0  0  0
  5 11  2  0  0  0  0
  6 15  1  0  0  0  0
  7 17  1  0  0  0  0
  8 17  2  0  0  0  0
  9 12  2  0  0  0  0
  9 16  1  0  0  0  0
 10 13  1  0  0  0  0
 10 16  2  0  0  0  0
 11 18  1  0  0  0  0
 12 19  1  0  0  0  0
 13 19  2  0  0  0  0
 14 20  2  0  0  0  0
 14 24  1  0  0  0  0
 15 18  2  0  0  0  0
 15 20  1  0  0  0  0
 16 22  1  0  0  0  0
 17 23  1  0  0  0  0
 18 24  1  0  0  0  0
 19 26  1  0  0  0  0
 20 25  1  0  0  0  0
 21 25  1  0  0  0  0
 21 26  1  0  0  0  0
 21 27  2  0  0  0  0
 23 26  1  0  0  0  0
  1 28  1  0  0  0  0
  2 29  1  0  0  0  0
  3 30  1  0  0  0  0
  4 31  1  0  0  0  0
  5 32  1  0  0  0  0
  6 33  1  0  0  0  0
  7 34  1  0  0  0  0
  8 35  1  0  0  0  0
  9 36  1  0  0  0  0
 10 37  1  0  0  0  0
 11 38  1  0  0  0  0
 12 39  1  0  0  0  0
 13 40  1  0  0  0  0
 14 41  1  0  0  0  0
 22 42  1  0  0  0  0
 22 43  1  0  0  0  0
 22 44  1  0  0  0  0
 23 45  1  0  0  0  0
 23 46  1  0  0  0  0
 24 47  1  0  0  0  0
 25 48  1  0  0  0  0
M  END
> <clash_score>
0

> <docking_score>
-8.379524230957031

> <overlap_score>
0.9389580488204956

$$$$
BENZO_124_1
  -OEChem-08232013443D

 45 48  0     0  0  0  0  0  0999 V2000
    4.2750    1.7050   20.8490 C   0  0  0  0  0  0  0  0  0  0  0  0
    3.9160    2.0630   19.5520 C   0  0  0  0  0  0  0  0  0  0  0  0
    5.4210    0.9600   21.0930 C   0  0  0  0  0  0  0  0  0  0  0  0
    8.9960   -2.3380   25.5320 C   0  0  0  0  0  0  0  0  0  0  0  0
    9.6730   -3.4710   23.5300 C   0  0  0  0  0  0  0  0  0  0  0  0
    4.6890    1.6810   18.4640 C   0  0  0  0  0  0  0  0  0  0  0  0
    9.0720   -1.1280   24.8640 C   0  0  0  0  0  0  0  0  0  0  0  0
    9.7200   -2.2600   22.8630 C   0  0  0  0  0  0  0  0  0  0  0  0
   12.3103    2.4459   23.8230 C   0  0  0  0  0  0  0  0  0  0  0  0
    7.6390   -0.2680   18.5410 C   0  0  0  0  0  0  0  0  0  0  0  0
   13.6541    2.1467   23.8683 C   0  0  0  0  0  0  0  0  0  0  0  0
   12.2649    0.1280   23.6577 C   0  0  0  0  0  0  0  0  0  0  0  0
    6.1790    0.5730   19.9990 C   0  0  0  0  0  0  0  0  0  0  0  0
    9.3070   -3.5340   24.8780 C   0  0  0  0  0  0  0  0  0  0  0  0
   11.5054    1.2766   23.7012 C   0  0  0  0  0  0  0  0  0  0  0  0
    5.8300    0.9190   18.6970 C   0  0  0  0  0  0  0  0  0  0  0  0
    9.3350   -1.0880   23.5010 C   0  0  0  0  0  0  0  0  0  0  0  0
    7.3170   -0.1610   19.8550 C   0  0  0  0  0  0  0  0  0  0  0  0
    9.0420    0.3700   21.5280 C   0  0  0  0  0  0  0  0  0  0  0  0
    9.2505   -4.8264   25.5904 C   0  0  0  0  0  0  0  0  0  0  0  0
   10.0059    1.2962   23.6279 C   0  0  0  0  0  0  0  0  0  0  0  0
    6.7580    0.3810   17.8350 N   0  0  0  0  0  0  0  0  0  0  0  0
    8.1890   -0.7180   20.8700 N   0  0  0  0  0  0  0  0  0  0  0  0
    9.4560    0.1560   22.8130 N   0  0  0  0  0  0  0  0  0  0  0  0
    9.2690    1.4140   20.9380 O   0  0  0  0  0  0  0  0  0  0  0  0
   13.9410    0.4617   23.7640 S   0  0  0  0  0  0  0  0  0  0  0  0
    3.6453    2.0152   21.6831 H   0  0  0  0  0  0  0  0  0  0  0  0
    3.0147    2.6520   19.3913 H   0  0  0  0  0  0  0  0  0  0  0  0
    5.6991    0.6995   22.1042 H   0  0  0  0  0  0  0  0  0  0  0  0
    8.6919   -2.3557   26.5813 H   0  0  0  0  0  0  0  0  0  0  0  0
    9.9267   -4.3907   22.9939 H   0  0  0  0  0  0  0  0  0  0  0  0
    4.4051    1.9733   17.4488 H   0  0  0  0  0  0  0  0  0  0  0  0
    8.9217   -0.1995   25.4231 H   0  0  0  0  0  0  0  0  0  0  0  0
   10.0653   -2.2339   21.8256 H   0  0  0  0  0  0  0  0  0  0  0  0
   11.9272    3.4573   23.8748 H   0  0  0  0  0  0  0  0  0  0  0  0
    8.4825   -0.7940   18.0623 H   0  0  0  0  0  0  0  0  0  0  0  0
   14.4812    2.8369   23.9569 H   0  0  0  0  0  0  0  0  0  0  0  0
   11.9198   -0.8927   23.5676 H   0  0  0  0  0  0  0  0  0  0  0  0
    8.2503   -5.2678   25.5020 H   0  0  0  0  0  0  0  0  0  0  0  0
    9.9817   -5.5374   25.1845 H   0  0  0  0  0  0  0  0  0  0  0  0
    9.4841   -4.7043   26.6562 H   0  0  0  0  0  0  0  0  0  0  0  0
    9.5695    1.2298   24.6305 H   0  0  0  0  0  0  0  0  0  0  0  0
    9.6466    2.2276   23.1778 H   0  0  0  0  0  0  0  0  0  0  0  0
    6.7266    0.4930   16.8305 H   0  0  0  0  0  0  0  0  0  0  0  0
    8.2383   -1.5634   21.0944 H   0  0  0  0  0  0  0  0  0  0  0  0
  1  2  1  0  0  0  0
  1  3  2  0  0  0  0
  2  6  2  0  0  0  0
  3 13  1  0  0  0  0
  4  7  2  0  0  0  0
  4 14  1  0  0  0  0
  5  8  1  0  0  0  0
  5 14  2  0  0  0  0
  6 16  1  0  0  0  0
  7 17  1  0  0  0  0
  8 17  2  0  0  0  0
  9 11  2  0  0  0  0
  9 15  1  0  0  0  0
 10 18  2  0  0  0  0
 10 22  1  0  0  0  0
 11 26  1  0  0  0  0
 12 15  2  0  0  0  0
 12 26  1  0  0  0  0
 13 16  2  0  0  0  0
 13 18  1  0  0  0  0
 14 20  1  0  0  0  0
 15 21  1  0  0  0  0
 16 22  1  0  0  0  0
 17 24  1  0  0  0  0
 18 23  1  0  0  0  0
 19 23  1  0  0  0  0
 19 24  1  0  0  0  0
 19 25  2  0  0  0  0
 21 24  1  0  0  0  0
  1 27  1  0  0  0  0
  2 28  1  0  0  0  0
  3 29  1  0  0  0  0
  4 30  1  0  0  0  0
  5 31  1  0  0  0  0
  6 32  1  0  0  0  0
  7 33  1  0  0  0  0
  8 34  1  0  0  0  0
  9 35  1  0  0  0  0
 10 36  1  0  0  0  0
 11 37  1  0  0  0  0
 12 38  1  0  0  0  0
 20 39  1  0  0  0  0
 20 40  1  0  0  0  0
 20 41  1  0  0  0  0
 21 42  1  0  0  0  0
 21 43  1  0  0  0  0
 22 44  1  0  0  0  0
 23 45  1  0  0  0  0
M  END
> <clash_score>
0

> <docking_score>
-7.440003395080566

> <overlap_score>
0.9256511926651001

$$$$
BENZO_122_1
  -OEChem-08232013443D

 60 64  0     0  0  0  0  0  0999 V2000
    4.2750    1.7050   20.8490 C   0  0  0  0  0  0  0  0  0  0  0  0
    3.9160    2.0630   19.5520 C   0  0  0  0  0  0  0  0  0  0  0  0
   13.5726    0.4739   24.5787 C   0  0  0  0  0  0  0  0  0  0  0  0
    5.4210    0.9600   21.0930 C   0  0  0  0  0  0  0  0  0  0  0  0
   12.1790    0.4585   24.5212 C   0  0  0  0  0  0  0  0  0  0  0  0
    4.6890    1.6810   18.4640 C   0  0  0  0  0  0  0  0  0  0  0  0
    8.9960   -2.3380   25.5320 C   0  0  0  0  0  0  0  0  0  0  0  0
    9.6730   -3.4710   23.5300 C   0  0  0  0  0  0  0  0  0  0  0  0
    9.0720   -1.1280   24.8640 C   0  0  0  0  0  0  0  0  0  0  0  0
    9.7200   -2.2600   22.8630 C   0  0  0  0  0  0  0  0  0  0  0  0
   14.2935    1.3684   23.7874 C   0  0  0  0  0  0  0  0  0  0  0  0
   12.2271    2.2319   22.8810 C   0  0  0  0  0  0  0  0  0  0  0  0
    7.6390   -0.2680   18.5410 C   0  0  0  0  0  0  0  0  0  0  0  0
    6.1790    0.5730   19.9990 C   0  0  0  0  0  0  0  0  0  0  0  0
   11.5063    1.3375   23.6723 C   0  0  0  0  0  0  0  0  0  0  0  0
    5.8300    0.9190   18.6970 C   0  0  0  0  0  0  0  0  0  0  0  0
    9.3070   -3.5340   24.8780 C   0  0  0  0  0  0  0  0  0  0  0  0
    9.3350   -1.0880   23.5010 C   0  0  0  0  0  0  0  0  0  0  0  0
    7.3170   -0.1610   19.8550 C   0  0  0  0  0  0  0  0  0  0  0  0
   13.6207    2.2473   22.9386 C   0  0  0  0  0  0  0  0  0  0  0  0
    9.0420    0.3700   21.5280 C   0  0  0  0  0  0  0  0  0  0  0  0
    7.3635   -6.1361   27.1888 C   0  0  0  0  0  0  0  0  0  0  0  0
    8.1961   -4.9735   27.7341 C   0  0  0  0  0  0  0  0  0  0  0  0
    7.1942   -6.0394   25.6709 C   0  0  0  0  0  0  0  0  0  0  0  0
    9.5196   -4.8490   26.9797 C   0  0  0  0  0  0  0  0  0  0  0  0
    8.5442   -5.8838   24.9639 C   0  0  0  0  0  0  0  0  0  0  0  0
   10.0063    1.3195   23.6101 C   0  0  0  0  0  0  0  0  0  0  0  0
    6.7580    0.3810   17.8350 N   0  0  0  0  0  0  0  0  0  0  0  0
    9.2562   -4.7384   25.5422 N   0  0  0  0  0  0  0  0  0  0  0  0
    8.1890   -0.7180   20.8700 N   0  0  0  0  0  0  0  0  0  0  0  0
    9.4560    0.1560   22.8130 N   0  0  0  0  0  0  0  0  0  0  0  0
    9.2690    1.4140   20.9380 O   0  0  0  0  0  0  0  0  0  0  0  0
   14.5107    3.3498   21.9617 Cl  0  0  0  0  0  0  0  0  0  0  0  0
    3.6453    2.0152   21.6831 H   0  0  0  0  0  0  0  0  0  0  0  0
    3.0147    2.6520   19.3913 H   0  0  0  0  0  0  0  0  0  0  0  0
   14.0961   -0.2107   25.2397 H   0  0  0  0  0  0  0  0  0  0  0  0
    5.6991    0.6995   22.1042 H   0  0  0  0  0  0  0  0  0  0  0  0
   11.6255   -0.2418   25.1412 H   0  0  0  0  0  0  0  0  0  0  0  0
    4.4051    1.9733   17.4488 H   0  0  0  0  0  0  0  0  0  0  0  0
    8.6905   -2.3533   26.5810 H   0  0  0  0  0  0  0  0  0  0  0  0
    9.9266   -4.3896   22.9917 H   0  0  0  0  0  0  0  0  0  0  0  0
    8.9233   -0.1992   25.4231 H   0  0  0  0  0  0  0  0  0  0  0  0
   10.0650   -2.2330   21.8256 H   0  0  0  0  0  0  0  0  0  0  0  0
   15.3793    1.3690   23.8424 H   0  0  0  0  0  0  0  0  0  0  0  0
   11.6979    2.9155   22.2212 H   0  0  0  0  0  0  0  0  0  0  0  0
    8.4825   -0.7940   18.0623 H   0  0  0  0  0  0  0  0  0  0  0  0
    7.8482   -7.0901   27.4469 H   0  0  0  0  0  0  0  0  0  0  0  0
    6.3760   -6.1438   27.6724 H   0  0  0  0  0  0  0  0  0  0  0  0
    7.6307   -4.0424   27.6403 H   0  0  0  0  0  0  0  0  0  0  0  0
    8.3915   -5.1310   28.7968 H   0  0  0  0  0  0  0  0  0  0  0  0
    6.6888   -6.9376   25.3010 H   0  0  0  0  0  0  0  0  0  0  0  0
    6.5515   -5.1859   25.4257 H   0  0  0  0  0  0  0  0  0  0  0  0
   10.0492   -3.9640   27.3414 H   0  0  0  0  0  0  0  0  0  0  0  0
   10.1431   -5.7254   27.1778 H   0  0  0  0  0  0  0  0  0  0  0  0
    9.1338   -6.7931   25.0868 H   0  0  0  0  0  0  0  0  0  0  0  0
    8.3656   -5.7264   23.8998 H   0  0  0  0  0  0  0  0  0  0  0  0
    9.5785    1.2746   24.6176 H   0  0  0  0  0  0  0  0  0  0  0  0
    9.6218    2.2274   23.1337 H   0  0  0  0  0  0  0  0  0  0  0  0
    6.7266    0.4930   16.8305 H   0  0  0  0  0  0  0  0  0  0  0  0
    8.2565   -1.5523   21.1108 H   0  0  0  0  0  0  0  0  0  0  0  0
  1  2  1  0  0  0  0
  1  4  2  0  0  0  0
  2  6  2  0  0  0  0
  3  5  2  0  0  0  0
  3 11  1  0  0  0  0
  4 14  1  0  0  0  0
  5 15  1  0  0  0  0
  6 16  1  0  0  0  0
  7  9  2  0  0  0  0
  7 17  1  0  0  0  0
  8 10  1  0  0  0  0
  8 17  2  0  0  0  0
  9 18  1  0  0  0  0
 10 18  2  0  0  0  0
 11 20  2  0  0  0  0
 12 15  2  0  0  0  0
 12 20  1  0  0  0  0
 13 19  2  0  0  0  0
 13 28  1  0  0  0  0
 14 16  2  0  0  0  0
 14 19  1  0  0  0  0
 15 27  1  0  0  0  0
 16 28  1  0  0  0  0
 17 29  1  0  0  0  0
 18 31  1  0  0  0  0
 19 30  1  0  0  0  0
 20 33  1  0  0  0  0
 21 30  1  0  0  0  0
 21 31  1  0  0  0  0
 21 32  2  0  0  0  0
 22 23  1  0  0  0  0
 22 24  1  0  0  0  0
 23 25  1  0  0  0  0
 24 26  1  0  0  0  0
 25 29  1  0  0  0  0
 26 29  1  0  0  0  0
 27 31  1  0  0  0  0
  1 34  1  0  0  0  0
  2 35  1  0  0  0  0
  3 36  1  0  0  0  0
  4 37  1  0  0  0  0
  5 38  1  0  0  0  0
  6 39  1  0  0  0  0
  7 40  1  0  0  0  0
  8 41  1  0  0  0  0
  9 42  1  0  0  0  0
 10 43  1  0  0  0  0
 11 44  1  0  0  0  0
 12 45  1  0  0  0  0
 13 46  1  0  0  0  0
 22 47  1  0  0  0  0
 22 48  1  0  0  0  0
 23 49  1  0  0  0  0
 23 50  1  0  0  0  0
 24 51  1  0  0  0  0
 24 52  1  0  0  0  0
 25 53  1  0  0  0  0
 25 54  1  0  0  0  0
 26 55  1  0  0  0  0
 26 56  1  0  0  0  0
 27 57  1  0  0  0  0
 27 58  1  0  0  0  0
 28 59  1  0  0  0  0
 30 60  1  0  0  0  0
M  END
> <clash_score>
0

> <docking_score>
-7.042006492614746

> <overlap_score>
1.0056053400039673

$$$$
BENZO_123_1
  -OEChem-08232013443D

 60 64  0     0  0  0  0  0  0999 V2000
    4.2750    1.7050   20.8490 C   0  0  0  0  0  0  0  0  0  0  0  0
    3.9160    2.0630   19.5520 C   0  0  0  0  0  0  0  0  0  0  0  0
    5.4210    0.9600   21.0930 C   0  0  0  0  0  0  0  0  0  0  0  0
    4.6890    1.6810   18.4640 C   0  0  0  0  0  0  0  0  0  0  0  0
    8.9960   -2.3380   25.5320 C   0  0  0  0  0  0  0  0  0  0  0  0
    9.6730   -3.4710   23.5300 C   0  0  0  0  0  0  0  0  0  0  0  0
    9.0720   -1.1280   24.8640 C   0  0  0  0  0  0  0  0  0  0  0  0
    9.7200   -2.2600   22.8630 C   0  0  0  0  0  0  0  0  0  0  0  0
   12.3908    2.1640   22.9539 C   0  0  0  0  0  0  0  0  0  0  0  0
   12.3237    0.5511   24.4468 C   0  0  0  0  0  0  0  0  0  0  0  0
    7.6390   -0.2680   18.5410 C   0  0  0  0  0  0  0  0  0  0  0  0
    6.1790    0.5730   19.9990 C   0  0  0  0  0  0  0  0  0  0  0  0
   11.5063    1.3375   23.6723 C   0  0  0  0  0  0  0  0  0  0  0  0
    5.8300    0.9190   18.6970 C   0  0  0  0  0  0  0  0  0  0  0  0
    9.3070   -3.5340   24.8780 C   0  0  0  0  0  0  0  0  0  0  0  0
    9.3350   -1.0880   23.5010 C   0  0  0  0  0  0  0  0  0  0  0  0
    7.3170   -0.1610   19.8550 C   0  0  0  0  0  0  0  0  0  0  0  0
    9.0420    0.3700   21.5280 C   0  0  0  0  0  0  0  0  0  0  0  0
    7.3635   -6.1361   27.1888 C   0  0  0  0  0  0  0  0  0  0  0  0
    8.1961   -4.9735   27.7341 C   0  0  0  0  0  0  0  0  0  0  0  0
    7.1942   -6.0394   25.6709 C   0  0  0  0  0  0  0  0  0  0  0  0
    9.5196   -4.8490   26.9797 C   0  0  0  0  0  0  0  0  0  0  0  0
    8.5442   -5.8838   24.9639 C   0  0  0  0  0  0  0  0  0  0  0  0
   14.8092    0.3979   24.7260 C   0  0  0  0  0  0  0  0  0  0  0  0
   10.0063    1.3195   23.6101 C   0  0  0  0  0  0  0  0  0  0  0  0
   13.6720    1.9251   23.2461 N   0  0  0  0  0  0  0  0  0  0  0  0
    6.7580    0.3810   17.8350 N   0  0  0  0  0  0  0  0  0  0  0  0
   13.5986    0.9396   24.1568 N   0  0  0  0  0  0  0  0  0  0  0  0
    9.2562   -4.7384   25.5422 N   0  0  0  0  0  0  0  0  0  0  0  0
    8.1890   -0.7180   20.8700 N   0  0  0  0  0  0  0  0  0  0  0  0
    9.4560    0.1560   22.8130 N   0  0  0  0  0  0  0  0  0  0  0  0
    9.2690    1.4140   20.9380 O   0  0  0  0  0  0  0  0  0  0  0  0
    3.6453    2.0152   21.6831 H   0  0  0  0  0  0  0  0  0  0  0  0
    3.0147    2.6520   19.3913 H   0  0  0  0  0  0  0  0  0  0  0  0
    5.6991    0.6995   22.1042 H   0  0  0  0  0  0  0  0  0  0  0  0
    4.4051    1.9733   17.4488 H   0  0  0  0  0  0  0  0  0  0  0  0
    8.6905   -2.3533   26.5810 H   0  0  0  0  0  0  0  0  0  0  0  0
    9.9266   -4.3896   22.9917 H   0  0  0  0  0  0  0  0  0  0  0  0
    8.9233   -0.1992   25.4231 H   0  0  0  0  0  0  0  0  0  0  0  0
   10.0650   -2.2330   21.8256 H   0  0  0  0  0  0  0  0  0  0  0  0
   12.1576    2.9318   22.2298 H   0  0  0  0  0  0  0  0  0  0  0  0
   12.1121   -0.2315   25.1628 H   0  0  0  0  0  0  0  0  0  0  0  0
    8.4825   -0.7940   18.0623 H   0  0  0  0  0  0  0  0  0  0  0  0
    7.8482   -7.0901   27.4469 H   0  0  0  0  0  0  0  0  0  0  0  0
    6.3760   -6.1438   27.6724 H   0  0  0  0  0  0  0  0  0  0  0  0
    7.6307   -4.0424   27.6403 H   0  0  0  0  0  0  0  0  0  0  0  0
    8.3915   -5.1310   28.7968 H   0  0  0  0  0  0  0  0  0  0  0  0
    6.6888   -6.9376   25.3010 H   0  0  0  0  0  0  0  0  0  0  0  0
    6.5515   -5.1859   25.4257 H   0  0  0  0  0  0  0  0  0  0  0  0
   10.0492   -3.9640   27.3414 H   0  0  0  0  0  0  0  0  0  0  0  0
   10.1431   -5.7254   27.1778 H   0  0  0  0  0  0  0  0  0  0  0  0
    9.1338   -6.7931   25.0868 H   0  0  0  0  0  0  0  0  0  0  0  0
    8.3656   -5.7264   23.8998 H   0  0  0  0  0  0  0  0  0  0  0  0
   15.1341   -0.4353   24.0973 H   0  0  0  0  0  0  0  0  0  0  0  0
   15.5770    1.1760   24.7565 H   0  0  0  0  0  0  0  0  0  0  0  0
   14.6073    0.0540   25.7443 H   0  0  0  0  0  0  0  0  0  0  0  0
    9.5785    1.2746   24.6176 H   0  0  0  0  0  0  0  0  0  0  0  0
    9.6218    2.2274   23.1337 H   0  0  0  0  0  0  0  0  0  0  0  0
    6.7266    0.4930   16.8305 H   0  0  0  0  0  0  0  0  0  0  0  0
    8.2565   -1.5523   21.1108 H   0  0  0  0  0  0  0  0  0  0  0  0
  1  2  1  0  0  0  0
  1  3  2  0  0  0  0
  2  4  2  0  0  0  0
  3 12  1  0  0  0  0
  4 14  1  0  0  0  0
  5  7  2  0  0  0  0
  5 15  1  0  0  0  0
  6  8  1  0  0  0  0
  6 15  2  0  0  0  0
  7 16  1  0  0  0  0
  8 16  2  0  0  0  0
  9 13  1  0  0  0  0
  9 26  2  0  0  0  0
 10 13  2  0  0  0  0
 10 28  1  0  0  0  0
 11 17  2  0  0  0  0
 11 27  1  0  0  0  0
 12 14  2  0  0  0  0
 12 17  1  0  0  0  0
 13 25  1  0  0  0  0
 14 27  1  0  0  0  0
 15 29  1  0  0  0  0
 16 31  1  0  0  0  0
 17 30  1  0  0  0  0
 18 30  1  0  0  0  0
 18 31  1  0  0  0  0
 18 32  2  0  0  0  0
 19 20  1  0  0  0  0
 19 21  1  0  0  0  0
 20 22  1  0  0  0  0
 21 23  1  0  0  0  0
 22 29  1  0  0  0  0
 23 29  1  0  0  0  0
 24 28  1  0  0  0  0
 25 31  1  0  0  0  0
 26 28  1  0  0  0  0
  1 33  1  0  0  0  0
  2 34  1  0  0  0  0
  3 35  1  0  0  0  0
  4 36  1  0  0  0  0
  5 37  1  0  0  0  0
  6 38  1  0  0  0  0
  7 39  1  0  0  0  0
  8 40  1  0  0  0  0
  9 41  1  0  0  0  0
 10 42  1  0  0  0  0
 11 43  1  0  0  0  0
 19 44  1  0  0  0  0
 19 45  1  0  0  0  0
 20 46  1  0  0  0  0
 20 47  1  0  0  0  0
 21 48  1  0  0  0  0
 21 49  1  0  0  0  0
 22 50  1  0  0  0  0
 22 51  1  0  0  0  0
 23 52  1  0  0  0  0
 23 53  1  0  0  0  0
 24 54  1  0  0  0  0
 24 55  1  0  0  0  0
 24 56  1  0  0  0  0
 25 57  1  0  0  0  0
 25 58  1  0  0  0  0
 27 59  1  0  0  0  0
 30 60  1  0  0  0  0
M  END
> <clash_score>
0

> <docking_score>
-7.9080586433410645

> <overlap_score>
0.9954401850700378

$$$$
BENZO_127_1
  -OEChem-08232013443D

 48 51  0     0  0  0  0  0  0999 V2000
    4.2750    1.7050   20.8490 C   0  0  0  0  0  0  0  0  0  0  0  0
    3.9160    2.0630   19.5520 C   0  0  0  0  0  0  0  0  0  0  0  0
    5.4210    0.9600   21.0930 C   0  0  0  0  0  0  0  0  0  0  0  0
    8.9960   -2.3380   25.5320 C   0  0  0  0  0  0  0  0  0  0  0  0
    9.6730   -3.4710   23.5300 C   0  0  0  0  0  0  0  0  0  0  0  0
    4.6890    1.6810   18.4640 C   0  0  0  0  0  0  0  0  0  0  0  0
    9.0720   -1.1280   24.8640 C   0  0  0  0  0  0  0  0  0  0  0  0
    9.7200   -2.2600   22.8630 C   0  0  0  0  0  0  0  0  0  0  0  0
   12.4146    2.1041   23.0154 C   0  0  0  0  0  0  0  0  0  0  0  0
   12.2981    0.4470   24.4561 C   0  0  0  0  0  0  0  0  0  0  0  0
    7.6390   -0.2680   18.5410 C   0  0  0  0  0  0  0  0  0  0  0  0
    6.1790    0.5730   19.9990 C   0  0  0  0  0  0  0  0  0  0  0  0
    9.3070   -3.5340   24.8780 C   0  0  0  0  0  0  0  0  0  0  0  0
   11.5054    1.2766   23.7012 C   0  0  0  0  0  0  0  0  0  0  0  0
    5.8300    0.9190   18.6970 C   0  0  0  0  0  0  0  0  0  0  0  0
    9.3350   -1.0880   23.5010 C   0  0  0  0  0  0  0  0  0  0  0  0
    7.3170   -0.1610   19.8550 C   0  0  0  0  0  0  0  0  0  0  0  0
    9.0420    0.3700   21.5280 C   0  0  0  0  0  0  0  0  0  0  0  0
    9.2505   -4.8264   25.5904 C   0  0  0  0  0  0  0  0  0  0  0  0
   14.7770    0.2262   24.7476 C   0  0  0  0  0  0  0  0  0  0  0  0
   10.0059    1.2962   23.6279 C   0  0  0  0  0  0  0  0  0  0  0  0
   13.6876    1.8257   23.3088 N   0  0  0  0  0  0  0  0  0  0  0  0
    6.7580    0.3810   17.8350 N   0  0  0  0  0  0  0  0  0  0  0  0
   13.5839    0.8141   24.1874 N   0  0  0  0  0  0  0  0  0  0  0  0
    8.1890   -0.7180   20.8700 N   0  0  0  0  0  0  0  0  0  0  0  0
    9.4560    0.1560   22.8130 N   0  0  0  0  0  0  0  0  0  0  0  0
    9.2690    1.4140   20.9380 O   0  0  0  0  0  0  0  0  0  0  0  0
    3.6453    2.0152   21.6831 H   0  0  0  0  0  0  0  0  0  0  0  0
    3.0147    2.6520   19.3913 H   0  0  0  0  0  0  0  0  0  0  0  0
    5.6991    0.6995   22.1042 H   0  0  0  0  0  0  0  0  0  0  0  0
    8.6919   -2.3557   26.5813 H   0  0  0  0  0  0  0  0  0  0  0  0
    9.9267   -4.3907   22.9939 H   0  0  0  0  0  0  0  0  0  0  0  0
    4.4051    1.9733   17.4488 H   0  0  0  0  0  0  0  0  0  0  0  0
    8.9217   -0.1995   25.4231 H   0  0  0  0  0  0  0  0  0  0  0  0
   10.0653   -2.2339   21.8256 H   0  0  0  0  0  0  0  0  0  0  0  0
   12.2051    2.8996   22.3144 H   0  0  0  0  0  0  0  0  0  0  0  0
   12.0626   -0.3524   25.1455 H   0  0  0  0  0  0  0  0  0  0  0  0
    8.4825   -0.7940   18.0623 H   0  0  0  0  0  0  0  0  0  0  0  0
    8.2503   -5.2678   25.5020 H   0  0  0  0  0  0  0  0  0  0  0  0
    9.9817   -5.5374   25.1845 H   0  0  0  0  0  0  0  0  0  0  0  0
    9.4841   -4.7043   26.6562 H   0  0  0  0  0  0  0  0  0  0  0  0
   15.0871   -0.5943   24.0952 H   0  0  0  0  0  0  0  0  0  0  0  0
   15.5627    0.9844   24.8081 H   0  0  0  0  0  0  0  0  0  0  0  0
   14.5593   -0.1447   25.7531 H   0  0  0  0  0  0  0  0  0  0  0  0
    9.5695    1.2298   24.6305 H   0  0  0  0  0  0  0  0  0  0  0  0
    9.6466    2.2276   23.1778 H   0  0  0  0  0  0  0  0  0  0  0  0
    6.7266    0.4930   16.8305 H   0  0  0  0  0  0  0  0  0  0  0  0
    8.2383   -1.5634   21.0944 H   0  0  0  0  0  0  0  0  0  0  0  0
  1  2  1  0  0  0  0
  1  3  2  0  0  0  0
  2  6  2  0  0  0  0
  3 12  1  0  0  0  0
  4  7  2  0  0  0  0
  4 13  1  0  0  0  0
  5  8  1  0  0  0  0
  5 13  2  0  0  0  0
  6 15  1  0  0  0  0
  7 16  1  0  0  0  0
  8 16  2  0  0  0  0
  9 14  1  0  0  0  0
  9 22  2  0  0  0  0
 10 14  2  0  0  0  0
 10 24  1  0  0  0  0
 11 17  2  0  0  0  0
 11 23  1  0  0  0  0
 12 15  2  0  0  0  0
 12 17  1  0  0  0  0
 13 19  1  0  0  0  0
 14 21  1  0  0  0  0
 15 23  1  0  0  0  0
 16 26  1  0  0  0  0
 17 25  1  0  0  0  0
 18 25  1  0  0  0  0
 18 26  1  0  0  0  0
 18 27  2  0  0  0  0
 20 24  1  0  0  0  0
 21 26  1  0  0  0  0
 22 24  1  0  0  0  0
  1 28  1  0  0  0  0
  2 29  1  0  0  0  0
  3 30  1  0  0  0  0
  4 31  1  0  0  0  0
  5 32  1  0  0  0  0
  6 33  1  0  0  0  0
  7 34  1  0  0  0  0
  8 35  1  0  0  0  0
  9 36  1  0  0  0  0
 10 37  1  0  0  0  0
 11 38  1  0  0  0  0
 19 39  1  0  0  0  0
 19 40  1  0  0  0  0
 19 41  1  0  0  0  0
 20 42  1  0  0  0  0
 20 43  1  0  0  0  0
 20 44  1  0  0  0  0
 21 45  1  0  0  0  0
 21 46  1  0  0  0  0
 23 47  1  0  0  0  0
 25 48  1  0  0  0  0
M  END
> <clash_score>
0

> <docking_score>
-7.985435485839844

> <overlap_score>
0.9388659000396729

$$$$
BENZO_126_1
  -OEChem-08232013443D

 48 51  0     0  0  0  0  0  0999 V2000
    4.2750    1.7050   20.8490 C   0  0  0  0  0  0  0  0  0  0  0  0
    3.9160    2.0630   19.5520 C   0  0  0  0  0  0  0  0  0  0  0  0
   13.6449    2.1624   23.0124 C   0  0  0  0  0  0  0  0  0  0  0  0
    5.4210    0.9600   21.0930 C   0  0  0  0  0  0  0  0  0  0  0  0
   12.2519    2.1793   22.9439 C   0  0  0  0  0  0  0  0  0  0  0  0
    8.9960   -2.3380   25.5320 C   0  0  0  0  0  0  0  0  0  0  0  0
    9.6730   -3.4710   23.5300 C   0  0  0  0  0  0  0  0  0  0  0  0
    4.6890    1.6810   18.4640 C   0  0  0  0  0  0  0  0  0  0  0  0
    9.0720   -1.1280   24.8640 C   0  0  0  0  0  0  0  0  0  0  0  0
    9.7200   -2.2600   22.8630 C   0  0  0  0  0  0  0  0  0  0  0  0
   14.2915    1.2427   23.8381 C   0  0  0  0  0  0  0  0  0  0  0  0
   12.1520    0.3569   24.5269 C   0  0  0  0  0  0  0  0  0  0  0  0
    7.6390   -0.2680   18.5410 C   0  0  0  0  0  0  0  0  0  0  0  0
    6.1790    0.5730   19.9990 C   0  0  0  0  0  0  0  0  0  0  0  0
    9.3070   -3.5340   24.8780 C   0  0  0  0  0  0  0  0  0  0  0  0
   11.5054    1.2766   23.7012 C   0  0  0  0  0  0  0  0  0  0  0  0
    5.8300    0.9190   18.6970 C   0  0  0  0  0  0  0  0  0  0  0  0
    9.3350   -1.0880   23.5010 C   0  0  0  0  0  0  0  0  0  0  0  0
    7.3170   -0.1610   19.8550 C   0  0  0  0  0  0  0  0  0  0  0  0
   13.5450    0.3400   24.5954 C   0  0  0  0  0  0  0  0  0  0  0  0
    9.0420    0.3700   21.5280 C   0  0  0  0  0  0  0  0  0  0  0  0
    9.2505   -4.8264   25.5904 C   0  0  0  0  0  0  0  0  0  0  0  0
   10.0059    1.2962   23.6279 C   0  0  0  0  0  0  0  0  0  0  0  0
    6.7580    0.3810   17.8350 N   0  0  0  0  0  0  0  0  0  0  0  0
    8.1890   -0.7180   20.8700 N   0  0  0  0  0  0  0  0  0  0  0  0
    9.4560    0.1560   22.8130 N   0  0  0  0  0  0  0  0  0  0  0  0
    9.2690    1.4140   20.9380 O   0  0  0  0  0  0  0  0  0  0  0  0
   14.3433   -0.7938   25.6148 Cl  0  0  0  0  0  0  0  0  0  0  0  0
    3.6453    2.0152   21.6831 H   0  0  0  0  0  0  0  0  0  0  0  0
    3.0147    2.6520   19.3913 H   0  0  0  0  0  0  0  0  0  0  0  0
   14.2258    2.8656   22.4226 H   0  0  0  0  0  0  0  0  0  0  0  0
    5.6991    0.6995   22.1042 H   0  0  0  0  0  0  0  0  0  0  0  0
   11.7565    2.8995   22.2979 H   0  0  0  0  0  0  0  0  0  0  0  0
    8.6919   -2.3557   26.5813 H   0  0  0  0  0  0  0  0  0  0  0  0
    9.9267   -4.3907   22.9939 H   0  0  0  0  0  0  0  0  0  0  0  0
    4.4051    1.9733   17.4488 H   0  0  0  0  0  0  0  0  0  0  0  0
    8.9217   -0.1995   25.4231 H   0  0  0  0  0  0  0  0  0  0  0  0
   10.0653   -2.2339   21.8256 H   0  0  0  0  0  0  0  0  0  0  0  0
   15.3779    1.2411   23.8817 H   0  0  0  0  0  0  0  0  0  0  0  0
   11.5654   -0.3452   25.1150 H   0  0  0  0  0  0  0  0  0  0  0  0
    8.4825   -0.7940   18.0623 H   0  0  0  0  0  0  0  0  0  0  0  0
    8.2503   -5.2678   25.5020 H   0  0  0  0  0  0  0  0  0  0  0  0
    9.9817   -5.5374   25.1845 H   0  0  0  0  0  0  0  0  0  0  0  0
    9.4841   -4.7043   26.6562 H   0  0  0  0  0  0  0  0  0  0  0  0
    9.5695    1.2298   24.6305 H   0  0  0  0  0  0  0  0  0  0  0  0
    9.6466    2.2276   23.1778 H   0  0  0  0  0  0  0  0  0  0  0  0
    6.7266    0.4930   16.8305 H   0  0  0  0  0  0  0  0  0  0  0  0
    8.2383   -1.5634   21.0944 H   0  0  0  0  0  0  0  0  0  0  0  0
  1  2  1  0  0  0  0
  1  4  2  0  0  0  0
  2  8  2  0  0  0  0
  3  5  2  0  0  0  0
  3 11  1  0  0  0  0
  4 14  1  0  0  0  0
  5 16  1  0  0  0  0
  6  9  2  0  0  0  0
  6 15  1  0  0  0  0
  7 10  1  0  0  0  0
  7 15  2  0  0  0  0
  8 17  1  0  0  0  0
  9 18  1  0  0  0  0
 10 18  2  0  0  0  0
 11 20  2  0  0  0  0
 12 16  2  0  0  0  0
 12 20  1  0  0  0  0
 13 19  2  0  0  0  0
 13 24  1  0  0  0  0
 14 17  2  0  0  0  0
 14 19  1  0  0  0  0
 15 22  1  0  0  0  0
 16 23  1  0  0  0  0
 17 24  1  0  0  0  0
 18 26  1  0  0  0  0
 19 25  1  0  0  0  0
 20 28  1  0  0  0  0
 21 25  1  0  0  0  0
 21 26  1  0  0  0  0
 21 27  2  0  0  0  0
 23 26  1  0  0  0  0
  1 29  1  0  0  0  0
  2 30  1  0  0  0  0
  3 31  1  0  0  0  0
  4 32  1  0  0  0  0
  5 33  1  0  0  0  0
  6 34  1  0  0  0  0
  7 35  1  0  0  0  0
  8 36  1  0  0  0  0
  9 37  1  0  0  0  0
 10 38  1  0  0  0  0
 11 39  1  0  0  0  0
 12 40  1  0  0  0  0
 13 41  1  0  0  0  0
 22 42  1  0  0  0  0
 22 43  1  0  0  0  0
 22 44  1  0  0  0  0
 23 45  1  0  0  0  0
 23 46  1  0  0  0  0
 24 47  1  0  0  0  0
 25 48  1  0  0  0  0
M  END
> <clash_score>
0.6564484085739959

> <docking_score>
-7.2272443771362305

> <overlap_score>
0.9430127143859863

$$$$
BENZO_129_1
  -OEChem-08232013443D

 49 52  0     0  0  0  0  0  0999 V2000
   14.2916    1.2405   23.8360 C   0  0  0  0  0  0  0  0  0  0  0  0
    4.2750    1.7050   20.8490 C   0  0  0  0  0  0  0  0  0  0  0  0
   13.5382    0.5663   24.7968 C   0  0  0  0  0  0  0  0  0  0  0  0
   13.6520    1.9328   22.8077 C   0  0  0  0  0  0  0  0  0  0  0  0
    3.9160    2.0630   19.5520 C   0  0  0  0  0  0  0  0  0  0  0  0
    5.4210    0.9600   21.0930 C   0  0  0  0  0  0  0  0  0  0  0  0
   12.1450    0.5843   24.7295 C   0  0  0  0  0  0  0  0  0  0  0  0
   12.2589    1.9508   22.7403 C   0  0  0  0  0  0  0  0  0  0  0  0
    4.6890    1.6810   18.4640 C   0  0  0  0  0  0  0  0  0  0  0  0
    9.0720   -1.1280   24.8640 C   0  0  0  0  0  0  0  0  0  0  0  0
    9.7200   -2.2600   22.8630 C   0  0  0  0  0  0  0  0  0  0  0  0
    8.9960   -2.3380   25.5320 C   0  0  0  0  0  0  0  0  0  0  0  0
    9.6730   -3.4710   23.5300 C   0  0  0  0  0  0  0  0  0  0  0  0
    7.6390   -0.2680   18.5410 C   0  0  0  0  0  0  0  0  0  0  0  0
    6.1790    0.5730   19.9990 C   0  0  0  0  0  0  0  0  0  0  0  0
   11.5054    1.2766   23.7012 C   0  0  0  0  0  0  0  0  0  0  0  0
    5.8300    0.9190   18.6970 C   0  0  0  0  0  0  0  0  0  0  0  0
    9.3350   -1.0880   23.5010 C   0  0  0  0  0  0  0  0  0  0  0  0
    7.3170   -0.1610   19.8550 C   0  0  0  0  0  0  0  0  0  0  0  0
    9.3070   -3.5340   24.8780 C   0  0  0  0  0  0  0  0  0  0  0  0
    9.0420    0.3700   21.5280 C   0  0  0  0  0  0  0  0  0  0  0  0
    9.5894   -5.8809   24.7798 C   0  0  0  0  0  0  0  0  0  0  0  0
   10.0059    1.2962   23.6279 C   0  0  0  0  0  0  0  0  0  0  0  0
    6.7580    0.3810   17.8350 N   0  0  0  0  0  0  0  0  0  0  0  0
    8.1890   -0.7180   20.8700 N   0  0  0  0  0  0  0  0  0  0  0  0
    9.4560    0.1560   22.8130 N   0  0  0  0  0  0  0  0  0  0  0  0
    9.2690    1.4140   20.9380 O   0  0  0  0  0  0  0  0  0  0  0  0
    9.2555   -4.7124   25.5274 O   0  0  0  0  0  0  0  0  0  0  0  0
   15.3763    1.2275   23.8893 H   0  0  0  0  0  0  0  0  0  0  0  0
    3.6453    2.0152   21.6831 H   0  0  0  0  0  0  0  0  0  0  0  0
   14.0360    0.0281   25.5982 H   0  0  0  0  0  0  0  0  0  0  0  0
   14.2383    2.4587   22.0601 H   0  0  0  0  0  0  0  0  0  0  0  0
    3.0147    2.6520   19.3913 H   0  0  0  0  0  0  0  0  0  0  0  0
    5.6991    0.6995   22.1042 H   0  0  0  0  0  0  0  0  0  0  0  0
   11.5661    0.0560   25.4824 H   0  0  0  0  0  0  0  0  0  0  0  0
   11.7692    2.4927   21.9356 H   0  0  0  0  0  0  0  0  0  0  0  0
    4.4051    1.9733   17.4488 H   0  0  0  0  0  0  0  0  0  0  0  0
    8.9221   -0.1995   25.4231 H   0  0  0  0  0  0  0  0  0  0  0  0
   10.0642   -2.2347   21.8253 H   0  0  0  0  0  0  0  0  0  0  0  0
    8.6902   -2.3588   26.5805 H   0  0  0  0  0  0  0  0  0  0  0  0
    9.9254   -4.3921   22.9961 H   0  0  0  0  0  0  0  0  0  0  0  0
    8.4825   -0.7940   18.0623 H   0  0  0  0  0  0  0  0  0  0  0  0
    9.5074   -6.7611   25.4222 H   0  0  0  0  0  0  0  0  0  0  0  0
   10.6088   -5.7902   24.3963 H   0  0  0  0  0  0  0  0  0  0  0  0
    8.8944   -5.9778   23.9424 H   0  0  0  0  0  0  0  0  0  0  0  0
    9.5695    1.2298   24.6305 H   0  0  0  0  0  0  0  0  0  0  0  0
    9.6466    2.2276   23.1778 H   0  0  0  0  0  0  0  0  0  0  0  0
    6.7266    0.4930   16.8305 H   0  0  0  0  0  0  0  0  0  0  0  0
    8.2383   -1.5634   21.0944 H   0  0  0  0  0  0  0  0  0  0  0  0
  1  3  1  0  0  0  0
  1  4  2  0  0  0  0
  2  5  1  0  0  0  0
  2  6  2  0  0  0  0
  3  7  2  0  0  0  0
  4  8  1  0  0  0  0
  5  9  2  0  0  0  0
  6 15  1  0  0  0  0
  7 16  1  0  0  0  0
  8 16  2  0  0  0  0
  9 17  1  0  0  0  0
 10 12  2  0  0  0  0
 10 18  1  0  0  0  0
 11 13  1  0  0  0  0
 11 18  2  0  0  0  0
 12 20  1  0  0  0  0
 13 20  2  0  0  0  0
 14 19  2  0  0  0  0
 14 24  1  0  0  0  0
 15 17  2  0  0  0  0
 15 19  1  0  0  0  0
 16 23  1  0  0  0  0
 17 24  1  0  0  0  0
 18 26  1  0  0  0  0
 19 25  1  0  0  0  0
 20 28  1  0  0  0  0
 21 25  1  0  0  0  0
 21 26  1  0  0  0  0
 21 27  2  0  0  0  0
 22 28  1  0  0  0  0
 23 26  1  0  0  0  0
  1 29  1  0  0  0  0
  2 30  1  0  0  0  0
  3 31  1  0  0  0  0
  4 32  1  0  0  0  0
  5 33  1  0  0  0  0
  6 34  1  0  0  0  0
  7 35  1  0  0  0  0
  8 36  1  0  0  0  0
  9 37  1  0  0  0  0
 10 38  1  0  0  0  0
 11 39  1  0  0  0  0
 12 40  1  0  0  0  0
 13 41  1  0  0  0  0
 14 42  1  0  0  0  0
 22 43  1  0  0  0  0
 22 44  1  0  0  0  0
 22 45  1  0  0  0  0
 23 46  1  0  0  0  0
 23 47  1  0  0  0  0
 24 48  1  0  0  0  0
 25 49  1  0  0  0  0
M  END
> <clash_score>
0

> <docking_score>
-8.0856351852417

> <overlap_score>
0.9637632966041565

$$$$
BENZO_128_1
  -OEChem-08232013443D

 46 49  0     0  0  0  0  0  0999 V2000
    4.2750    1.7050   20.8490 C   0  0  0  0  0  0  0  0  0  0  0  0
    3.9160    2.0630   19.5520 C   0  0  0  0  0  0  0  0  0  0  0  0
    5.4210    0.9600   21.0930 C   0  0  0  0  0  0  0  0  0  0  0  0
    4.6890    1.6810   18.4640 C   0  0  0  0  0  0  0  0  0  0  0  0
    9.0720   -1.1280   24.8640 C   0  0  0  0  0  0  0  0  0  0  0  0
    9.7200   -2.2600   22.8630 C   0  0  0  0  0  0  0  0  0  0  0  0
    8.9960   -2.3380   25.5320 C   0  0  0  0  0  0  0  0  0  0  0  0
    9.6730   -3.4710   23.5300 C   0  0  0  0  0  0  0  0  0  0  0  0
   12.3103    2.4459   23.8230 C   0  0  0  0  0  0  0  0  0  0  0  0
    7.6390   -0.2680   18.5410 C   0  0  0  0  0  0  0  0  0  0  0  0
   13.6541    2.1467   23.8683 C   0  0  0  0  0  0  0  0  0  0  0  0
   12.2649    0.1280   23.6577 C   0  0  0  0  0  0  0  0  0  0  0  0
    6.1790    0.5730   19.9990 C   0  0  0  0  0  0  0  0  0  0  0  0
   11.5054    1.2766   23.7012 C   0  0  0  0  0  0  0  0  0  0  0  0
    5.8300    0.9190   18.6970 C   0  0  0  0  0  0  0  0  0  0  0  0
    9.3350   -1.0880   23.5010 C   0  0  0  0  0  0  0  0  0  0  0  0
    7.3170   -0.1610   19.8550 C   0  0  0  0  0  0  0  0  0  0  0  0
    9.3070   -3.5340   24.8780 C   0  0  0  0  0  0  0  0  0  0  0  0
    9.0420    0.3700   21.5280 C   0  0  0  0  0  0  0  0  0  0  0  0
    8.8720   -4.6805   26.9013 C   0  0  0  0  0  0  0  0  0  0  0  0
   10.0059    1.2962   23.6279 C   0  0  0  0  0  0  0  0  0  0  0  0
    6.7580    0.3810   17.8350 N   0  0  0  0  0  0  0  0  0  0  0  0
    8.1890   -0.7180   20.8700 N   0  0  0  0  0  0  0  0  0  0  0  0
    9.4560    0.1560   22.8130 N   0  0  0  0  0  0  0  0  0  0  0  0
    9.2690    1.4140   20.9380 O   0  0  0  0  0  0  0  0  0  0  0  0
    9.2555   -4.7124   25.5274 O   0  0  0  0  0  0  0  0  0  0  0  0
   13.9410    0.4617   23.7640 S   0  0  0  0  0  0  0  0  0  0  0  0
    3.6453    2.0152   21.6831 H   0  0  0  0  0  0  0  0  0  0  0  0
    3.0147    2.6520   19.3913 H   0  0  0  0  0  0  0  0  0  0  0  0
    5.6991    0.6995   22.1042 H   0  0  0  0  0  0  0  0  0  0  0  0
    4.4051    1.9733   17.4488 H   0  0  0  0  0  0  0  0  0  0  0  0
    8.9221   -0.1995   25.4231 H   0  0  0  0  0  0  0  0  0  0  0  0
   10.0642   -2.2347   21.8253 H   0  0  0  0  0  0  0  0  0  0  0  0
    8.6902   -2.3588   26.5805 H   0  0  0  0  0  0  0  0  0  0  0  0
    9.9254   -4.3921   22.9961 H   0  0  0  0  0  0  0  0  0  0  0  0
   11.9272    3.4573   23.8748 H   0  0  0  0  0  0  0  0  0  0  0  0
    8.4825   -0.7940   18.0623 H   0  0  0  0  0  0  0  0  0  0  0  0
   14.4812    2.8369   23.9569 H   0  0  0  0  0  0  0  0  0  0  0  0
   11.9198   -0.8927   23.5676 H   0  0  0  0  0  0  0  0  0  0  0  0
    8.8711   -5.6964   27.3038 H   0  0  0  0  0  0  0  0  0  0  0  0
    7.8758   -4.2402   26.9923 H   0  0  0  0  0  0  0  0  0  0  0  0
    9.5894   -4.0716   27.4566 H   0  0  0  0  0  0  0  0  0  0  0  0
    9.5695    1.2298   24.6305 H   0  0  0  0  0  0  0  0  0  0  0  0
    9.6466    2.2276   23.1778 H   0  0  0  0  0  0  0  0  0  0  0  0
    6.7266    0.4930   16.8305 H   0  0  0  0  0  0  0  0  0  0  0  0
    8.2383   -1.5634   21.0944 H   0  0  0  0  0  0  0  0  0  0  0  0
  1  2  1  0  0  0  0
  1  3  2  0  0  0  0
  2  4  2  0  0  0  0
  3 13  1  0  0  0  0
  4 15  1  0  0  0  0
  5  7  2  0  0  0  0
  5 16  1  0  0  0  0
  6  8  1  0  0  0  0
  6 16  2  0  0  0  0
  7 18  1  0  0  0  0
  8 18  2  0  0  0  0
  9 11  2  0  0  0  0
  9 14  1  0  0  0  0
 10 17  2  0  0  0  0
 10 22  1  0  0  0  0
 11 27  1  0  0  0  0
 12 14  2  0  0  0  0
 12 27  1  0  0  0  0
 13 15  2  0  0  0  0
 13 17  1  0  0  0  0
 14 21  1  0  0  0  0
 15 22  1  0  0  0  0
 16 24  1  0  0  0  0
 17 23  1  0  0  0  0
 18 26  1  0  0  0  0
 19 23  1  0  0  0  0
 19 24  1  0  0  0  0
 19 25  2  0  0  0  0
 20 26  1  0  0  0  0
 21 24  1  0  0  0  0
  1 28  1  0  0  0  0
  2 29  1  0  0  0  0
  3 30  1  0  0  0  0
  4 31  1  0  0  0  0
  5 32  1  0  0  0  0
  6 33  1  0  0  0  0
  7 34  1  0  0  0  0
  8 35  1  0  0  0  0
  9 36  1  0  0  0  0
 10 37  1  0  0  0  0
 11 38  1  0  0  0  0
 12 39  1  0  0  0  0
 20 40  1  0  0  0  0
 20 41  1  0  0  0  0
 20 42  1  0  0  0  0
 21 43  1  0  0  0  0
 21 44  1  0  0  0  0
 22 45  1  0  0  0  0
 23 46  1  0  0  0  0
M  END
> <clash_score>
0

> <docking_score>
-7.176308631896973

> <overlap_score>
0.9480866193771362

$$$$
BENZO_130_1
  -OEChem-08232013443D

 49 52  0     0  0  0  0  0  0999 V2000
    4.2750    1.7050   20.8490 C   0  0  0  0  0  0  0  0  0  0  0  0
    3.9160    2.0630   19.5520 C   0  0  0  0  0  0  0  0  0  0  0  0
   13.6449    2.1624   23.0124 C   0  0  0  0  0  0  0  0  0  0  0  0
    5.4210    0.9600   21.0930 C   0  0  0  0  0  0  0  0  0  0  0  0
   12.2519    2.1793   22.9439 C   0  0  0  0  0  0  0  0  0  0  0  0
    4.6890    1.6810   18.4640 C   0  0  0  0  0  0  0  0  0  0  0  0
    9.0720   -1.1280   24.8640 C   0  0  0  0  0  0  0  0  0  0  0  0
    9.7200   -2.2600   22.8630 C   0  0  0  0  0  0  0  0  0  0  0  0
    8.9960   -2.3380   25.5320 C   0  0  0  0  0  0  0  0  0  0  0  0
    9.6730   -3.4710   23.5300 C   0  0  0  0  0  0  0  0  0  0  0  0
   14.2915    1.2427   23.8381 C   0  0  0  0  0  0  0  0  0  0  0  0
   12.1520    0.3569   24.5269 C   0  0  0  0  0  0  0  0  0  0  0  0
    7.6390   -0.2680   18.5410 C   0  0  0  0  0  0  0  0  0  0  0  0
    6.1790    0.5730   19.9990 C   0  0  0  0  0  0  0  0  0  0  0  0
   11.5054    1.2766   23.7012 C   0  0  0  0  0  0  0  0  0  0  0  0
    5.8300    0.9190   18.6970 C   0  0  0  0  0  0  0  0  0  0  0  0
    9.3350   -1.0880   23.5010 C   0  0  0  0  0  0  0  0  0  0  0  0
    7.3170   -0.1610   19.8550 C   0  0  0  0  0  0  0  0  0  0  0  0
    9.3070   -3.5340   24.8780 C   0  0  0  0  0  0  0  0  0  0  0  0
   13.5450    0.3400   24.5954 C   0  0  0  0  0  0  0  0  0  0  0  0
    9.0420    0.3700   21.5280 C   0  0  0  0  0  0  0  0  0  0  0  0
    8.8720   -4.6805   26.9013 C   0  0  0  0  0  0  0  0  0  0  0  0
   10.0059    1.2962   23.6279 C   0  0  0  0  0  0  0  0  0  0  0  0
    6.7580    0.3810   17.8350 N   0  0  0  0  0  0  0  0  0  0  0  0
    8.1890   -0.7180   20.8700 N   0  0  0  0  0  0  0  0  0  0  0  0
    9.4560    0.1560   22.8130 N   0  0  0  0  0  0  0  0  0  0  0  0
    9.2690    1.4140   20.9380 O   0  0  0  0  0  0  0  0  0  0  0  0
    9.2555   -4.7124   25.5274 O   0  0  0  0  0  0  0  0  0  0  0  0
   14.3433   -0.7938   25.6148 Cl  0  0  0  0  0  0  0  0  0  0  0  0
    3.6453    2.0152   21.6831 H   0  0  0  0  0  0  0  0  0  0  0  0
    3.0147    2.6520   19.3913 H   0  0  0  0  0  0  0  0  0  0  0  0
   14.2258    2.8656   22.4226 H   0  0  0  0  0  0  0  0  0  0  0  0
    5.6991    0.6995   22.1042 H   0  0  0  0  0  0  0  0  0  0  0  0
   11.7565    2.8995   22.2979 H   0  0  0  0  0  0  0  0  0  0  0  0
    4.4051    1.9733   17.4488 H   0  0  0  0  0  0  0  0  0  0  0  0
    8.9221   -0.1995   25.4231 H   0  0  0  0  0  0  0  0  0  0  0  0
   10.0642   -2.2347   21.8253 H   0  0  0  0  0  0  0  0  0  0  0  0
    8.6902   -2.3588   26.5805 H   0  0  0  0  0  0  0  0  0  0  0  0
    9.9254   -4.3921   22.9961 H   0  0  0  0  0  0  0  0  0  0  0  0
   15.3779    1.2411   23.8817 H   0  0  0  0  0  0  0  0  0  0  0  0
   11.5654   -0.3452   25.1150 H   0  0  0  0  0  0  0  0  0  0  0  0
    8.4825   -0.7940   18.0623 H   0  0  0  0  0  0  0  0  0  0  0  0
    8.8711   -5.6964   27.3038 H   0  0  0  0  0  0  0  0  0  0  0  0
    7.8758   -4.2402   26.9923 H   0  0  0  0  0  0  0  0  0  0  0  0
    9.5894   -4.0716   27.4566 H   0  0  0  0  0  0  0  0  0  0  0  0
    9.5695    1.2298   24.6305 H   0  0  0  0  0  0  0  0  0  0  0  0
    9.6466    2.2276   23.1778 H   0  0  0  0  0  0  0  0  0  0  0  0
    6.7266    0.4930   16.8305 H   0  0  0  0  0  0  0  0  0  0  0  0
    8.2383   -1.5634   21.0944 H   0  0  0  0  0  0  0  0  0  0  0  0
  1  2  1  0  0  0  0
  1  4  2  0  0  0  0
  2  6  2  0  0  0  0
  3  5  2  0  0  0  0
  3 11  1  0  0  0  0
  4 14  1  0  0  0  0
  5 15  1  0  0  0  0
  6 16  1  0  0  0  0
  7  9  2  0  0  0  0
  7 17  1  0  0  0  0
  8 10  1  0  0  0  0
  8 17  2  0  0  0  0
  9 19  1  0  0  0  0
 10 19  2  0  0  0  0
 11 20  2  0  0  0  0
 12 15  2  0  0  0  0
 12 20  1  0  0  0  0
 13 18  2  0  0  0  0
 13 24  1  0  0  0  0
 14 16  2  0  0  0  0
 14 18  1  0  0  0  0
 15 23  1  0  0  0  0
 16 24  1  0  0  0  0
 17 26  1  0  0  0  0
 18 25  1  0  0  0  0
 19 28  1  0  0  0  0
 20 29  1  0  0  0  0
 21 25  1  0  0  0  0
 21 26  1  0  0  0  0
 21 27  2  0  0  0  0
 22 28  1  0  0  0  0
 23 26  1  0  0  0  0
  1 30  1  0  0  0  0
  2 31  1  0  0  0  0
  3 32  1  0  0  0  0
  4 33  1  0  0  0  0
  5 34  1  0  0  0  0
  6 35  1  0  0  0  0
  7 36  1  0  0  0  0
  8 37  1  0  0  0  0
  9 38  1  0  0  0  0
 10 39  1  0  0  0  0
 11 40  1  0  0  0  0
 12 41  1  0  0  0  0
 13 42  1  0  0  0  0
 22 43  1  0  0  0  0
 22 44  1  0  0  0  0
 22 45  1  0  0  0  0
 23 46  1  0  0  0  0
 23 47  1  0  0  0  0
 24 48  1  0  0  0  0
 25 49  1  0  0  0  0
M  END
> <clash_score>
0.6564484085739959

> <docking_score>
-6.96354866027832

> <overlap_score>
0.9653338193893433

$$$$
BENZO_131_1
  -OEChem-08232013443D

 49 52  0     0  0  0  0  0  0999 V2000
    4.2750    1.7050   20.8490 C   0  0  0  0  0  0  0  0  0  0  0  0
    3.9160    2.0630   19.5520 C   0  0  0  0  0  0  0  0  0  0  0  0
    5.4210    0.9600   21.0930 C   0  0  0  0  0  0  0  0  0  0  0  0
    4.6890    1.6810   18.4640 C   0  0  0  0  0  0  0  0  0  0  0  0
    9.0720   -1.1280   24.8640 C   0  0  0  0  0  0  0  0  0  0  0  0
    9.7200   -2.2600   22.8630 C   0  0  0  0  0  0  0  0  0  0  0  0
    8.9960   -2.3380   25.5320 C   0  0  0  0  0  0  0  0  0  0  0  0
    9.6730   -3.4710   23.5300 C   0  0  0  0  0  0  0  0  0  0  0  0
   12.4146    2.1041   23.0154 C   0  0  0  0  0  0  0  0  0  0  0  0
   12.2981    0.4470   24.4561 C   0  0  0  0  0  0  0  0  0  0  0  0
    7.6390   -0.2680   18.5410 C   0  0  0  0  0  0  0  0  0  0  0  0
    6.1790    0.5730   19.9990 C   0  0  0  0  0  0  0  0  0  0  0  0
   11.5054    1.2766   23.7012 C   0  0  0  0  0  0  0  0  0  0  0  0
    5.8300    0.9190   18.6970 C   0  0  0  0  0  0  0  0  0  0  0  0
    9.3350   -1.0880   23.5010 C   0  0  0  0  0  0  0  0  0  0  0  0
    7.3170   -0.1610   19.8550 C   0  0  0  0  0  0  0  0  0  0  0  0
    9.3070   -3.5340   24.8780 C   0  0  0  0  0  0  0  0  0  0  0  0
    9.0420    0.3700   21.5280 C   0  0  0  0  0  0  0  0  0  0  0  0
   14.7770    0.2262   24.7476 C   0  0  0  0  0  0  0  0  0  0  0  0
    8.8720   -4.6805   26.9013 C   0  0  0  0  0  0  0  0  0  0  0  0
   10.0059    1.2962   23.6279 C   0  0  0  0  0  0  0  0  0  0  0  0
   13.6876    1.8257   23.3088 N   0  0  0  0  0  0  0  0  0  0  0  0
    6.7580    0.3810   17.8350 N   0  0  0  0  0  0  0  0  0  0  0  0
   13.5839    0.8141   24.1874 N   0  0  0  0  0  0  0  0  0  0  0  0
    8.1890   -0.7180   20.8700 N   0  0  0  0  0  0  0  0  0  0  0  0
    9.4560    0.1560   22.8130 N   0  0  0  0  0  0  0  0  0  0  0  0
    9.2690    1.4140   20.9380 O   0  0  0  0  0  0  0  0  0  0  0  0
    9.2555   -4.7124   25.5274 O   0  0  0  0  0  0  0  0  0  0  0  0
    3.6453    2.0152   21.6831 H   0  0  0  0  0  0  0  0  0  0  0  0
    3.0147    2.6520   19.3913 H   0  0  0  0  0  0  0  0  0  0  0  0
    5.6991    0.6995   22.1042 H   0  0  0  0  0  0  0  0  0  0  0  0
    4.4051    1.9733   17.4488 H   0  0  0  0  0  0  0  0  0  0  0  0
    8.9221   -0.1995   25.4231 H   0  0  0  0  0  0  0  0  0  0  0  0
   10.0642   -2.2347   21.8253 H   0  0  0  0  0  0  0  0  0  0  0  0
    8.6902   -2.3588   26.5805 H   0  0  0  0  0  0  0  0  0  0  0  0
    9.9254   -4.3921   22.9961 H   0  0  0  0  0  0  0  0  0  0  0  0
   12.2051    2.8996   22.3144 H   0  0  0  0  0  0  0  0  0  0  0  0
   12.0626   -0.3524   25.1455 H   0  0  0  0  0  0  0  0  0  0  0  0
    8.4825   -0.7940   18.0623 H   0  0  0  0  0  0  0  0  0  0  0  0
   15.0871   -0.5943   24.0952 H   0  0  0  0  0  0  0  0  0  0  0  0
   15.5627    0.9844   24.8081 H   0  0  0  0  0  0  0  0  0  0  0  0
   14.5593   -0.1447   25.7531 H   0  0  0  0  0  0  0  0  0  0  0  0
    8.8711   -5.6964   27.3038 H   0  0  0  0  0  0  0  0  0  0  0  0
    7.8758   -4.2402   26.9923 H   0  0  0  0  0  0  0  0  0  0  0  0
    9.5894   -4.0716   27.4566 H   0  0  0  0  0  0  0  0  0  0  0  0
    9.5695    1.2298   24.6305 H   0  0  0  0  0  0  0  0  0  0  0  0
    9.6466    2.2276   23.1778 H   0  0  0  0  0  0  0  0  0  0  0  0
    6.7266    0.4930   16.8305 H   0  0  0  0  0  0  0  0  0  0  0  0
    8.2383   -1.5634   21.0944 H   0  0  0  0  0  0  0  0  0  0  0  0
  1  2  1  0  0  0  0
  1  3  2  0  0  0  0
  2  4  2  0  0  0  0
  3 12  1  0  0  0  0
  4 14  1  0  0  0  0
  5  7  2  0  0  0  0
  5 15  1  0  0  0  0
  6  8  1  0  0  0  0
  6 15  2  0  0  0  0
  7 17  1  0  0  0  0
  8 17  2  0  0  0  0
  9 13  1  0  0  0  0
  9 22  2  0  0  0  0
 10 13  2  0  0  0  0
 10 24  1  0  0  0  0
 11 16  2  0  0  0  0
 11 23  1  0  0  0  0
 12 14  2  0  0  0  0
 12 16  1  0  0  0  0
 13 21  1  0  0  0  0
 14 23  1  0  0  0  0
 15 26  1  0  0  0  0
 16 25  1  0  0  0  0
 17 28  1  0  0  0  0
 18 25  1  0  0  0  0
 18 26  1  0  0  0  0
 18 27  2  0  0  0  0
 19 24  1  0  0  0  0
 20 28  1  0  0  0  0
 21 26  1  0  0  0  0
 22 24  1  0  0  0  0
  1 29  1  0  0  0  0
  2 30  1  0  0  0  0
  3 31  1  0  0  0  0
  4 32  1  0  0  0  0
  5 33  1  0  0  0  0
  6 34  1  0  0  0  0
  7 35  1  0  0  0  0
  8 36  1  0  0  0  0
  9 37  1  0  0  0  0
 10 38  1  0  0  0  0
 11 39  1  0  0  0  0
 19 40  1  0  0  0  0
 19 41  1  0  0  0  0
 19 42  1  0  0  0  0
 20 43  1  0  0  0  0
 20 44  1  0  0  0  0
 20 45  1  0  0  0  0
 21 46  1  0  0  0  0
 21 47  1  0  0  0  0
 23 48  1  0  0  0  0
 25 49  1  0  0  0  0
M  END
> <clash_score>
0

> <docking_score>
-7.72174072265625

> <overlap_score>
0.9612186551094055

$$$$
BENZO_133_1
  -OEChem-08232013443D

 59 63  0     0  0  0  0  0  0999 V2000
   14.2901    1.2070   23.8342 C   0  0  0  0  0  0  0  0  0  0  0  0
    4.2750    1.7050   20.8490 C   0  0  0  0  0  0  0  0  0  0  0  0
   13.5239    0.5665   24.8080 C   0  0  0  0  0  0  0  0  0  0  0  0
   13.6638    1.8841   22.7878 C   0  0  0  0  0  0  0  0  0  0  0  0
    3.9160    2.0630   19.5520 C   0  0  0  0  0  0  0  0  0  0  0  0
    5.4210    0.9600   21.0930 C   0  0  0  0  0  0  0  0  0  0  0  0
   12.1314    0.6030   24.7354 C   0  0  0  0  0  0  0  0  0  0  0  0
   12.2713    1.9205   22.7152 C   0  0  0  0  0  0  0  0  0  0  0  0
    4.6890    1.6810   18.4640 C   0  0  0  0  0  0  0  0  0  0  0  0
    8.9960   -2.3380   25.5320 C   0  0  0  0  0  0  0  0  0  0  0  0
    9.6730   -3.4710   23.5300 C   0  0  0  0  0  0  0  0  0  0  0  0
    9.0720   -1.1280   24.8640 C   0  0  0  0  0  0  0  0  0  0  0  0
    9.7200   -2.2600   22.8630 C   0  0  0  0  0  0  0  0  0  0  0  0
    7.6390   -0.2680   18.5410 C   0  0  0  0  0  0  0  0  0  0  0  0
    6.1790    0.5730   19.9990 C   0  0  0  0  0  0  0  0  0  0  0  0
   11.5051    1.2800   23.6890 C   0  0  0  0  0  0  0  0  0  0  0  0
    5.8300    0.9190   18.6970 C   0  0  0  0  0  0  0  0  0  0  0  0
    9.3070   -3.5340   24.8780 C   0  0  0  0  0  0  0  0  0  0  0  0
    9.3350   -1.0880   23.5010 C   0  0  0  0  0  0  0  0  0  0  0  0
    7.3170   -0.1610   19.8550 C   0  0  0  0  0  0  0  0  0  0  0  0
    8.3597   -5.0073   26.6307 C   0  0  0  0  0  0  0  0  0  0  0  0
    9.0420    0.3700   21.5280 C   0  0  0  0  0  0  0  0  0  0  0  0
    8.4720   -6.3981   27.2296 C   0  0  0  0  0  0  0  0  0  0  0  0
    9.9252   -6.7605   27.4803 C   0  0  0  0  0  0  0  0  0  0  0  0
   10.7833   -6.6094   26.2282 C   0  0  0  0  0  0  0  0  0  0  0  0
   10.0539   -5.9099   25.0823 C   0  0  0  0  0  0  0  0  0  0  0  0
   10.0063    1.3195   23.6101 C   0  0  0  0  0  0  0  0  0  0  0  0
    6.7580    0.3810   17.8350 N   0  0  0  0  0  0  0  0  0  0  0  0
    9.2529   -4.7797   25.5644 N   0  0  0  0  0  0  0  0  0  0  0  0
    8.1890   -0.7180   20.8700 N   0  0  0  0  0  0  0  0  0  0  0  0
    9.4560    0.1560   22.8130 N   0  0  0  0  0  0  0  0  0  0  0  0
    7.4954   -4.2356   27.0449 O   0  0  0  0  0  0  0  0  0  0  0  0
    9.2690    1.4140   20.9380 O   0  0  0  0  0  0  0  0  0  0  0  0
   15.3743    1.1796   23.8917 H   0  0  0  0  0  0  0  0  0  0  0  0
    3.6453    2.0152   21.6831 H   0  0  0  0  0  0  0  0  0  0  0  0
   14.0114    0.0402   25.6235 H   0  0  0  0  0  0  0  0  0  0  0  0
   14.2600    2.3838   22.0300 H   0  0  0  0  0  0  0  0  0  0  0  0
    3.0147    2.6520   19.3913 H   0  0  0  0  0  0  0  0  0  0  0  0
    5.6991    0.6995   22.1042 H   0  0  0  0  0  0  0  0  0  0  0  0
   11.5425    0.1009   25.4985 H   0  0  0  0  0  0  0  0  0  0  0  0
   11.7920    2.4504   21.8962 H   0  0  0  0  0  0  0  0  0  0  0  0
    4.4051    1.9733   17.4488 H   0  0  0  0  0  0  0  0  0  0  0  0
    8.6895   -2.3529   26.5807 H   0  0  0  0  0  0  0  0  0  0  0  0
    9.9262   -4.3897   22.9916 H   0  0  0  0  0  0  0  0  0  0  0  0
    8.9224   -0.1998   25.4238 H   0  0  0  0  0  0  0  0  0  0  0  0
   10.0649   -2.2343   21.8258 H   0  0  0  0  0  0  0  0  0  0  0  0
    8.4825   -0.7940   18.0623 H   0  0  0  0  0  0  0  0  0  0  0  0
    7.9325   -6.4148   28.1641 H   0  0  0  0  0  0  0  0  0  0  0  0
    8.0254   -7.0920   26.5333 H   0  0  0  0  0  0  0  0  0  0  0  0
   10.3387   -6.1267   28.2923 H   0  0  0  0  0  0  0  0  0  0  0  0
    9.9904   -7.8023   27.8537 H   0  0  0  0  0  0  0  0  0  0  0  0
   11.7037   -6.0404   26.4771 H   0  0  0  0  0  0  0  0  0  0  0  0
   11.1411   -7.6068   25.8918 H   0  0  0  0  0  0  0  0  0  0  0  0
   10.7782   -5.5162   24.3756 H   0  0  0  0  0  0  0  0  0  0  0  0
    9.4042   -6.6189   24.5807 H   0  0  0  0  0  0  0  0  0  0  0  0
    9.5651    1.2527   24.6105 H   0  0  0  0  0  0  0  0  0  0  0  0
    9.6608    2.2581   23.1642 H   0  0  0  0  0  0  0  0  0  0  0  0
    6.7266    0.4930   16.8305 H   0  0  0  0  0  0  0  0  0  0  0  0
    8.2565   -1.5523   21.1108 H   0  0  0  0  0  0  0  0  0  0  0  0
  1  3  1  0  0  0  0
  1  4  2  0  0  0  0
  2  5  1  0  0  0  0
  2  6  2  0  0  0  0
  3  7  2  0  0  0  0
  4  8  1  0  0  0  0
  5  9  2  0  0  0  0
  6 15  1  0  0  0  0
  7 16  1  0  0  0  0
  8 16  2  0  0  0  0
  9 17  1  0  0  0  0
 10 12  2  0  0  0  0
 10 18  1  0  0  0  0
 11 13  1  0  0  0  0
 11 18  2  0  0  0  0
 12 19  1  0  0  0  0
 13 19  2  0  0  0  0
 14 20  2  0  0  0  0
 14 28  1  0  0  0  0
 15 17  2  0  0  0  0
 15 20  1  0  0  0  0
 16 27  1  0  0  0  0
 17 28  1  0  0  0  0
 18 29  1  0  0  0  0
 19 31  1  0  0  0  0
 20 30  1  0  0  0  0
 21 23  1  0  0  0  0
 21 29  1  0  0  0  0
 21 32  2  0  0  0  0
 22 30  1  0  0  0  0
 22 31  1  0  0  0  0
 22 33  2  0  0  0  0
 23 24  1  0  0  0  0
 24 25  1  0  0  0  0
 25 26  1  0  0  0  0
 26 29  1  0  0  0  0
 27 31  1  0  0  0  0
  1 34  1  0  0  0  0
  2 35  1  0  0  0  0
  3 36  1  0  0  0  0
  4 37  1  0  0  0  0
  5 38  1  0  0  0  0
  6 39  1  0  0  0  0
  7 40  1  0  0  0  0
  8 41  1  0  0  0  0
  9 42  1  0  0  0  0
 10 43  1  0  0  0  0
 11 44  1  0  0  0  0
 12 45  1  0  0  0  0
 13 46  1  0  0  0  0
 14 47  1  0  0  0  0
 23 48  1  0  0  0  0
 23 49  1  0  0  0  0
 24 50  1  0  0  0  0
 24 51  1  0  0  0  0
 25 52  1  0  0  0  0
 25 53  1  0  0  0  0
 26 54  1  0  0  0  0
 26 55  1  0  0  0  0
 27 56  1  0  0  0  0
 27 57  1  0  0  0  0
 28 58  1  0  0  0  0
 30 59  1  0  0  0  0
M  END
> <clash_score>
0.7790751876189459

> <docking_score>
-7.502389430999756

> <overlap_score>
1.0030076503753662

$$$$
BENZO_132_1
  -OEChem-08232013443D

 56 60  0     0  0  0  0  0  0999 V2000
    4.2750    1.7050   20.8490 C   0  0  0  0  0  0  0  0  0  0  0  0
    3.9160    2.0630   19.5520 C   0  0  0  0  0  0  0  0  0  0  0  0
    5.4210    0.9600   21.0930 C   0  0  0  0  0  0  0  0  0  0  0  0
    4.6890    1.6810   18.4640 C   0  0  0  0  0  0  0  0  0  0  0  0
    8.9960   -2.3380   25.5320 C   0  0  0  0  0  0  0  0  0  0  0  0
    9.6730   -3.4710   23.5300 C   0  0  0  0  0  0  0  0  0  0  0  0
    9.0720   -1.1280   24.8640 C   0  0  0  0  0  0  0  0  0  0  0  0
    9.7200   -2.2600   22.8630 C   0  0  0  0  0  0  0  0  0  0  0  0
   12.3626    1.3479   22.5531 C   0  0  0  0  0  0  0  0  0  0  0  0
    7.6390   -0.2680   18.5410 C   0  0  0  0  0  0  0  0  0  0  0  0
   13.6932    1.2905   22.9051 C   0  0  0  0  0  0  0  0  0  0  0  0
   12.2130    1.1731   24.8660 C   0  0  0  0  0  0  0  0  0  0  0  0
    6.1790    0.5730   19.9990 C   0  0  0  0  0  0  0  0  0  0  0  0
   11.5051    1.2800   23.6890 C   0  0  0  0  0  0  0  0  0  0  0  0
    5.8300    0.9190   18.6970 C   0  0  0  0  0  0  0  0  0  0  0  0
    9.3070   -3.5340   24.8780 C   0  0  0  0  0  0  0  0  0  0  0  0
    9.3350   -1.0880   23.5010 C   0  0  0  0  0  0  0  0  0  0  0  0
    7.3170   -0.1610   19.8550 C   0  0  0  0  0  0  0  0  0  0  0  0
    8.3596   -5.0074   26.6308 C   0  0  0  0  0  0  0  0  0  0  0  0
    9.0420    0.3700   21.5280 C   0  0  0  0  0  0  0  0  0  0  0  0
    8.4579   -6.4047   27.2169 C   0  0  0  0  0  0  0  0  0  0  0  0
    8.4717   -7.4504   26.1159 C   0  0  0  0  0  0  0  0  0  0  0  0
    9.5645   -7.1893   25.0842 C   0  0  0  0  0  0  0  0  0  0  0  0
   10.2327   -5.8252   25.2501 C   0  0  0  0  0  0  0  0  0  0  0  0
   10.0063    1.3195   23.6101 C   0  0  0  0  0  0  0  0  0  0  0  0
    6.7580    0.3810   17.8350 N   0  0  0  0  0  0  0  0  0  0  0  0
    9.2529   -4.7798   25.5645 N   0  0  0  0  0  0  0  0  0  0  0  0
    8.1890   -0.7180   20.8700 N   0  0  0  0  0  0  0  0  0  0  0  0
    9.4560    0.1560   22.8130 N   0  0  0  0  0  0  0  0  0  0  0  0
    7.5990   -4.1865   27.1424 O   0  0  0  0  0  0  0  0  0  0  0  0
    9.2690    1.4140   20.9380 O   0  0  0  0  0  0  0  0  0  0  0  0
   13.9044    1.1553   24.5990 S   0  0  0  0  0  0  0  0  0  0  0  0
    3.6453    2.0152   21.6831 H   0  0  0  0  0  0  0  0  0  0  0  0
    3.0147    2.6520   19.3913 H   0  0  0  0  0  0  0  0  0  0  0  0
    5.6991    0.6995   22.1042 H   0  0  0  0  0  0  0  0  0  0  0  0
    4.4051    1.9733   17.4488 H   0  0  0  0  0  0  0  0  0  0  0  0
    8.6895   -2.3529   26.5807 H   0  0  0  0  0  0  0  0  0  0  0  0
    9.9262   -4.3897   22.9916 H   0  0  0  0  0  0  0  0  0  0  0  0
    8.9224   -0.1998   25.4238 H   0  0  0  0  0  0  0  0  0  0  0  0
   10.0649   -2.2343   21.8258 H   0  0  0  0  0  0  0  0  0  0  0  0
   12.0249    1.4340   21.5280 H   0  0  0  0  0  0  0  0  0  0  0  0
    8.4825   -0.7940   18.0623 H   0  0  0  0  0  0  0  0  0  0  0  0
   14.5513    1.3208   22.2486 H   0  0  0  0  0  0  0  0  0  0  0  0
   11.8219    1.1033   25.8716 H   0  0  0  0  0  0  0  0  0  0  0  0
    9.3706   -6.4745   27.7885 H   0  0  0  0  0  0  0  0  0  0  0  0
    7.6055   -6.5497   27.8636 H   0  0  0  0  0  0  0  0  0  0  0  0
    8.6095   -8.4604   26.5550 H   0  0  0  0  0  0  0  0  0  0  0  0
    7.4835   -7.4763   25.6142 H   0  0  0  0  0  0  0  0  0  0  0  0
   10.3359   -7.9850   25.1531 H   0  0  0  0  0  0  0  0  0  0  0  0
    9.1458   -7.2796   24.0582 H   0  0  0  0  0  0  0  0  0  0  0  0
   10.9408   -5.8640   26.0725 H   0  0  0  0  0  0  0  0  0  0  0  0
   10.7521   -5.5631   24.3347 H   0  0  0  0  0  0  0  0  0  0  0  0
    9.5651    1.2527   24.6105 H   0  0  0  0  0  0  0  0  0  0  0  0
    9.6608    2.2581   23.1642 H   0  0  0  0  0  0  0  0  0  0  0  0
    6.7266    0.4930   16.8305 H   0  0  0  0  0  0  0  0  0  0  0  0
    8.2565   -1.5523   21.1108 H   0  0  0  0  0  0  0  0  0  0  0  0
  1  2  1  0  0  0  0
  1  3  2  0  0  0  0
  2  4  2  0  0  0  0
  3 13  1  0  0  0  0
  4 15  1  0  0  0  0
  5  7  2  0  0  0  0
  5 16  1  0  0  0  0
  6  8  1  0  0  0  0
  6 16  2  0  0  0  0
  7 17  1  0  0  0  0
  8 17  2  0  0  0  0
  9 11  2  0  0  0  0
  9 14  1  0  0  0  0
 10 18  2  0  0  0  0
 10 26  1  0  0  0  0
 11 32  1  0  0  0  0
 12 14  2  0  0  0  0
 12 32  1  0  0  0  0
 13 15  2  0  0  0  0
 13 18  1  0  0  0  0
 14 25  1  0  0  0  0
 15 26  1  0  0  0  0
 16 27  1  0  0  0  0
 17 29  1  0  0  0  0
 18 28  1  0  0  0  0
 19 21  1  0  0  0  0
 19 27  1  0  0  0  0
 19 30  2  0  0  0  0
 20 28  1  0  0  0  0
 20 29  1  0  0  0  0
 20 31  2  0  0  0  0
 21 22  1  0  0  0  0
 22 23  1  0  0  0  0
 23 24  1  0  0  0  0
 24 27  1  0  0  0  0
 25 29  1  0  0  0  0
  1 33  1  0  0  0  0
  2 34  1  0  0  0  0
  3 35  1  0  0  0  0
  4 36  1  0  0  0  0
  5 37  1  0  0  0  0
  6 38  1  0  0  0  0
  7 39  1  0  0  0  0
  8 40  1  0  0  0  0
  9 41  1  0  0  0  0
 10 42  1  0  0  0  0
 11 43  1  0  0  0  0
 12 44  1  0  0  0  0
 21 45  1  0  0  0  0
 21 46  1  0  0  0  0
 22 47  1  0  0  0  0
 22 48  1  0  0  0  0
 23 49  1  0  0  0  0
 23 50  1  0  0  0  0
 24 51  1  0  0  0  0
 24 52  1  0  0  0  0
 25 53  1  0  0  0  0
 25 54  1  0  0  0  0
 26 55  1  0  0  0  0
 28 56  1  0  0  0  0
M  END
> <clash_score>
0.6354466317061015

> <docking_score>
-7.456240653991699

> <overlap_score>
0.9860453009605408

$$$$
BENZO_137_1
  -OEChem-08232013443D

 58 62  0     0  0  0  0  0  0999 V2000
   14.2916    1.2405   23.8360 C   0  0  0  0  0  0  0  0  0  0  0  0
    4.2750    1.7050   20.8490 C   0  0  0  0  0  0  0  0  0  0  0  0
   13.5382    0.5663   24.7968 C   0  0  0  0  0  0  0  0  0  0  0  0
   13.6520    1.9328   22.8077 C   0  0  0  0  0  0  0  0  0  0  0  0
    3.9160    2.0630   19.5520 C   0  0  0  0  0  0  0  0  0  0  0  0
    5.4210    0.9600   21.0930 C   0  0  0  0  0  0  0  0  0  0  0  0
   12.1450    0.5843   24.7295 C   0  0  0  0  0  0  0  0  0  0  0  0
   12.2589    1.9508   22.7403 C   0  0  0  0  0  0  0  0  0  0  0  0
    4.6890    1.6810   18.4640 C   0  0  0  0  0  0  0  0  0  0  0  0
    8.9960   -2.3380   25.5320 C   0  0  0  0  0  0  0  0  0  0  0  0
    9.6730   -3.4710   23.5300 C   0  0  0  0  0  0  0  0  0  0  0  0
    9.0720   -1.1280   24.8640 C   0  0  0  0  0  0  0  0  0  0  0  0
    9.7200   -2.2600   22.8630 C   0  0  0  0  0  0  0  0  0  0  0  0
    7.6390   -0.2680   18.5410 C   0  0  0  0  0  0  0  0  0  0  0  0
    6.1790    0.5730   19.9990 C   0  0  0  0  0  0  0  0  0  0  0  0
   11.5054    1.2766   23.7012 C   0  0  0  0  0  0  0  0  0  0  0  0
    5.8300    0.9190   18.6970 C   0  0  0  0  0  0  0  0  0  0  0  0
    9.3070   -3.5340   24.8780 C   0  0  0  0  0  0  0  0  0  0  0  0
    9.3350   -1.0880   23.5010 C   0  0  0  0  0  0  0  0  0  0  0  0
    7.3170   -0.1610   19.8550 C   0  0  0  0  0  0  0  0  0  0  0  0
    9.0420    0.3700   21.5280 C   0  0  0  0  0  0  0  0  0  0  0  0
   10.0771   -5.0255   26.7193 C   0  0  0  0  0  0  0  0  0  0  0  0
    8.0926   -5.6195   25.4071 C   0  0  0  0  0  0  0  0  0  0  0  0
    9.1933   -4.9428   27.9592 C   0  0  0  0  0  0  0  0  0  0  0  0
    7.2756   -5.5290   26.6967 C   0  0  0  0  0  0  0  0  0  0  0  0
   10.0059    1.2962   23.6279 C   0  0  0  0  0  0  0  0  0  0  0  0
    6.7580    0.3810   17.8350 N   0  0  0  0  0  0  0  0  0  0  0  0
    9.2563   -4.7368   25.5413 N   0  0  0  0  0  0  0  0  0  0  0  0
    8.1890   -0.7180   20.8700 N   0  0  0  0  0  0  0  0  0  0  0  0
    9.4560    0.1560   22.8130 N   0  0  0  0  0  0  0  0  0  0  0  0
    9.2690    1.4140   20.9380 O   0  0  0  0  0  0  0  0  0  0  0  0
    8.0882   -5.8459   27.8324 O   0  0  0  0  0  0  0  0  0  0  0  0
   15.3763    1.2275   23.8893 H   0  0  0  0  0  0  0  0  0  0  0  0
    3.6453    2.0152   21.6831 H   0  0  0  0  0  0  0  0  0  0  0  0
   14.0360    0.0281   25.5982 H   0  0  0  0  0  0  0  0  0  0  0  0
   14.2383    2.4587   22.0601 H   0  0  0  0  0  0  0  0  0  0  0  0
    3.0147    2.6520   19.3913 H   0  0  0  0  0  0  0  0  0  0  0  0
    5.6991    0.6995   22.1042 H   0  0  0  0  0  0  0  0  0  0  0  0
   11.5661    0.0560   25.4824 H   0  0  0  0  0  0  0  0  0  0  0  0
   11.7692    2.4927   21.9356 H   0  0  0  0  0  0  0  0  0  0  0  0
    4.4051    1.9733   17.4488 H   0  0  0  0  0  0  0  0  0  0  0  0
    8.6905   -2.3533   26.5810 H   0  0  0  0  0  0  0  0  0  0  0  0
    9.9266   -4.3896   22.9917 H   0  0  0  0  0  0  0  0  0  0  0  0
    8.9233   -0.1992   25.4232 H   0  0  0  0  0  0  0  0  0  0  0  0
   10.0650   -2.2330   21.8256 H   0  0  0  0  0  0  0  0  0  0  0  0
    8.4825   -0.7940   18.0623 H   0  0  0  0  0  0  0  0  0  0  0  0
   10.9044   -4.3143   26.8097 H   0  0  0  0  0  0  0  0  0  0  0  0
   10.4942   -6.0352   26.6309 H   0  0  0  0  0  0  0  0  0  0  0  0
    8.4337   -6.6478   25.2594 H   0  0  0  0  0  0  0  0  0  0  0  0
    7.4706   -5.3291   24.5580 H   0  0  0  0  0  0  0  0  0  0  0  0
    9.7635   -5.2398   28.8419 H   0  0  0  0  0  0  0  0  0  0  0  0
    8.8236   -3.9269   28.1248 H   0  0  0  0  0  0  0  0  0  0  0  0
    6.8338   -4.5337   26.8232 H   0  0  0  0  0  0  0  0  0  0  0  0
    6.4549   -6.2521   26.6643 H   0  0  0  0  0  0  0  0  0  0  0  0
    9.5695    1.2298   24.6305 H   0  0  0  0  0  0  0  0  0  0  0  0
    9.6466    2.2276   23.1778 H   0  0  0  0  0  0  0  0  0  0  0  0
    6.7266    0.4930   16.8305 H   0  0  0  0  0  0  0  0  0  0  0  0
    8.2383   -1.5634   21.0944 H   0  0  0  0  0  0  0  0  0  0  0  0
  1  3  1  0  0  0  0
  1  4  2  0  0  0  0
  2  5  1  0  0  0  0
  2  6  2  0  0  0  0
  3  7  2  0  0  0  0
  4  8  1  0  0  0  0
  5  9  2  0  0  0  0
  6 15  1  0  0  0  0
  7 16  1  0  0  0  0
  8 16  2  0  0  0  0
  9 17  1  0  0  0  0
 10 12  2  0  0  0  0
 10 18  1  0  0  0  0
 11 13  1  0  0  0  0
 11 18  2  0  0  0  0
 12 19  1  0  0  0  0
 13 19  2  0  0  0  0
 14 20  2  0  0  0  0
 14 27  1  0  0  0  0
 15 17  2  0  0  0  0
 15 20  1  0  0  0  0
 16 26  1  0  0  0  0
 17 27  1  0  0  0  0
 18 28  1  0  0  0  0
 19 30  1  0  0  0  0
 20 29  1  0  0  0  0
 21 29  1  0  0  0  0
 21 30  1  0  0  0  0
 21 31  2  0  0  0  0
 22 24  1  0  0  0  0
 22 28  1  0  0  0  0
 23 25  1  0  0  0  0
 23 28  1  0  0  0  0
 24 32  1  0  0  0  0
 25 32  1  0  0  0  0
 26 30  1  0  0  0  0
  1 33  1  0  0  0  0
  2 34  1  0  0  0  0
  3 35  1  0  0  0  0
  4 36  1  0  0  0  0
  5 37  1  0  0  0  0
  6 38  1  0  0  0  0
  7 39  1  0  0  0  0
  8 40  1  0  0  0  0
  9 41  1  0  0  0  0
 10 42  1  0  0  0  0
 11 43  1  0  0  0  0
 12 44  1  0  0  0  0
 13 45  1  0  0  0  0
 14 46  1  0  0  0  0
 22 47  1  0  0  0  0
 22 48  1  0  0  0  0
 23 49  1  0  0  0  0
 23 50  1  0  0  0  0
 24 51  1  0  0  0  0
 24 52  1  0  0  0  0
 25 53  1  0  0  0  0
 25 54  1  0  0  0  0
 26 55  1  0  0  0  0
 26 56  1  0  0  0  0
 27 57  1  0  0  0  0
 29 58  1  0  0  0  0
M  END
> <clash_score>
0

> <docking_score>
-8.456671714782715

> <overlap_score>
0.9898468255996704

$$$$
BENZO_134_1
  -OEChem-08232013443D

 59 63  0     0  0  0  0  0  0999 V2000
    4.2750    1.7050   20.8490 C   0  0  0  0  0  0  0  0  0  0  0  0
    3.9160    2.0630   19.5520 C   0  0  0  0  0  0  0  0  0  0  0  0
   13.6586    2.1422   23.0138 C   0  0  0  0  0  0  0  0  0  0  0  0
    5.4210    0.9600   21.0930 C   0  0  0  0  0  0  0  0  0  0  0  0
   12.2662    2.1775   22.9401 C   0  0  0  0  0  0  0  0  0  0  0  0
    4.6890    1.6810   18.4640 C   0  0  0  0  0  0  0  0  0  0  0  0
    8.9960   -2.3380   25.5320 C   0  0  0  0  0  0  0  0  0  0  0  0
    9.6730   -3.4710   23.5300 C   0  0  0  0  0  0  0  0  0  0  0  0
    9.0720   -1.1280   24.8640 C   0  0  0  0  0  0  0  0  0  0  0  0
    9.7200   -2.2600   22.8630 C   0  0  0  0  0  0  0  0  0  0  0  0
   14.2900    1.2092   23.8363 C   0  0  0  0  0  0  0  0  0  0  0  0
   12.1365    0.3471   24.5116 C   0  0  0  0  0  0  0  0  0  0  0  0
    7.6390   -0.2680   18.5410 C   0  0  0  0  0  0  0  0  0  0  0  0
    6.1790    0.5730   19.9990 C   0  0  0  0  0  0  0  0  0  0  0  0
   11.5051    1.2800   23.6890 C   0  0  0  0  0  0  0  0  0  0  0  0
    5.8300    0.9190   18.6970 C   0  0  0  0  0  0  0  0  0  0  0  0
    9.3070   -3.5340   24.8780 C   0  0  0  0  0  0  0  0  0  0  0  0
    9.3350   -1.0880   23.5010 C   0  0  0  0  0  0  0  0  0  0  0  0
    7.3170   -0.1610   19.8550 C   0  0  0  0  0  0  0  0  0  0  0  0
   13.5290    0.3117   24.5853 C   0  0  0  0  0  0  0  0  0  0  0  0
    8.3597   -5.0073   26.6307 C   0  0  0  0  0  0  0  0  0  0  0  0
    9.0420    0.3700   21.5280 C   0  0  0  0  0  0  0  0  0  0  0  0
    8.4720   -6.3981   27.2296 C   0  0  0  0  0  0  0  0  0  0  0  0
    9.9252   -6.7605   27.4803 C   0  0  0  0  0  0  0  0  0  0  0  0
   10.7833   -6.6094   26.2282 C   0  0  0  0  0  0  0  0  0  0  0  0
   10.0539   -5.9099   25.0823 C   0  0  0  0  0  0  0  0  0  0  0  0
   10.0063    1.3195   23.6101 C   0  0  0  0  0  0  0  0  0  0  0  0
    6.7580    0.3810   17.8350 N   0  0  0  0  0  0  0  0  0  0  0  0
    9.2529   -4.7797   25.5644 N   0  0  0  0  0  0  0  0  0  0  0  0
    8.1890   -0.7180   20.8700 N   0  0  0  0  0  0  0  0  0  0  0  0
    9.4560    0.1560   22.8130 N   0  0  0  0  0  0  0  0  0  0  0  0
    7.4954   -4.2356   27.0449 O   0  0  0  0  0  0  0  0  0  0  0  0
    9.2690    1.4140   20.9380 O   0  0  0  0  0  0  0  0  0  0  0  0
   14.3085   -0.8384   25.6008 Cl  0  0  0  0  0  0  0  0  0  0  0  0
    3.6453    2.0152   21.6831 H   0  0  0  0  0  0  0  0  0  0  0  0
    3.0147    2.6520   19.3913 H   0  0  0  0  0  0  0  0  0  0  0  0
   14.2509    2.8413   22.4305 H   0  0  0  0  0  0  0  0  0  0  0  0
    5.6991    0.6995   22.1042 H   0  0  0  0  0  0  0  0  0  0  0  0
   11.7826    2.9079   22.2966 H   0  0  0  0  0  0  0  0  0  0  0  0
    4.4051    1.9733   17.4488 H   0  0  0  0  0  0  0  0  0  0  0  0
    8.6895   -2.3529   26.5807 H   0  0  0  0  0  0  0  0  0  0  0  0
    9.9262   -4.3897   22.9916 H   0  0  0  0  0  0  0  0  0  0  0  0
    8.9224   -0.1998   25.4238 H   0  0  0  0  0  0  0  0  0  0  0  0
   10.0649   -2.2343   21.8258 H   0  0  0  0  0  0  0  0  0  0  0  0
   15.3761    1.1934   23.8841 H   0  0  0  0  0  0  0  0  0  0  0  0
   11.5386   -0.3509   25.0931 H   0  0  0  0  0  0  0  0  0  0  0  0
    8.4825   -0.7940   18.0623 H   0  0  0  0  0  0  0  0  0  0  0  0
    7.9325   -6.4148   28.1641 H   0  0  0  0  0  0  0  0  0  0  0  0
    8.0254   -7.0920   26.5333 H   0  0  0  0  0  0  0  0  0  0  0  0
   10.3387   -6.1267   28.2923 H   0  0  0  0  0  0  0  0  0  0  0  0
    9.9904   -7.8023   27.8537 H   0  0  0  0  0  0  0  0  0  0  0  0
   11.7037   -6.0404   26.4771 H   0  0  0  0  0  0  0  0  0  0  0  0
   11.1411   -7.6068   25.8918 H   0  0  0  0  0  0  0  0  0  0  0  0
   10.7782   -5.5162   24.3756 H   0  0  0  0  0  0  0  0  0  0  0  0
    9.4042   -6.6189   24.5807 H   0  0  0  0  0  0  0  0  0  0  0  0
    9.5651    1.2527   24.6105 H   0  0  0  0  0  0  0  0  0  0  0  0
    9.6608    2.2581   23.1642 H   0  0  0  0  0  0  0  0  0  0  0  0
    6.7266    0.4930   16.8305 H   0  0  0  0  0  0  0  0  0  0  0  0
    8.2565   -1.5523   21.1108 H   0  0  0  0  0  0  0  0  0  0  0  0
  1  2  1  0  0  0  0
  1  4  2  0  0  0  0
  2  6  2  0  0  0  0
  3  5  2  0  0  0  0
  3 11  1  0  0  0  0
  4 14  1  0  0  0  0
  5 15  1  0  0  0  0
  6 16  1  0  0  0  0
  7  9  2  0  0  0  0
  7 17  1  0  0  0  0
  8 10  1  0  0  0  0
  8 17  2  0  0  0  0
  9 18  1  0  0  0  0
 10 18  2  0  0  0  0
 11 20  2  0  0  0  0
 12 15  2  0  0  0  0
 12 20  1  0  0  0  0
 13 19  2  0  0  0  0
 13 28  1  0  0  0  0
 14 16  2  0  0  0  0
 14 19  1  0  0  0  0
 15 27  1  0  0  0  0
 16 28  1  0  0  0  0
 17 29  1  0  0  0  0
 18 31  1  0  0  0  0
 19 30  1  0  0  0  0
 20 34  1  0  0  0  0
 21 23  1  0  0  0  0
 21 29  1  0  0  0  0
 21 32  2  0  0  0  0
 22 30  1  0  0  0  0
 22 31  1  0  0  0  0
 22 33  2  0  0  0  0
 23 24  1  0  0  0  0
 24 25  1  0  0  0  0
 25 26  1  0  0  0  0
 26 29  1  0  0  0  0
 27 31  1  0  0  0  0
  1 35  1  0  0  0  0
  2 36  1  0  0  0  0
  3 37  1  0  0  0  0
  4 38  1  0  0  0  0
  5 39  1  0  0  0  0
  6 40  1  0  0  0  0
  7 41  1  0  0  0  0
  8 42  1  0  0  0  0
  9 43  1  0  0  0  0
 10 44  1  0  0  0  0
 11 45  1  0  0  0  0
 12 46  1  0  0  0  0
 13 47  1  0  0  0  0
 23 48  1  0  0  0  0
 23 49  1  0  0  0  0
 24 50  1  0  0  0  0
 24 51  1  0  0  0  0
 25 52  1  0  0  0  0
 25 53  1  0  0  0  0
 26 54  1  0  0  0  0
 26 55  1  0  0  0  0
 27 56  1  0  0  0  0
 27 57  1  0  0  0  0
 28 58  1  0  0  0  0
 30 59  1  0  0  0  0
M  END
> <clash_score>
1.4506021645831106

> <docking_score>
-6.336787223815918

> <overlap_score>
1.0076640844345093

$$$$
BENZO_135_1
  -OEChem-08232013443D

 59 63  0     0  0  0  0  0  0999 V2000
    4.2750    1.7050   20.8490 C   0  0  0  0  0  0  0  0  0  0  0  0
    3.9160    2.0630   19.5520 C   0  0  0  0  0  0  0  0  0  0  0  0
    5.4210    0.9600   21.0930 C   0  0  0  0  0  0  0  0  0  0  0  0
    4.6890    1.6810   18.4640 C   0  0  0  0  0  0  0  0  0  0  0  0
    8.9960   -2.3380   25.5320 C   0  0  0  0  0  0  0  0  0  0  0  0
    9.6730   -3.4710   23.5300 C   0  0  0  0  0  0  0  0  0  0  0  0
    9.0720   -1.1280   24.8640 C   0  0  0  0  0  0  0  0  0  0  0  0
    9.7200   -2.2600   22.8630 C   0  0  0  0  0  0  0  0  0  0  0  0
   12.3069    1.1739   24.8412 C   0  0  0  0  0  0  0  0  0  0  0  0
   12.4021    1.3368   22.6504 C   0  0  0  0  0  0  0  0  0  0  0  0
    7.6390   -0.2680   18.5410 C   0  0  0  0  0  0  0  0  0  0  0  0
    6.1790    0.5730   19.9990 C   0  0  0  0  0  0  0  0  0  0  0  0
   11.5051    1.2800   23.6890 C   0  0  0  0  0  0  0  0  0  0  0  0
    5.8300    0.9190   18.6970 C   0  0  0  0  0  0  0  0  0  0  0  0
    9.3070   -3.5340   24.8780 C   0  0  0  0  0  0  0  0  0  0  0  0
    9.3350   -1.0880   23.5010 C   0  0  0  0  0  0  0  0  0  0  0  0
    7.3170   -0.1610   19.8550 C   0  0  0  0  0  0  0  0  0  0  0  0
    8.3597   -5.0073   26.6307 C   0  0  0  0  0  0  0  0  0  0  0  0
    9.0420    0.3700   21.5280 C   0  0  0  0  0  0  0  0  0  0  0  0
    8.4720   -6.3981   27.2296 C   0  0  0  0  0  0  0  0  0  0  0  0
    9.9252   -6.7605   27.4803 C   0  0  0  0  0  0  0  0  0  0  0  0
   10.7833   -6.6094   26.2282 C   0  0  0  0  0  0  0  0  0  0  0  0
   10.0539   -5.9099   25.0823 C   0  0  0  0  0  0  0  0  0  0  0  0
   14.9044    1.2854   22.5284 C   0  0  0  0  0  0  0  0  0  0  0  0
   10.0063    1.3195   23.6101 C   0  0  0  0  0  0  0  0  0  0  0  0
   13.6129    1.1635   24.5614 N   0  0  0  0  0  0  0  0  0  0  0  0
    6.7580    0.3810   17.8350 N   0  0  0  0  0  0  0  0  0  0  0  0
   13.6386    1.2638   23.2214 N   0  0  0  0  0  0  0  0  0  0  0  0
    9.2529   -4.7797   25.5644 N   0  0  0  0  0  0  0  0  0  0  0  0
    8.1890   -0.7180   20.8700 N   0  0  0  0  0  0  0  0  0  0  0  0
    9.4560    0.1560   22.8130 N   0  0  0  0  0  0  0  0  0  0  0  0
    7.4954   -4.2356   27.0449 O   0  0  0  0  0  0  0  0  0  0  0  0
    9.2690    1.4140   20.9380 O   0  0  0  0  0  0  0  0  0  0  0  0
    3.6453    2.0152   21.6831 H   0  0  0  0  0  0  0  0  0  0  0  0
    3.0147    2.6520   19.3913 H   0  0  0  0  0  0  0  0  0  0  0  0
    5.6991    0.6995   22.1042 H   0  0  0  0  0  0  0  0  0  0  0  0
    4.4051    1.9733   17.4488 H   0  0  0  0  0  0  0  0  0  0  0  0
    8.6895   -2.3529   26.5807 H   0  0  0  0  0  0  0  0  0  0  0  0
    9.9262   -4.3897   22.9916 H   0  0  0  0  0  0  0  0  0  0  0  0
    8.9224   -0.1998   25.4238 H   0  0  0  0  0  0  0  0  0  0  0  0
   10.0649   -2.2343   21.8258 H   0  0  0  0  0  0  0  0  0  0  0  0
   11.9964    1.1027   25.8740 H   0  0  0  0  0  0  0  0  0  0  0  0
   12.2692    1.4196   21.5802 H   0  0  0  0  0  0  0  0  0  0  0  0
    8.4825   -0.7940   18.0623 H   0  0  0  0  0  0  0  0  0  0  0  0
    7.9325   -6.4148   28.1641 H   0  0  0  0  0  0  0  0  0  0  0  0
    8.0254   -7.0920   26.5333 H   0  0  0  0  0  0  0  0  0  0  0  0
   10.3387   -6.1267   28.2923 H   0  0  0  0  0  0  0  0  0  0  0  0
    9.9904   -7.8023   27.8537 H   0  0  0  0  0  0  0  0  0  0  0  0
   11.7037   -6.0404   26.4771 H   0  0  0  0  0  0  0  0  0  0  0  0
   11.1411   -7.6068   25.8918 H   0  0  0  0  0  0  0  0  0  0  0  0
   10.7782   -5.5162   24.3756 H   0  0  0  0  0  0  0  0  0  0  0  0
    9.4042   -6.6189   24.5807 H   0  0  0  0  0  0  0  0  0  0  0  0
   15.2253    2.3271   22.4447 H   0  0  0  0  0  0  0  0  0  0  0  0
   15.6384    0.7034   23.0926 H   0  0  0  0  0  0  0  0  0  0  0  0
   14.7810    0.8414   21.5367 H   0  0  0  0  0  0  0  0  0  0  0  0
    9.5651    1.2527   24.6105 H   0  0  0  0  0  0  0  0  0  0  0  0
    9.6608    2.2581   23.1642 H   0  0  0  0  0  0  0  0  0  0  0  0
    6.7266    0.4930   16.8305 H   0  0  0  0  0  0  0  0  0  0  0  0
    8.2565   -1.5523   21.1108 H   0  0  0  0  0  0  0  0  0  0  0  0
  1  2  1  0  0  0  0
  1  3  2  0  0  0  0
  2  4  2  0  0  0  0
  3 12  1  0  0  0  0
  4 14  1  0  0  0  0
  5  7  2  0  0  0  0
  5 15  1  0  0  0  0
  6  8  1  0  0  0  0
  6 15  2  0  0  0  0
  7 16  1  0  0  0  0
  8 16  2  0  0  0  0
  9 13  1  0  0  0  0
  9 26  2  0  0  0  0
 10 13  2  0  0  0  0
 10 28  1  0  0  0  0
 11 17  2  0  0  0  0
 11 27  1  0  0  0  0
 12 14  2  0  0  0  0
 12 17  1  0  0  0  0
 13 25  1  0  0  0  0
 14 27  1  0  0  0  0
 15 29  1  0  0  0  0
 16 31  1  0  0  0  0
 17 30  1  0  0  0  0
 18 20  1  0  0  0  0
 18 29  1  0  0  0  0
 18 32  2  0  0  0  0
 19 30  1  0  0  0  0
 19 31  1  0  0  0  0
 19 33  2  0  0  0  0
 20 21  1  0  0  0  0
 21 22  1  0  0  0  0
 22 23  1  0  0  0  0
 23 29  1  0  0  0  0
 24 28  1  0  0  0  0
 25 31  1  0  0  0  0
 26 28  1  0  0  0  0
  1 34  1  0  0  0  0
  2 35  1  0  0  0  0
  3 36  1  0  0  0  0
  4 37  1  0  0  0  0
  5 38  1  0  0  0  0
  6 39  1  0  0  0  0
  7 40  1  0  0  0  0
  8 41  1  0  0  0  0
  9 42  1  0  0  0  0
 10 43  1  0  0  0  0
 11 44  1  0  0  0  0
 20 45  1  0  0  0  0
 20 46  1  0  0  0  0
 21 47  1  0  0  0  0
 21 48  1  0  0  0  0
 22 49  1  0  0  0  0
 22 50  1  0  0  0  0
 23 51  1  0  0  0  0
 23 52  1  0  0  0  0
 24 53  1  0  0  0  0
 24 54  1  0  0  0  0
 24 55  1  0  0  0  0
 25 56  1  0  0  0  0
 25 57  1  0  0  0  0
 27 58  1  0  0  0  0
 30 59  1  0  0  0  0
M  END
> <clash_score>
0.7790751876189459

> <docking_score>
-7.2858734130859375

> <overlap_score>
0.9960875511169434

$$$$
BENZO_136_1
  -OEChem-08232013443D

 55 59  0     0  0  0  0  0  0999 V2000
    4.2750    1.7050   20.8490 C   0  0  0  0  0  0  0  0  0  0  0  0
    3.9160    2.0630   19.5520 C   0  0  0  0  0  0  0  0  0  0  0  0
    5.4210    0.9600   21.0930 C   0  0  0  0  0  0  0  0  0  0  0  0
    4.6890    1.6810   18.4640 C   0  0  0  0  0  0  0  0  0  0  0  0
    8.9960   -2.3380   25.5320 C   0  0  0  0  0  0  0  0  0  0  0  0
    9.6730   -3.4710   23.5300 C   0  0  0  0  0  0  0  0  0  0  0  0
    9.0720   -1.1280   24.8640 C   0  0  0  0  0  0  0  0  0  0  0  0
    9.7200   -2.2600   22.8630 C   0  0  0  0  0  0  0  0  0  0  0  0
   12.3103    2.4459   23.8230 C   0  0  0  0  0  0  0  0  0  0  0  0
    7.6390   -0.2680   18.5410 C   0  0  0  0  0  0  0  0  0  0  0  0
   13.6541    2.1467   23.8683 C   0  0  0  0  0  0  0  0  0  0  0  0
   12.2649    0.1280   23.6577 C   0  0  0  0  0  0  0  0  0  0  0  0
    6.1790    0.5730   19.9990 C   0  0  0  0  0  0  0  0  0  0  0  0
   11.5054    1.2766   23.7012 C   0  0  0  0  0  0  0  0  0  0  0  0
    5.8300    0.9190   18.6970 C   0  0  0  0  0  0  0  0  0  0  0  0
    9.3070   -3.5340   24.8780 C   0  0  0  0  0  0  0  0  0  0  0  0
    9.3350   -1.0880   23.5010 C   0  0  0  0  0  0  0  0  0  0  0  0
    7.3170   -0.1610   19.8550 C   0  0  0  0  0  0  0  0  0  0  0  0
    9.0420    0.3700   21.5280 C   0  0  0  0  0  0  0  0  0  0  0  0
   10.0771   -5.0255   26.7193 C   0  0  0  0  0  0  0  0  0  0  0  0
    8.0926   -5.6195   25.4071 C   0  0  0  0  0  0  0  0  0  0  0  0
    9.1933   -4.9428   27.9592 C   0  0  0  0  0  0  0  0  0  0  0  0
    7.2756   -5.5290   26.6967 C   0  0  0  0  0  0  0  0  0  0  0  0
   10.0059    1.2962   23.6279 C   0  0  0  0  0  0  0  0  0  0  0  0
    6.7580    0.3810   17.8350 N   0  0  0  0  0  0  0  0  0  0  0  0
    9.2563   -4.7368   25.5413 N   0  0  0  0  0  0  0  0  0  0  0  0
    8.1890   -0.7180   20.8700 N   0  0  0  0  0  0  0  0  0  0  0  0
    9.4560    0.1560   22.8130 N   0  0  0  0  0  0  0  0  0  0  0  0
    9.2690    1.4140   20.9380 O   0  0  0  0  0  0  0  0  0  0  0  0
    8.0882   -5.8459   27.8324 O   0  0  0  0  0  0  0  0  0  0  0  0
   13.9410    0.4617   23.7639 S   0  0  0  0  0  0  0  0  0  0  0  0
    3.6453    2.0152   21.6831 H   0  0  0  0  0  0  0  0  0  0  0  0
    3.0147    2.6520   19.3913 H   0  0  0  0  0  0  0  0  0  0  0  0
    5.6991    0.6995   22.1042 H   0  0  0  0  0  0  0  0  0  0  0  0
    4.4051    1.9733   17.4488 H   0  0  0  0  0  0  0  0  0  0  0  0
    8.6905   -2.3533   26.5810 H   0  0  0  0  0  0  0  0  0  0  0  0
    9.9266   -4.3896   22.9917 H   0  0  0  0  0  0  0  0  0  0  0  0
    8.9233   -0.1992   25.4232 H   0  0  0  0  0  0  0  0  0  0  0  0
   10.0650   -2.2330   21.8256 H   0  0  0  0  0  0  0  0  0  0  0  0
   11.9272    3.4573   23.8748 H   0  0  0  0  0  0  0  0  0  0  0  0
    8.4825   -0.7940   18.0623 H   0  0  0  0  0  0  0  0  0  0  0  0
   14.4812    2.8369   23.9569 H   0  0  0  0  0  0  0  0  0  0  0  0
   11.9198   -0.8927   23.5676 H   0  0  0  0  0  0  0  0  0  0  0  0
   10.9044   -4.3143   26.8097 H   0  0  0  0  0  0  0  0  0  0  0  0
   10.4942   -6.0352   26.6309 H   0  0  0  0  0  0  0  0  0  0  0  0
    8.4337   -6.6478   25.2594 H   0  0  0  0  0  0  0  0  0  0  0  0
    7.4706   -5.3291   24.5580 H   0  0  0  0  0  0  0  0  0  0  0  0
    9.7635   -5.2398   28.8419 H   0  0  0  0  0  0  0  0  0  0  0  0
    8.8236   -3.9269   28.1248 H   0  0  0  0  0  0  0  0  0  0  0  0
    6.8338   -4.5337   26.8232 H   0  0  0  0  0  0  0  0  0  0  0  0
    6.4549   -6.2521   26.6643 H   0  0  0  0  0  0  0  0  0  0  0  0
    9.5695    1.2298   24.6305 H   0  0  0  0  0  0  0  0  0  0  0  0
    9.6466    2.2276   23.1778 H   0  0  0  0  0  0  0  0  0  0  0  0
    6.7266    0.4930   16.8305 H   0  0  0  0  0  0  0  0  0  0  0  0
    8.2383   -1.5634   21.0944 H   0  0  0  0  0  0  0  0  0  0  0  0
  1  2  1  0  0  0  0
  1  3  2  0  0  0  0
  2  4  2  0  0  0  0
  3 13  1  0  0  0  0
  4 15  1  0  0  0  0
  5  7  2  0  0  0  0
  5 16  1  0  0  0  0
  6  8  1  0  0  0  0
  6 16  2  0  0  0  0
  7 17  1  0  0  0  0
  8 17  2  0  0  0  0
  9 11  2  0  0  0  0
  9 14  1  0  0  0  0
 10 18  2  0  0  0  0
 10 25  1  0  0  0  0
 11 31  1  0  0  0  0
 12 14  2  0  0  0  0
 12 31  1  0  0  0  0
 13 15  2  0  0  0  0
 13 18  1  0  0  0  0
 14 24  1  0  0  0  0
 15 25  1  0  0  0  0
 16 26  1  0  0  0  0
 17 28  1  0  0  0  0
 18 27  1  0  0  0  0
 19 27  1  0  0  0  0
 19 28  1  0  0  0  0
 19 29  2  0  0  0  0
 20 22  1  0  0  0  0
 20 26  1  0  0  0  0
 21 23  1  0  0  0  0
 21 26  1  0  0  0  0
 22 30  1  0  0  0  0
 23 30  1  0  0  0  0
 24 28  1  0  0  0  0
  1 32  1  0  0  0  0
  2 33  1  0  0  0  0
  3 34  1  0  0  0  0
  4 35  1  0  0  0  0
  5 36  1  0  0  0  0
  6 37  1  0  0  0  0
  7 38  1  0  0  0  0
  8 39  1  0  0  0  0
  9 40  1  0  0  0  0
 10 41  1  0  0  0  0
 11 42  1  0  0  0  0
 12 43  1  0  0  0  0
 20 44  1  0  0  0  0
 20 45  1  0  0  0  0
 21 46  1  0  0  0  0
 21 47  1  0  0  0  0
 22 48  1  0  0  0  0
 22 49  1  0  0  0  0
 23 50  1  0  0  0  0
 23 51  1  0  0  0  0
 24 52  1  0  0  0  0
 24 53  1  0  0  0  0
 25 54  1  0  0  0  0
 27 55  1  0  0  0  0
M  END
> <clash_score>
0

> <docking_score>
-7.51717472076416

> <overlap_score>
0.9767770171165466

$$$$
BENZO_138_1
  -OEChem-08232013443D

 58 62  0     0  0  0  0  0  0999 V2000
    4.2750    1.7050   20.8490 C   0  0  0  0  0  0  0  0  0  0  0  0
    3.9160    2.0630   19.5520 C   0  0  0  0  0  0  0  0  0  0  0  0
   13.6449    2.1624   23.0124 C   0  0  0  0  0  0  0  0  0  0  0  0
    5.4210    0.9600   21.0930 C   0  0  0  0  0  0  0  0  0  0  0  0
   12.2519    2.1793   22.9439 C   0  0  0  0  0  0  0  0  0  0  0  0
    4.6890    1.6810   18.4640 C   0  0  0  0  0  0  0  0  0  0  0  0
    8.9960   -2.3380   25.5320 C   0  0  0  0  0  0  0  0  0  0  0  0
    9.6730   -3.4710   23.5300 C   0  0  0  0  0  0  0  0  0  0  0  0
    9.0720   -1.1280   24.8640 C   0  0  0  0  0  0  0  0  0  0  0  0
    9.7200   -2.2600   22.8630 C   0  0  0  0  0  0  0  0  0  0  0  0
   14.2915    1.2427   23.8381 C   0  0  0  0  0  0  0  0  0  0  0  0
   12.1520    0.3569   24.5269 C   0  0  0  0  0  0  0  0  0  0  0  0
    7.6390   -0.2680   18.5410 C   0  0  0  0  0  0  0  0  0  0  0  0
    6.1790    0.5730   19.9990 C   0  0  0  0  0  0  0  0  0  0  0  0
   11.5054    1.2766   23.7012 C   0  0  0  0  0  0  0  0  0  0  0  0
    5.8300    0.9190   18.6970 C   0  0  0  0  0  0  0  0  0  0  0  0
    9.3070   -3.5340   24.8780 C   0  0  0  0  0  0  0  0  0  0  0  0
    9.3350   -1.0880   23.5010 C   0  0  0  0  0  0  0  0  0  0  0  0
    7.3170   -0.1610   19.8550 C   0  0  0  0  0  0  0  0  0  0  0  0
   13.5450    0.3399   24.5954 C   0  0  0  0  0  0  0  0  0  0  0  0
    9.0420    0.3700   21.5280 C   0  0  0  0  0  0  0  0  0  0  0  0
   10.0771   -5.0255   26.7193 C   0  0  0  0  0  0  0  0  0  0  0  0
    8.0926   -5.6195   25.4071 C   0  0  0  0  0  0  0  0  0  0  0  0
    9.1933   -4.9428   27.9592 C   0  0  0  0  0  0  0  0  0  0  0  0
    7.2756   -5.5290   26.6967 C   0  0  0  0  0  0  0  0  0  0  0  0
   10.0059    1.2962   23.6279 C   0  0  0  0  0  0  0  0  0  0  0  0
    6.7580    0.3810   17.8350 N   0  0  0  0  0  0  0  0  0  0  0  0
    9.2563   -4.7368   25.5413 N   0  0  0  0  0  0  0  0  0  0  0  0
    8.1890   -0.7180   20.8700 N   0  0  0  0  0  0  0  0  0  0  0  0
    9.4560    0.1560   22.8130 N   0  0  0  0  0  0  0  0  0  0  0  0
    9.2690    1.4140   20.9380 O   0  0  0  0  0  0  0  0  0  0  0  0
    8.0882   -5.8459   27.8324 O   0  0  0  0  0  0  0  0  0  0  0  0
   14.3433   -0.7938   25.6148 Cl  0  0  0  0  0  0  0  0  0  0  0  0
    3.6453    2.0152   21.6831 H   0  0  0  0  0  0  0  0  0  0  0  0
    3.0147    2.6520   19.3913 H   0  0  0  0  0  0  0  0  0  0  0  0
   14.2258    2.8656   22.4226 H   0  0  0  0  0  0  0  0  0  0  0  0
    5.6991    0.6995   22.1042 H   0  0  0  0  0  0  0  0  0  0  0  0
   11.7565    2.8994   22.2979 H   0  0  0  0  0  0  0  0  0  0  0  0
    4.4051    1.9733   17.4488 H   0  0  0  0  0  0  0  0  0  0  0  0
    8.6905   -2.3533   26.5810 H   0  0  0  0  0  0  0  0  0  0  0  0
    9.9266   -4.3896   22.9917 H   0  0  0  0  0  0  0  0  0  0  0  0
    8.9233   -0.1992   25.4232 H   0  0  0  0  0  0  0  0  0  0  0  0
   10.0650   -2.2330   21.8256 H   0  0  0  0  0  0  0  0  0  0  0  0
   15.3779    1.2411   23.8817 H   0  0  0  0  0  0  0  0  0  0  0  0
   11.5654   -0.3452   25.1150 H   0  0  0  0  0  0  0  0  0  0  0  0
    8.4825   -0.7940   18.0623 H   0  0  0  0  0  0  0  0  0  0  0  0
   10.9044   -4.3143   26.8097 H   0  0  0  0  0  0  0  0  0  0  0  0
   10.4942   -6.0352   26.6309 H   0  0  0  0  0  0  0  0  0  0  0  0
    8.4337   -6.6478   25.2594 H   0  0  0  0  0  0  0  0  0  0  0  0
    7.4706   -5.3291   24.5580 H   0  0  0  0  0  0  0  0  0  0  0  0
    9.7635   -5.2398   28.8419 H   0  0  0  0  0  0  0  0  0  0  0  0
    8.8236   -3.9269   28.1248 H   0  0  0  0  0  0  0  0  0  0  0  0
    6.8338   -4.5337   26.8232 H   0  0  0  0  0  0  0  0  0  0  0  0
    6.4549   -6.2521   26.6643 H   0  0  0  0  0  0  0  0  0  0  0  0
    9.5695    1.2298   24.6305 H   0  0  0  0  0  0  0  0  0  0  0  0
    9.6466    2.2276   23.1778 H   0  0  0  0  0  0  0  0  0  0  0  0
    6.7266    0.4930   16.8305 H   0  0  0  0  0  0  0  0  0  0  0  0
    8.2383   -1.5634   21.0944 H   0  0  0  0  0  0  0  0  0  0  0  0
  1  2  1  0  0  0  0
  1  4  2  0  0  0  0
  2  6  2  0  0  0  0
  3  5  2  0  0  0  0
  3 11  1  0  0  0  0
  4 14  1  0  0  0  0
  5 15  1  0  0  0  0
  6 16  1  0  0  0  0
  7  9  2  0  0  0  0
  7 17  1  0  0  0  0
  8 10  1  0  0  0  0
  8 17  2  0  0  0  0
  9 18  1  0  0  0  0
 10 18  2  0  0  0  0
 11 20  2  0  0  0  0
 12 15  2  0  0  0  0
 12 20  1  0  0  0  0
 13 19  2  0  0  0  0
 13 27  1  0  0  0  0
 14 16  2  0  0  0  0
 14 19  1  0  0  0  0
 15 26  1  0  0  0  0
 16 27  1  0  0  0  0
 17 28  1  0  0  0  0
 18 30  1  0  0  0  0
 19 29  1  0  0  0  0
 20 33  1  0  0  0  0
 21 29  1  0  0  0  0
 21 30  1  0  0  0  0
 21 31  2  0  0  0  0
 22 24  1  0  0  0  0
 22 28  1  0  0  0  0
 23 25  1  0  0  0  0
 23 28  1  0  0  0  0
 24 32  1  0  0  0  0
 25 32  1  0  0  0  0
 26 30  1  0  0  0  0
  1 34  1  0  0  0  0
  2 35  1  0  0  0  0
  3 36  1  0  0  0  0
  4 37  1  0  0  0  0
  5 38  1  0  0  0  0
  6 39  1  0  0  0  0
  7 40  1  0  0  0  0
  8 41  1  0  0  0  0
  9 42  1  0  0  0  0
 10 43  1  0  0  0  0
 11 44  1  0  0  0  0
 12 45  1  0  0  0  0
 13 46  1  0  0  0  0
 22 47  1  0  0  0  0
 22 48  1  0  0  0  0
 23 49  1  0  0  0  0
 23 50  1  0  0  0  0
 24 51  1  0  0  0  0
 24 52  1  0  0  0  0
 25 53  1  0  0  0  0
 25 54  1  0  0  0  0
 26 55  1  0  0  0  0
 26 56  1  0  0  0  0
 27 57  1  0  0  0  0
 29 58  1  0  0  0  0
M  END
> <clash_score>
0.6564486965998215

> <docking_score>
-7.3043928146362305

> <overlap_score>
0.9937945604324341

$$$$
BENZO_139_1
  -OEChem-08232013443D

 58 62  0     0  0  0  0  0  0999 V2000
    4.2750    1.7050   20.8490 C   0  0  0  0  0  0  0  0  0  0  0  0
    3.9160    2.0630   19.5520 C   0  0  0  0  0  0  0  0  0  0  0  0
    5.4210    0.9600   21.0930 C   0  0  0  0  0  0  0  0  0  0  0  0
    4.6890    1.6810   18.4640 C   0  0  0  0  0  0  0  0  0  0  0  0
    8.9960   -2.3380   25.5320 C   0  0  0  0  0  0  0  0  0  0  0  0
    9.6730   -3.4710   23.5300 C   0  0  0  0  0  0  0  0  0  0  0  0
    9.0720   -1.1280   24.8640 C   0  0  0  0  0  0  0  0  0  0  0  0
    9.7200   -2.2600   22.8630 C   0  0  0  0  0  0  0  0  0  0  0  0
   12.4146    2.1041   23.0154 C   0  0  0  0  0  0  0  0  0  0  0  0
   12.2981    0.4470   24.4561 C   0  0  0  0  0  0  0  0  0  0  0  0
    7.6390   -0.2680   18.5410 C   0  0  0  0  0  0  0  0  0  0  0  0
    6.1790    0.5730   19.9990 C   0  0  0  0  0  0  0  0  0  0  0  0
   11.5054    1.2766   23.7012 C   0  0  0  0  0  0  0  0  0  0  0  0
    5.8300    0.9190   18.6970 C   0  0  0  0  0  0  0  0  0  0  0  0
    9.3070   -3.5340   24.8780 C   0  0  0  0  0  0  0  0  0  0  0  0
    9.3350   -1.0880   23.5010 C   0  0  0  0  0  0  0  0  0  0  0  0
    7.3170   -0.1610   19.8550 C   0  0  0  0  0  0  0  0  0  0  0  0
    9.0420    0.3700   21.5280 C   0  0  0  0  0  0  0  0  0  0  0  0
   10.0771   -5.0255   26.7193 C   0  0  0  0  0  0  0  0  0  0  0  0
    8.0926   -5.6195   25.4071 C   0  0  0  0  0  0  0  0  0  0  0  0
    9.1933   -4.9428   27.9592 C   0  0  0  0  0  0  0  0  0  0  0  0
    7.2756   -5.5290   26.6967 C   0  0  0  0  0  0  0  0  0  0  0  0
   14.7770    0.2262   24.7476 C   0  0  0  0  0  0  0  0  0  0  0  0
   10.0059    1.2962   23.6279 C   0  0  0  0  0  0  0  0  0  0  0  0
   13.6876    1.8257   23.3088 N   0  0  0  0  0  0  0  0  0  0  0  0
    6.7580    0.3810   17.8350 N   0  0  0  0  0  0  0  0  0  0  0  0
   13.5839    0.8141   24.1874 N   0  0  0  0  0  0  0  0  0  0  0  0
    9.2563   -4.7368   25.5413 N   0  0  0  0  0  0  0  0  0  0  0  0
    8.1890   -0.7180   20.8700 N   0  0  0  0  0  0  0  0  0  0  0  0
    9.4560    0.1560   22.8130 N   0  0  0  0  0  0  0  0  0  0  0  0
    9.2690    1.4140   20.9380 O   0  0  0  0  0  0  0  0  0  0  0  0
    8.0882   -5.8459   27.8324 O   0  0  0  0  0  0  0  0  0  0  0  0
    3.6453    2.0152   21.6831 H   0  0  0  0  0  0  0  0  0  0  0  0
    3.0147    2.6520   19.3913 H   0  0  0  0  0  0  0  0  0  0  0  0
    5.6991    0.6995   22.1042 H   0  0  0  0  0  0  0  0  0  0  0  0
    4.4051    1.9733   17.4488 H   0  0  0  0  0  0  0  0  0  0  0  0
    8.6905   -2.3533   26.5810 H   0  0  0  0  0  0  0  0  0  0  0  0
    9.9266   -4.3896   22.9917 H   0  0  0  0  0  0  0  0  0  0  0  0
    8.9233   -0.1992   25.4232 H   0  0  0  0  0  0  0  0  0  0  0  0
   10.0650   -2.2330   21.8256 H   0  0  0  0  0  0  0  0  0  0  0  0
   12.2051    2.8996   22.3144 H   0  0  0  0  0  0  0  0  0  0  0  0
   12.0626   -0.3524   25.1455 H   0  0  0  0  0  0  0  0  0  0  0  0
    8.4825   -0.7940   18.0623 H   0  0  0  0  0  0  0  0  0  0  0  0
   10.9044   -4.3143   26.8097 H   0  0  0  0  0  0  0  0  0  0  0  0
   10.4942   -6.0352   26.6309 H   0  0  0  0  0  0  0  0  0  0  0  0
    8.4337   -6.6478   25.2594 H   0  0  0  0  0  0  0  0  0  0  0  0
    7.4706   -5.3291   24.5580 H   0  0  0  0  0  0  0  0  0  0  0  0
    9.7635   -5.2398   28.8419 H   0  0  0  0  0  0  0  0  0  0  0  0
    8.8236   -3.9269   28.1248 H   0  0  0  0  0  0  0  0  0  0  0  0
    6.8338   -4.5337   26.8232 H   0  0  0  0  0  0  0  0  0  0  0  0
    6.4549   -6.2521   26.6643 H   0  0  0  0  0  0  0  0  0  0  0  0
   15.0871   -0.5943   24.0952 H   0  0  0  0  0  0  0  0  0  0  0  0
   15.5627    0.9844   24.8081 H   0  0  0  0  0  0  0  0  0  0  0  0
   14.5593   -0.1447   25.7531 H   0  0  0  0  0  0  0  0  0  0  0  0
    9.5695    1.2298   24.6305 H   0  0  0  0  0  0  0  0  0  0  0  0
    9.6466    2.2276   23.1778 H   0  0  0  0  0  0  0  0  0  0  0  0
    6.7266    0.4930   16.8305 H   0  0  0  0  0  0  0  0  0  0  0  0
    8.2383   -1.5634   21.0944 H   0  0  0  0  0  0  0  0  0  0  0  0
  1  2  1  0  0  0  0
  1  3  2  0  0  0  0
  2  4  2  0  0  0  0
  3 12  1  0  0  0  0
  4 14  1  0  0  0  0
  5  7  2  0  0  0  0
  5 15  1  0  0  0  0
  6  8  1  0  0  0  0
  6 15  2  0  0  0  0
  7 16  1  0  0  0  0
  8 16  2  0  0  0  0
  9 13  1  0  0  0  0
  9 25  2  0  0  0  0
 10 13  2  0  0  0  0
 10 27  1  0  0  0  0
 11 17  2  0  0  0  0
 11 26  1  0  0  0  0
 12 14  2  0  0  0  0
 12 17  1  0  0  0  0
 13 24  1  0  0  0  0
 14 26  1  0  0  0  0
 15 28  1  0  0  0  0
 16 30  1  0  0  0  0
 17 29  1  0  0  0  0
 18 29  1  0  0  0  0
 18 30  1  0  0  0  0
 18 31  2  0  0  0  0
 19 21  1  0  0  0  0
 19 28  1  0  0  0  0
 20 22  1  0  0  0  0
 20 28  1  0  0  0  0
 21 32  1  0  0  0  0
 22 32  1  0  0  0  0
 23 27  1  0  0  0  0
 24 30  1  0  0  0  0
 25 27  1  0  0  0  0
  1 33  1  0  0  0  0
  2 34  1  0  0  0  0
  3 35  1  0  0  0  0
  4 36  1  0  0  0  0
  5 37  1  0  0  0  0
  6 38  1  0  0  0  0
  7 39  1  0  0  0  0
  8 40  1  0  0  0  0
  9 41  1  0  0  0  0
 10 42  1  0  0  0  0
 11 43  1  0  0  0  0
 19 44  1  0  0  0  0
 19 45  1  0  0  0  0
 20 46  1  0  0  0  0
 20 47  1  0  0  0  0
 21 48  1  0  0  0  0
 21 49  1  0  0  0  0
 22 50  1  0  0  0  0
 22 51  1  0  0  0  0
 23 52  1  0  0  0  0
 23 53  1  0  0  0  0
 23 54  1  0  0  0  0
 24 55  1  0  0  0  0
 24 56  1  0  0  0  0
 26 57  1  0  0  0  0
 29 58  1  0  0  0  0
M  END
> <clash_score>
0

> <docking_score>
-8.06258773803711

> <overlap_score>
0.9897394180297852

$$$$
BENZO_141_1
  -OEChem-08232013443D

 51 54  0     0  0  0  0  0  0999 V2000
   14.2910    1.2238   23.8427 C   0  0  0  0  0  0  0  0  0  0  0  0
   13.5334    0.5538   24.8033 C   0  0  0  0  0  0  0  0  0  0  0  0
   13.6558    1.9173   22.8126 C   0  0  0  0  0  0  0  0  0  0  0  0
   12.1405    0.5773   24.7337 C   0  0  0  0  0  0  0  0  0  0  0  0
   12.2628    1.9408   22.7430 C   0  0  0  0  0  0  0  0  0  0  0  0
    9.0720   -1.1280   24.8640 C   0  0  0  0  0  0  0  0  0  0  0  0
    9.7200   -2.2600   22.8630 C   0  0  0  0  0  0  0  0  0  0  0  0
    8.9960   -2.3380   25.5320 C   0  0  0  0  0  0  0  0  0  0  0  0
    9.6730   -3.4710   23.5300 C   0  0  0  0  0  0  0  0  0  0  0  0
   11.5052    1.2707   23.7036 C   0  0  0  0  0  0  0  0  0  0  0  0
    9.3350   -1.0880   23.5010 C   0  0  0  0  0  0  0  0  0  0  0  0
    9.3070   -3.5340   24.8780 C   0  0  0  0  0  0  0  0  0  0  0  0
    5.8300    0.9190   18.6970 C   0  0  0  0  0  0  0  0  0  0  0  0
    7.3170   -0.1610   19.8550 C   0  0  0  0  0  0  0  0  0  0  0  0
    4.6890    1.6810   18.4640 C   0  0  0  0  0  0  0  0  0  0  0  0
    3.9160    2.0630   19.5520 C   0  0  0  0  0  0  0  0  0  0  0  0
    4.2750    1.7050   20.8490 C   0  0  0  0  0  0  0  0  0  0  0  0
    5.4210    0.9600   21.0930 C   0  0  0  0  0  0  0  0  0  0  0  0
    9.0420    0.3700   21.5280 C   0  0  0  0  0  0  0  0  0  0  0  0
    8.0128   -5.2151   26.1416 C   0  0  0  0  0  0  0  0  0  0  0  0
   10.4372   -5.5860   25.6588 C   0  0  0  0  0  0  0  0  0  0  0  0
   10.0059    1.2962   23.6279 C   0  0  0  0  0  0  0  0  0  0  0  0
    6.7580    0.3810   17.8350 N   0  0  0  0  0  0  0  0  0  0  0  0
    7.6390   -0.2680   18.5410 N   0  0  0  0  0  0  0  0  0  0  0  0
    6.1790    0.5730   19.9990 N   0  0  0  0  0  0  0  0  0  0  0  0
    8.1890   -0.7180   20.8700 N   0  0  0  0  0  0  0  0  0  0  0  0
    9.4560    0.1560   22.8130 N   0  0  0  0  0  0  0  0  0  0  0  0
    9.2543   -4.7552   25.5519 N   0  0  0  0  0  0  0  0  0  0  0  0
    9.2690    1.4140   20.9380 O   0  0  0  0  0  0  0  0  0  0  0  0
   15.3756    1.2066   23.8978 H   0  0  0  0  0  0  0  0  0  0  0  0
   14.0279    0.0147   25.6061 H   0  0  0  0  0  0  0  0  0  0  0  0
   14.2453    2.4400   22.0652 H   0  0  0  0  0  0  0  0  0  0  0  0
   11.5583    0.0522   25.4864 H   0  0  0  0  0  0  0  0  0  0  0  0
   11.7765    2.4836   21.9368 H   0  0  0  0  0  0  0  0  0  0  0  0
    8.9217   -0.1995   25.4232 H   0  0  0  0  0  0  0  0  0  0  0  0
   10.0643   -2.2341   21.8254 H   0  0  0  0  0  0  0  0  0  0  0  0
    8.6893   -2.3540   26.5808 H   0  0  0  0  0  0  0  0  0  0  0  0
    9.9257   -4.3898   22.9921 H   0  0  0  0  0  0  0  0  0  0  0  0
    4.3967    1.9772   17.4718 H   0  0  0  0  0  0  0  0  0  0  0  0
    3.0218    2.6486   19.3697 H   0  0  0  0  0  0  0  0  0  0  0  0
    3.6566    2.0043   21.7065 H   0  0  0  0  0  0  0  0  0  0  0  0
    5.7190    0.6877   22.0810 H   0  0  0  0  0  0  0  0  0  0  0  0
    8.1744   -6.1905   26.6238 H   0  0  0  0  0  0  0  0  0  0  0  0
    7.6718   -4.4870   26.8924 H   0  0  0  0  0  0  0  0  0  0  0  0
    7.2494   -5.3166   25.3561 H   0  0  0  0  0  0  0  0  0  0  0  0
   10.1946   -6.4995   26.2216 H   0  0  0  0  0  0  0  0  0  0  0  0
   10.7865   -5.8577   24.6518 H   0  0  0  0  0  0  0  0  0  0  0  0
   11.2285   -5.0312   26.1841 H   0  0  0  0  0  0  0  0  0  0  0  0
    9.5676    1.2268   24.6295 H   0  0  0  0  0  0  0  0  0  0  0  0
    9.6507    2.2310   23.1816 H   0  0  0  0  0  0  0  0  0  0  0  0
    8.2360   -1.5649   21.0923 H   0  0  0  0  0  0  0  0  0  0  0  0
  1  2  1  0  0  0  0
  1  3  2  0  0  0  0
  2  4  2  0  0  0  0
  3  5  1  0  0  0  0
  4 10  1  0  0  0  0
  5 10  2  0  0  0  0
  6  8  2  0  0  0  0
  6 11  1  0  0  0  0
  7  9  1  0  0  0  0
  7 11  2  0  0  0  0
  8 12  1  0  0  0  0
  9 12  2  0  0  0  0
 10 22  1  0  0  0  0
 11 27  1  0  0  0  0
 12 28  1  0  0  0  0
 13 15  1  0  0  0  0
 13 23  2  0  0  0  0
 13 25  1  0  0  0  0
 14 24  2  0  0  0  0
 14 25  1  0  0  0  0
 14 26  1  0  0  0  0
 15 16  2  0  0  0  0
 16 17  1  0  0  0  0
 17 18  2  0  0  0  0
 18 25  1  0  0  0  0
 19 26  1  0  0  0  0
 19 27  1  0  0  0  0
 19 29  2  0  0  0  0
 20 28  1  0  0  0  0
 21 28  1  0  0  0  0
 22 27  1  0  0  0  0
 23 24  1  0  0  0  0
  1 30  1  0  0  0  0
  2 31  1  0  0  0  0
  3 32  1  0  0  0  0
  4 33  1  0  0  0  0
  5 34  1  0  0  0  0
  6 35  1  0  0  0  0
  7 36  1  0  0  0  0
  8 37  1  0  0  0  0
  9 38  1  0  0  0  0
 15 39  1  0  0  0  0
 16 40  1  0  0  0  0
 17 41  1  0  0  0  0
 18 42  1  0  0  0  0
 20 43  1  0  0  0  0
 20 44  1  0  0  0  0
 20 45  1  0  0  0  0
 21 46  1  0  0  0  0
 21 47  1  0  0  0  0
 21 48  1  0  0  0  0
 22 49  1  0  0  0  0
 22 50  1  0  0  0  0
 26 51  1  0  0  0  0
M  END
> <clash_score>
0

> <docking_score>
-9.668689727783203

> <overlap_score>
0.9771738648414612

$$$$
BENZO_140_1
  -OEChem-08232013443D

 48 51  0     0  0  0  0  0  0999 V2000
    9.0720   -1.1280   24.8640 C   0  0  0  0  0  0  0  0  0  0  0  0
    9.7200   -2.2600   22.8630 C   0  0  0  0  0  0  0  0  0  0  0  0
    8.9960   -2.3380   25.5320 C   0  0  0  0  0  0  0  0  0  0  0  0
    9.6730   -3.4710   23.5300 C   0  0  0  0  0  0  0  0  0  0  0  0
   12.3141    2.4366   23.8321 C   0  0  0  0  0  0  0  0  0  0  0  0
   13.6568    2.1322   23.8782 C   0  0  0  0  0  0  0  0  0  0  0  0
   12.2605    0.1196   23.6560 C   0  0  0  0  0  0  0  0  0  0  0  0
   11.5052    1.2707   23.7036 C   0  0  0  0  0  0  0  0  0  0  0  0
    9.3350   -1.0880   23.5010 C   0  0  0  0  0  0  0  0  0  0  0  0
    9.3070   -3.5340   24.8780 C   0  0  0  0  0  0  0  0  0  0  0  0
    5.8300    0.9190   18.6970 C   0  0  0  0  0  0  0  0  0  0  0  0
    7.3170   -0.1610   19.8550 C   0  0  0  0  0  0  0  0  0  0  0  0
    4.6890    1.6810   18.4640 C   0  0  0  0  0  0  0  0  0  0  0  0
    3.9160    2.0630   19.5520 C   0  0  0  0  0  0  0  0  0  0  0  0
    4.2750    1.7050   20.8490 C   0  0  0  0  0  0  0  0  0  0  0  0
    5.4210    0.9600   21.0930 C   0  0  0  0  0  0  0  0  0  0  0  0
    9.0420    0.3700   21.5280 C   0  0  0  0  0  0  0  0  0  0  0  0
    8.0128   -5.2151   26.1416 C   0  0  0  0  0  0  0  0  0  0  0  0
   10.4372   -5.5860   25.6588 C   0  0  0  0  0  0  0  0  0  0  0  0
   10.0059    1.2962   23.6279 C   0  0  0  0  0  0  0  0  0  0  0  0
    6.7580    0.3810   17.8350 N   0  0  0  0  0  0  0  0  0  0  0  0
    7.6390   -0.2680   18.5410 N   0  0  0  0  0  0  0  0  0  0  0  0
    6.1790    0.5730   19.9990 N   0  0  0  0  0  0  0  0  0  0  0  0
    8.1890   -0.7180   20.8700 N   0  0  0  0  0  0  0  0  0  0  0  0
    9.4560    0.1560   22.8130 N   0  0  0  0  0  0  0  0  0  0  0  0
    9.2543   -4.7552   25.5519 N   0  0  0  0  0  0  0  0  0  0  0  0
    9.2690    1.4140   20.9380 O   0  0  0  0  0  0  0  0  0  0  0  0
   13.9377    0.4467   23.7665 S   0  0  0  0  0  0  0  0  0  0  0  0
    8.9217   -0.1995   25.4232 H   0  0  0  0  0  0  0  0  0  0  0  0
   10.0643   -2.2341   21.8254 H   0  0  0  0  0  0  0  0  0  0  0  0
    8.6893   -2.3540   26.5808 H   0  0  0  0  0  0  0  0  0  0  0  0
    9.9257   -4.3898   22.9921 H   0  0  0  0  0  0  0  0  0  0  0  0
   11.9346    3.4491   23.8880 H   0  0  0  0  0  0  0  0  0  0  0  0
   14.4863    2.8189   23.9714 H   0  0  0  0  0  0  0  0  0  0  0  0
   11.9119   -0.8994   23.5606 H   0  0  0  0  0  0  0  0  0  0  0  0
    4.3967    1.9772   17.4718 H   0  0  0  0  0  0  0  0  0  0  0  0
    3.0218    2.6486   19.3697 H   0  0  0  0  0  0  0  0  0  0  0  0
    3.6566    2.0043   21.7065 H   0  0  0  0  0  0  0  0  0  0  0  0
    5.7190    0.6877   22.0810 H   0  0  0  0  0  0  0  0  0  0  0  0
    8.1744   -6.1905   26.6238 H   0  0  0  0  0  0  0  0  0  0  0  0
    7.6718   -4.4870   26.8924 H   0  0  0  0  0  0  0  0  0  0  0  0
    7.2494   -5.3166   25.3561 H   0  0  0  0  0  0  0  0  0  0  0  0
   10.1946   -6.4995   26.2216 H   0  0  0  0  0  0  0  0  0  0  0  0
   10.7865   -5.8577   24.6518 H   0  0  0  0  0  0  0  0  0  0  0  0
   11.2285   -5.0312   26.1841 H   0  0  0  0  0  0  0  0  0  0  0  0
    9.5676    1.2268   24.6295 H   0  0  0  0  0  0  0  0  0  0  0  0
    9.6507    2.2310   23.1816 H   0  0  0  0  0  0  0  0  0  0  0  0
    8.2360   -1.5649   21.0923 H   0  0  0  0  0  0  0  0  0  0  0  0
  1  3  2  0  0  0  0
  1  9  1  0  0  0  0
  2  4  1  0  0  0  0
  2  9  2  0  0  0  0
  3 10  1  0  0  0  0
  4 10  2  0  0  0  0
  5  6  2  0  0  0  0
  5  8  1  0  0  0  0
  6 28  1  0  0  0  0
  7  8  2  0  0  0  0
  7 28  1  0  0  0  0
  8 20  1  0  0  0  0
  9 25  1  0  0  0  0
 10 26  1  0  0  0  0
 11 13  1  0  0  0  0
 11 21  2  0  0  0  0
 11 23  1  0  0  0  0
 12 22  2  0  0  0  0
 12 23  1  0  0  0  0
 12 24  1  0  0  0  0
 13 14  2  0  0  0  0
 14 15  1  0  0  0  0
 15 16  2  0  0  0  0
 16 23  1  0  0  0  0
 17 24  1  0  0  0  0
 17 25  1  0  0  0  0
 17 27  2  0  0  0  0
 18 26  1  0  0  0  0
 19 26  1  0  0  0  0
 20 25  1  0  0  0  0
 21 22  1  0  0  0  0
  1 29  1  0  0  0  0
  2 30  1  0  0  0  0
  3 31  1  0  0  0  0
  4 32  1  0  0  0  0
  5 33  1  0  0  0  0
  6 34  1  0  0  0  0
  7 35  1  0  0  0  0
 13 36  1  0  0  0  0
 14 37  1  0  0  0  0
 15 38  1  0  0  0  0
 16 39  1  0  0  0  0
 18 40  1  0  0  0  0
 18 41  1  0  0  0  0
 18 42  1  0  0  0  0
 19 43  1  0  0  0  0
 19 44  1  0  0  0  0
 19 45  1  0  0  0  0
 20 46  1  0  0  0  0
 20 47  1  0  0  0  0
 24 48  1  0  0  0  0
M  END
> <clash_score>
0

> <docking_score>
-8.703985214233398

> <overlap_score>
0.963859498500824

$$$$
BENZO_143_1
  -OEChem-08232013443D

 51 54  0     0  0  0  0  0  0999 V2000
    9.0720   -1.1280   24.8640 C   0  0  0  0  0  0  0  0  0  0  0  0
    9.7200   -2.2600   22.8630 C   0  0  0  0  0  0  0  0  0  0  0  0
    8.9960   -2.3380   25.5320 C   0  0  0  0  0  0  0  0  0  0  0  0
    9.6730   -3.4710   23.5300 C   0  0  0  0  0  0  0  0  0  0  0  0
   12.4186    2.0981   23.0231 C   0  0  0  0  0  0  0  0  0  0  0  0
   12.2936    0.4348   24.4559 C   0  0  0  0  0  0  0  0  0  0  0  0
   11.5052    1.2707   23.7036 C   0  0  0  0  0  0  0  0  0  0  0  0
    9.3350   -1.0880   23.5010 C   0  0  0  0  0  0  0  0  0  0  0  0
    9.3070   -3.5340   24.8780 C   0  0  0  0  0  0  0  0  0  0  0  0
    5.8300    0.9190   18.6970 C   0  0  0  0  0  0  0  0  0  0  0  0
    7.3170   -0.1610   19.8550 C   0  0  0  0  0  0  0  0  0  0  0  0
    4.6890    1.6810   18.4640 C   0  0  0  0  0  0  0  0  0  0  0  0
    3.9160    2.0630   19.5520 C   0  0  0  0  0  0  0  0  0  0  0  0
    4.2750    1.7050   20.8490 C   0  0  0  0  0  0  0  0  0  0  0  0
    5.4210    0.9600   21.0930 C   0  0  0  0  0  0  0  0  0  0  0  0
    9.0420    0.3700   21.5280 C   0  0  0  0  0  0  0  0  0  0  0  0
   14.7712    0.2036   24.7505 C   0  0  0  0  0  0  0  0  0  0  0  0
    8.0128   -5.2151   26.1416 C   0  0  0  0  0  0  0  0  0  0  0  0
   10.4372   -5.5860   25.6588 C   0  0  0  0  0  0  0  0  0  0  0  0
   10.0059    1.2962   23.6279 C   0  0  0  0  0  0  0  0  0  0  0  0
   13.6900    1.8137   23.3173 N   0  0  0  0  0  0  0  0  0  0  0  0
    6.7580    0.3810   17.8350 N   0  0  0  0  0  0  0  0  0  0  0  0
    7.6390   -0.2680   18.5410 N   0  0  0  0  0  0  0  0  0  0  0  0
   13.5812    0.7984   24.1910 N   0  0  0  0  0  0  0  0  0  0  0  0
    6.1790    0.5730   19.9990 N   0  0  0  0  0  0  0  0  0  0  0  0
    8.1890   -0.7180   20.8700 N   0  0  0  0  0  0  0  0  0  0  0  0
    9.4560    0.1560   22.8130 N   0  0  0  0  0  0  0  0  0  0  0  0
    9.2543   -4.7552   25.5519 N   0  0  0  0  0  0  0  0  0  0  0  0
    9.2690    1.4140   20.9380 O   0  0  0  0  0  0  0  0  0  0  0  0
    8.9217   -0.1995   25.4232 H   0  0  0  0  0  0  0  0  0  0  0  0
   10.0643   -2.2341   21.8254 H   0  0  0  0  0  0  0  0  0  0  0  0
    8.6893   -2.3540   26.5808 H   0  0  0  0  0  0  0  0  0  0  0  0
    9.9257   -4.3898   22.9921 H   0  0  0  0  0  0  0  0  0  0  0  0
   12.2131    2.8976   22.3254 H   0  0  0  0  0  0  0  0  0  0  0  0
   12.0541   -0.3669   25.1413 H   0  0  0  0  0  0  0  0  0  0  0  0
    4.3967    1.9772   17.4718 H   0  0  0  0  0  0  0  0  0  0  0  0
    3.0218    2.6486   19.3697 H   0  0  0  0  0  0  0  0  0  0  0  0
    3.6566    2.0043   21.7065 H   0  0  0  0  0  0  0  0  0  0  0  0
    5.7190    0.6877   22.0810 H   0  0  0  0  0  0  0  0  0  0  0  0
   15.0794   -0.6151   24.0948 H   0  0  0  0  0  0  0  0  0  0  0  0
   15.5596    0.9586   24.8157 H   0  0  0  0  0  0  0  0  0  0  0  0
   14.5504   -0.1712   25.7538 H   0  0  0  0  0  0  0  0  0  0  0  0
    8.1744   -6.1905   26.6238 H   0  0  0  0  0  0  0  0  0  0  0  0
    7.6718   -4.4870   26.8924 H   0  0  0  0  0  0  0  0  0  0  0  0
    7.2494   -5.3166   25.3561 H   0  0  0  0  0  0  0  0  0  0  0  0
   10.1946   -6.4995   26.2216 H   0  0  0  0  0  0  0  0  0  0  0  0
   10.7865   -5.8577   24.6518 H   0  0  0  0  0  0  0  0  0  0  0  0
   11.2285   -5.0312   26.1841 H   0  0  0  0  0  0  0  0  0  0  0  0
    9.5676    1.2268   24.6295 H   0  0  0  0  0  0  0  0  0  0  0  0
    9.6507    2.2310   23.1816 H   0  0  0  0  0  0  0  0  0  0  0  0
    8.2360   -1.5649   21.0923 H   0  0  0  0  0  0  0  0  0  0  0  0
  1  3  2  0  0  0  0
  1  8  1  0  0  0  0
  2  4  1  0  0  0  0
  2  8  2  0  0  0  0
  3  9  1  0  0  0  0
  4  9  2  0  0  0  0
  5  7  1  0  0  0  0
  5 21  2  0  0  0  0
  6  7  2  0  0  0  0
  6 24  1  0  0  0  0
  7 20  1  0  0  0  0
  8 27  1  0  0  0  0
  9 28  1  0  0  0  0
 10 12  1  0  0  0  0
 10 22  2  0  0  0  0
 10 25  1  0  0  0  0
 11 23  2  0  0  0  0
 11 25  1  0  0  0  0
 11 26  1  0  0  0  0
 12 13  2  0  0  0  0
 13 14  1  0  0  0  0
 14 15  2  0  0  0  0
 15 25  1  0  0  0  0
 16 26  1  0  0  0  0
 16 27  1  0  0  0  0
 16 29  2  0  0  0  0
 17 24  1  0  0  0  0
 18 28  1  0  0  0  0
 19 28  1  0  0  0  0
 20 27  1  0  0  0  0
 21 24  1  0  0  0  0
 22 23  1  0  0  0  0
  1 30  1  0  0  0  0
  2 31  1  0  0  0  0
  3 32  1  0  0  0  0
  4 33  1  0  0  0  0
  5 34  1  0  0  0  0
  6 35  1  0  0  0  0
 12 36  1  0  0  0  0
 13 37  1  0  0  0  0
 14 38  1  0  0  0  0
 15 39  1  0  0  0  0
 17 40  1  0  0  0  0
 17 41  1  0  0  0  0
 17 42  1  0  0  0  0
 18 43  1  0  0  0  0
 18 44  1  0  0  0  0
 18 45  1  0  0  0  0
 19 46  1  0  0  0  0
 19 47  1  0  0  0  0
 19 48  1  0  0  0  0
 20 49  1  0  0  0  0
 20 50  1  0  0  0  0
 26 51  1  0  0  0  0
M  END
> <clash_score>
0

> <docking_score>
-9.25446605682373

> <overlap_score>
0.9770710468292236

$$$$
BENZO_145_1
  -OEChem-08232013443D

 53 56  0     0  0  0  0  0  0999 V2000
   14.2910    1.2238   23.8427 C   0  0  0  0  0  0  0  0  0  0  0  0
   13.5334    0.5538   24.8033 C   0  0  0  0  0  0  0  0  0  0  0  0
   13.6558    1.9173   22.8126 C   0  0  0  0  0  0  0  0  0  0  0  0
   12.1405    0.5773   24.7337 C   0  0  0  0  0  0  0  0  0  0  0  0
   12.2628    1.9408   22.7430 C   0  0  0  0  0  0  0  0  0  0  0  0
    8.9960   -2.3380   25.5320 C   0  0  0  0  0  0  0  0  0  0  0  0
    9.6730   -3.4710   23.5300 C   0  0  0  0  0  0  0  0  0  0  0  0
    9.0720   -1.1280   24.8640 C   0  0  0  0  0  0  0  0  0  0  0  0
    9.7200   -2.2600   22.8630 C   0  0  0  0  0  0  0  0  0  0  0  0
   11.5052    1.2707   23.7036 C   0  0  0  0  0  0  0  0  0  0  0  0
    9.3070   -3.5340   24.8780 C   0  0  0  0  0  0  0  0  0  0  0  0
    9.3350   -1.0880   23.5010 C   0  0  0  0  0  0  0  0  0  0  0  0
    5.8300    0.9190   18.6970 C   0  0  0  0  0  0  0  0  0  0  0  0
    7.3170   -0.1610   19.8550 C   0  0  0  0  0  0  0  0  0  0  0  0
    4.6890    1.6810   18.4640 C   0  0  0  0  0  0  0  0  0  0  0  0
    3.9160    2.0630   19.5520 C   0  0  0  0  0  0  0  0  0  0  0  0
    4.2750    1.7050   20.8490 C   0  0  0  0  0  0  0  0  0  0  0  0
    5.4210    0.9600   21.0930 C   0  0  0  0  0  0  0  0  0  0  0  0
    9.5334   -6.0236   25.0414 C   0  0  0  0  0  0  0  0  0  0  0  0
    9.0420    0.3700   21.5280 C   0  0  0  0  0  0  0  0  0  0  0  0
   10.6330   -7.3746   26.8775 C   0  0  0  0  0  0  0  0  0  0  0  0
   10.0059    1.2962   23.6279 C   0  0  0  0  0  0  0  0  0  0  0  0
    9.3523   -7.0865   26.1149 C   0  0  0  0  0  0  0  0  0  0  0  0
    6.7580    0.3810   17.8350 N   0  0  0  0  0  0  0  0  0  0  0  0
    7.6390   -0.2680   18.5410 N   0  0  0  0  0  0  0  0  0  0  0  0
    6.1790    0.5730   19.9990 N   0  0  0  0  0  0  0  0  0  0  0  0
    9.2546   -4.7422   25.5438 N   0  0  0  0  0  0  0  0  0  0  0  0
    8.1890   -0.7180   20.8700 N   0  0  0  0  0  0  0  0  0  0  0  0
    9.4560    0.1560   22.8130 N   0  0  0  0  0  0  0  0  0  0  0  0
    9.8806   -6.3053   23.8992 O   0  0  0  0  0  0  0  0  0  0  0  0
    9.2690    1.4140   20.9380 O   0  0  0  0  0  0  0  0  0  0  0  0
   15.3756    1.2066   23.8978 H   0  0  0  0  0  0  0  0  0  0  0  0
   14.0279    0.0147   25.6061 H   0  0  0  0  0  0  0  0  0  0  0  0
   14.2453    2.4400   22.0652 H   0  0  0  0  0  0  0  0  0  0  0  0
   11.5583    0.0522   25.4864 H   0  0  0  0  0  0  0  0  0  0  0  0
   11.7765    2.4836   21.9368 H   0  0  0  0  0  0  0  0  0  0  0  0
    8.6895   -2.3529   26.5807 H   0  0  0  0  0  0  0  0  0  0  0  0
    9.9262   -4.3897   22.9916 H   0  0  0  0  0  0  0  0  0  0  0  0
    8.9224   -0.1998   25.4238 H   0  0  0  0  0  0  0  0  0  0  0  0
   10.0649   -2.2343   21.8258 H   0  0  0  0  0  0  0  0  0  0  0  0
    4.3967    1.9772   17.4718 H   0  0  0  0  0  0  0  0  0  0  0  0
    3.0218    2.6486   19.3697 H   0  0  0  0  0  0  0  0  0  0  0  0
    3.6566    2.0043   21.7065 H   0  0  0  0  0  0  0  0  0  0  0  0
    5.7190    0.6877   22.0810 H   0  0  0  0  0  0  0  0  0  0  0  0
   11.4241   -7.7171   26.2024 H   0  0  0  0  0  0  0  0  0  0  0  0
   10.4629   -8.1530   27.6277 H   0  0  0  0  0  0  0  0  0  0  0  0
   10.9949   -6.4779   27.3912 H   0  0  0  0  0  0  0  0  0  0  0  0
    9.5676    1.2268   24.6295 H   0  0  0  0  0  0  0  0  0  0  0  0
    9.6507    2.2310   23.1816 H   0  0  0  0  0  0  0  0  0  0  0  0
    8.5795   -6.7463   26.8138 H   0  0  0  0  0  0  0  0  0  0  0  0
    8.9966   -8.0064   25.6368 H   0  0  0  0  0  0  0  0  0  0  0  0
    8.9776   -4.7057   26.5317 H   0  0  0  0  0  0  0  0  0  0  0  0
    8.2360   -1.5649   21.0923 H   0  0  0  0  0  0  0  0  0  0  0  0
  1  2  1  0  0  0  0
  1  3  2  0  0  0  0
  2  4  2  0  0  0  0
  3  5  1  0  0  0  0
  4 10  1  0  0  0  0
  5 10  2  0  0  0  0
  6  8  2  0  0  0  0
  6 11  1  0  0  0  0
  7  9  1  0  0  0  0
  7 11  2  0  0  0  0
  8 12  1  0  0  0  0
  9 12  2  0  0  0  0
 10 22  1  0  0  0  0
 11 27  1  0  0  0  0
 12 29  1  0  0  0  0
 13 15  1  0  0  0  0
 13 24  2  0  0  0  0
 13 26  1  0  0  0  0
 14 25  2  0  0  0  0
 14 26  1  0  0  0  0
 14 28  1  0  0  0  0
 15 16  2  0  0  0  0
 16 17  1  0  0  0  0
 17 18  2  0  0  0  0
 18 26  1  0  0  0  0
 19 23  1  0  0  0  0
 19 27  1  0  0  0  0
 19 30  2  0  0  0  0
 20 28  1  0  0  0  0
 20 29  1  0  0  0  0
 20 31  2  0  0  0  0
 21 23  1  0  0  0  0
 22 29  1  0  0  0  0
 24 25  1  0  0  0  0
  1 32  1  0  0  0  0
  2 33  1  0  0  0  0
  3 34  1  0  0  0  0
  4 35  1  0  0  0  0
  5 36  1  0  0  0  0
  6 37  1  0  0  0  0
  7 38  1  0  0  0  0
  8 39  1  0  0  0  0
  9 40  1  0  0  0  0
 15 41  1  0  0  0  0
 16 42  1  0  0  0  0
 17 43  1  0  0  0  0
 18 44  1  0  0  0  0
 21 45  1  0  0  0  0
 21 46  1  0  0  0  0
 21 47  1  0  0  0  0
 22 48  1  0  0  0  0
 22 49  1  0  0  0  0
 23 50  1  0  0  0  0
 23 51  1  0  0  0  0
 27 52  1  0  0  0  0
 28 53  1  0  0  0  0
M  END
> <clash_score>
1.4986663541170224

> <docking_score>
-6.4744133949279785

> <overlap_score>
0.9793944358825684

$$$$
BENZO_142_1
  -OEChem-08232013443D

 51 54  0     0  0  0  0  0  0999 V2000
   13.6491    2.1519   23.0224 C   0  0  0  0  0  0  0  0  0  0  0  0
   12.2562    2.1742   22.9517 C   0  0  0  0  0  0  0  0  0  0  0  0
    9.0720   -1.1280   24.8640 C   0  0  0  0  0  0  0  0  0  0  0  0
    9.7200   -2.2600   22.8630 C   0  0  0  0  0  0  0  0  0  0  0  0
    8.9960   -2.3380   25.5320 C   0  0  0  0  0  0  0  0  0  0  0  0
    9.6730   -3.4710   23.5300 C   0  0  0  0  0  0  0  0  0  0  0  0
   14.2909    1.2260   23.8448 C   0  0  0  0  0  0  0  0  0  0  0  0
   12.1470    0.3449   24.5261 C   0  0  0  0  0  0  0  0  0  0  0  0
   11.5052    1.2707   23.7036 C   0  0  0  0  0  0  0  0  0  0  0  0
    9.3350   -1.0880   23.5010 C   0  0  0  0  0  0  0  0  0  0  0  0
    9.3070   -3.5340   24.8780 C   0  0  0  0  0  0  0  0  0  0  0  0
   13.5399    0.3225   24.5967 C   0  0  0  0  0  0  0  0  0  0  0  0
    5.8300    0.9190   18.6970 C   0  0  0  0  0  0  0  0  0  0  0  0
    7.3170   -0.1610   19.8550 C   0  0  0  0  0  0  0  0  0  0  0  0
    4.6890    1.6810   18.4640 C   0  0  0  0  0  0  0  0  0  0  0  0
    3.9160    2.0630   19.5520 C   0  0  0  0  0  0  0  0  0  0  0  0
    4.2750    1.7050   20.8490 C   0  0  0  0  0  0  0  0  0  0  0  0
    5.4210    0.9600   21.0930 C   0  0  0  0  0  0  0  0  0  0  0  0
    9.0420    0.3700   21.5280 C   0  0  0  0  0  0  0  0  0  0  0  0
    8.0128   -5.2151   26.1416 C   0  0  0  0  0  0  0  0  0  0  0  0
   10.4372   -5.5860   25.6588 C   0  0  0  0  0  0  0  0  0  0  0  0
   10.0059    1.2962   23.6279 C   0  0  0  0  0  0  0  0  0  0  0  0
    6.7580    0.3810   17.8350 N   0  0  0  0  0  0  0  0  0  0  0  0
    7.6390   -0.2680   18.5410 N   0  0  0  0  0  0  0  0  0  0  0  0
    6.1790    0.5730   19.9990 N   0  0  0  0  0  0  0  0  0  0  0  0
    8.1890   -0.7180   20.8700 N   0  0  0  0  0  0  0  0  0  0  0  0
    9.4560    0.1560   22.8130 N   0  0  0  0  0  0  0  0  0  0  0  0
    9.2543   -4.7552   25.5519 N   0  0  0  0  0  0  0  0  0  0  0  0
    9.2690    1.4140   20.9380 O   0  0  0  0  0  0  0  0  0  0  0  0
   14.3324   -0.8188   25.6122 Cl  0  0  0  0  0  0  0  0  0  0  0  0
   14.2335    2.8557   22.4368 H   0  0  0  0  0  0  0  0  0  0  0  0
   11.7645    2.8992   22.3082 H   0  0  0  0  0  0  0  0  0  0  0  0
    8.9217   -0.1995   25.4232 H   0  0  0  0  0  0  0  0  0  0  0  0
   10.0643   -2.2341   21.8254 H   0  0  0  0  0  0  0  0  0  0  0  0
    8.6893   -2.3540   26.5808 H   0  0  0  0  0  0  0  0  0  0  0  0
    9.9257   -4.3898   22.9921 H   0  0  0  0  0  0  0  0  0  0  0  0
   15.3772    1.2203   23.8902 H   0  0  0  0  0  0  0  0  0  0  0  0
   11.5570   -0.3578   25.1100 H   0  0  0  0  0  0  0  0  0  0  0  0
    4.3967    1.9772   17.4718 H   0  0  0  0  0  0  0  0  0  0  0  0
    3.0218    2.6486   19.3697 H   0  0  0  0  0  0  0  0  0  0  0  0
    3.6566    2.0043   21.7065 H   0  0  0  0  0  0  0  0  0  0  0  0
    5.7190    0.6877   22.0810 H   0  0  0  0  0  0  0  0  0  0  0  0
    8.1744   -6.1905   26.6238 H   0  0  0  0  0  0  0  0  0  0  0  0
    7.6718   -4.4870   26.8924 H   0  0  0  0  0  0  0  0  0  0  0  0
    7.2494   -5.3166   25.3561 H   0  0  0  0  0  0  0  0  0  0  0  0
   10.1946   -6.4995   26.2216 H   0  0  0  0  0  0  0  0  0  0  0  0
   10.7865   -5.8577   24.6518 H   0  0  0  0  0  0  0  0  0  0  0  0
   11.2285   -5.0312   26.1841 H   0  0  0  0  0  0  0  0  0  0  0  0
    9.5676    1.2268   24.6295 H   0  0  0  0  0  0  0  0  0  0  0  0
    9.6507    2.2310   23.1816 H   0  0  0  0  0  0  0  0  0  0  0  0
    8.2360   -1.5649   21.0923 H   0  0  0  0  0  0  0  0  0  0  0  0
  1  2  2  0  0  0  0
  1  7  1  0  0  0  0
  2  9  1  0  0  0  0
  3  5  2  0  0  0  0
  3 10  1  0  0  0  0
  4  6  1  0  0  0  0
  4 10  2  0  0  0  0
  5 11  1  0  0  0  0
  6 11  2  0  0  0  0
  7 12  2  0  0  0  0
  8  9  2  0  0  0  0
  8 12  1  0  0  0  0
  9 22  1  0  0  0  0
 10 27  1  0  0  0  0
 11 28  1  0  0  0  0
 12 30  1  0  0  0  0
 13 15  1  0  0  0  0
 13 23  2  0  0  0  0
 13 25  1  0  0  0  0
 14 24  2  0  0  0  0
 14 25  1  0  0  0  0
 14 26  1  0  0  0  0
 15 16  2  0  0  0  0
 16 17  1  0  0  0  0
 17 18  2  0  0  0  0
 18 25  1  0  0  0  0
 19 26  1  0  0  0  0
 19 27  1  0  0  0  0
 19 29  2  0  0  0  0
 20 28  1  0  0  0  0
 21 28  1  0  0  0  0
 22 27  1  0  0  0  0
 23 24  1  0  0  0  0
  1 31  1  0  0  0  0
  2 32  1  0  0  0  0
  3 33  1  0  0  0  0
  4 34  1  0  0  0  0
  5 35  1  0  0  0  0
  6 36  1  0  0  0  0
  7 37  1  0  0  0  0
  8 38  1  0  0  0  0
 15 39  1  0  0  0  0
 16 40  1  0  0  0  0
 17 41  1  0  0  0  0
 18 42  1  0  0  0  0
 20 43  1  0  0  0  0
 20 44  1  0  0  0  0
 20 45  1  0  0  0  0
 21 46  1  0  0  0  0
 21 47  1  0  0  0  0
 21 48  1  0  0  0  0
 22 49  1  0  0  0  0
 22 50  1  0  0  0  0
 26 51  1  0  0  0  0
M  END
> <clash_score>
0.6635557580049075

> <docking_score>
-8.50253677368164

> <overlap_score>
0.9812187552452087

$$$$
BENZO_144_1
  -OEChem-08232013443D

 50 53  0     0  0  0  0  0  0999 V2000
    8.9960   -2.3380   25.5320 C   0  0  0  0  0  0  0  0  0  0  0  0
    9.6730   -3.4710   23.5300 C   0  0  0  0  0  0  0  0  0  0  0  0
    9.0720   -1.1280   24.8640 C   0  0  0  0  0  0  0  0  0  0  0  0
    9.7200   -2.2600   22.8630 C   0  0  0  0  0  0  0  0  0  0  0  0
   12.3141    2.4366   23.8321 C   0  0  0  0  0  0  0  0  0  0  0  0
   13.6568    2.1322   23.8782 C   0  0  0  0  0  0  0  0  0  0  0  0
   12.2605    0.1196   23.6560 C   0  0  0  0  0  0  0  0  0  0  0  0
   11.5052    1.2707   23.7036 C   0  0  0  0  0  0  0  0  0  0  0  0
    9.3070   -3.5340   24.8780 C   0  0  0  0  0  0  0  0  0  0  0  0
    9.3350   -1.0880   23.5010 C   0  0  0  0  0  0  0  0  0  0  0  0
    5.8300    0.9190   18.6970 C   0  0  0  0  0  0  0  0  0  0  0  0
    7.3170   -0.1610   19.8550 C   0  0  0  0  0  0  0  0  0  0  0  0
    4.6890    1.6810   18.4640 C   0  0  0  0  0  0  0  0  0  0  0  0
    3.9160    2.0630   19.5520 C   0  0  0  0  0  0  0  0  0  0  0  0
    4.2750    1.7050   20.8490 C   0  0  0  0  0  0  0  0  0  0  0  0
    5.4210    0.9600   21.0930 C   0  0  0  0  0  0  0  0  0  0  0  0
    9.5334   -6.0236   25.0414 C   0  0  0  0  0  0  0  0  0  0  0  0
    9.0420    0.3700   21.5280 C   0  0  0  0  0  0  0  0  0  0  0  0
   10.6330   -7.3746   26.8775 C   0  0  0  0  0  0  0  0  0  0  0  0
   10.0059    1.2962   23.6279 C   0  0  0  0  0  0  0  0  0  0  0  0
    9.3523   -7.0865   26.1149 C   0  0  0  0  0  0  0  0  0  0  0  0
    6.7580    0.3810   17.8350 N   0  0  0  0  0  0  0  0  0  0  0  0
    7.6390   -0.2680   18.5410 N   0  0  0  0  0  0  0  0  0  0  0  0
    6.1790    0.5730   19.9990 N   0  0  0  0  0  0  0  0  0  0  0  0
    9.2546   -4.7422   25.5438 N   0  0  0  0  0  0  0  0  0  0  0  0
    8.1890   -0.7180   20.8700 N   0  0  0  0  0  0  0  0  0  0  0  0
    9.4560    0.1560   22.8130 N   0  0  0  0  0  0  0  0  0  0  0  0
    9.8806   -6.3053   23.8992 O   0  0  0  0  0  0  0  0  0  0  0  0
    9.2690    1.4140   20.9380 O   0  0  0  0  0  0  0  0  0  0  0  0
   13.9377    0.4467   23.7665 S   0  0  0  0  0  0  0  0  0  0  0  0
    8.6895   -2.3529   26.5807 H   0  0  0  0  0  0  0  0  0  0  0  0
    9.9262   -4.3897   22.9916 H   0  0  0  0  0  0  0  0  0  0  0  0
    8.9224   -0.1998   25.4238 H   0  0  0  0  0  0  0  0  0  0  0  0
   10.0649   -2.2343   21.8258 H   0  0  0  0  0  0  0  0  0  0  0  0
   11.9346    3.4491   23.8880 H   0  0  0  0  0  0  0  0  0  0  0  0
   14.4863    2.8189   23.9714 H   0  0  0  0  0  0  0  0  0  0  0  0
   11.9119   -0.8994   23.5606 H   0  0  0  0  0  0  0  0  0  0  0  0
    4.3967    1.9772   17.4718 H   0  0  0  0  0  0  0  0  0  0  0  0
    3.0218    2.6486   19.3697 H   0  0  0  0  0  0  0  0  0  0  0  0
    3.6566    2.0043   21.7065 H   0  0  0  0  0  0  0  0  0  0  0  0
    5.7190    0.6877   22.0810 H   0  0  0  0  0  0  0  0  0  0  0  0
   11.4241   -7.7171   26.2024 H   0  0  0  0  0  0  0  0  0  0  0  0
   10.4629   -8.1530   27.6277 H   0  0  0  0  0  0  0  0  0  0  0  0
   10.9949   -6.4779   27.3912 H   0  0  0  0  0  0  0  0  0  0  0  0
    9.5676    1.2268   24.6295 H   0  0  0  0  0  0  0  0  0  0  0  0
    9.6507    2.2310   23.1816 H   0  0  0  0  0  0  0  0  0  0  0  0
    8.5795   -6.7463   26.8138 H   0  0  0  0  0  0  0  0  0  0  0  0
    8.9966   -8.0064   25.6368 H   0  0  0  0  0  0  0  0  0  0  0  0
    8.9776   -4.7057   26.5317 H   0  0  0  0  0  0  0  0  0  0  0  0
    8.2360   -1.5649   21.0923 H   0  0  0  0  0  0  0  0  0  0  0  0
  1  3  2  0  0  0  0
  1  9  1  0  0  0  0
  2  4  1  0  0  0  0
  2  9  2  0  0  0  0
  3 10  1  0  0  0  0
  4 10  2  0  0  0  0
  5  6  2  0  0  0  0
  5  8  1  0  0  0  0
  6 30  1  0  0  0  0
  7  8  2  0  0  0  0
  7 30  1  0  0  0  0
  8 20  1  0  0  0  0
  9 25  1  0  0  0  0
 10 27  1  0  0  0  0
 11 13  1  0  0  0  0
 11 22  2  0  0  0  0
 11 24  1  0  0  0  0
 12 23  2  0  0  0  0
 12 24  1  0  0  0  0
 12 26  1  0  0  0  0
 13 14  2  0  0  0  0
 14 15  1  0  0  0  0
 15 16  2  0  0  0  0
 16 24  1  0  0  0  0
 17 21  1  0  0  0  0
 17 25  1  0  0  0  0
 17 28  2  0  0  0  0
 18 26  1  0  0  0  0
 18 27  1  0  0  0  0
 18 29  2  0  0  0  0
 19 21  1  0  0  0  0
 20 27  1  0  0  0  0
 22 23  1  0  0  0  0
  1 31  1  0  0  0  0
  2 32  1  0  0  0  0
  3 33  1  0  0  0  0
  4 34  1  0  0  0  0
  5 35  1  0  0  0  0
  6 36  1  0  0  0  0
  7 37  1  0  0  0  0
 13 38  1  0  0  0  0
 14 39  1  0  0  0  0
 15 40  1  0  0  0  0
 16 41  1  0  0  0  0
 19 42  1  0  0  0  0
 19 43  1  0  0  0  0
 19 44  1  0  0  0  0
 20 45  1  0  0  0  0
 20 46  1  0  0  0  0
 21 47  1  0  0  0  0
 21 48  1  0  0  0  0
 25 49  1  0  0  0  0
 26 50  1  0  0  0  0
M  END
> <clash_score>
1.4986663541170224

> <docking_score>
-5.50970983505249

> <overlap_score>
0.9661297798156738

$$$$
BENZO_146_1
  -OEChem-08232013443D

 53 56  0     0  0  0  0  0  0999 V2000
   13.6491    2.1519   23.0224 C   0  0  0  0  0  0  0  0  0  0  0  0
   12.2562    2.1742   22.9517 C   0  0  0  0  0  0  0  0  0  0  0  0
    8.9960   -2.3380   25.5320 C   0  0  0  0  0  0  0  0  0  0  0  0
    9.6730   -3.4710   23.5300 C   0  0  0  0  0  0  0  0  0  0  0  0
    9.0720   -1.1280   24.8640 C   0  0  0  0  0  0  0  0  0  0  0  0
    9.7200   -2.2600   22.8630 C   0  0  0  0  0  0  0  0  0  0  0  0
   14.2909    1.2260   23.8448 C   0  0  0  0  0  0  0  0  0  0  0  0
   12.1470    0.3449   24.5261 C   0  0  0  0  0  0  0  0  0  0  0  0
   11.5052    1.2707   23.7036 C   0  0  0  0  0  0  0  0  0  0  0  0
    9.3070   -3.5340   24.8780 C   0  0  0  0  0  0  0  0  0  0  0  0
    9.3350   -1.0880   23.5010 C   0  0  0  0  0  0  0  0  0  0  0  0
   13.5399    0.3225   24.5967 C   0  0  0  0  0  0  0  0  0  0  0  0
    5.8300    0.9190   18.6970 C   0  0  0  0  0  0  0  0  0  0  0  0
    7.3170   -0.1610   19.8550 C   0  0  0  0  0  0  0  0  0  0  0  0
    4.6890    1.6810   18.4640 C   0  0  0  0  0  0  0  0  0  0  0  0
    3.9160    2.0630   19.5520 C   0  0  0  0  0  0  0  0  0  0  0  0
    4.2750    1.7050   20.8490 C   0  0  0  0  0  0  0  0  0  0  0  0
    5.4210    0.9600   21.0930 C   0  0  0  0  0  0  0  0  0  0  0  0
    9.5334   -6.0236   25.0414 C   0  0  0  0  0  0  0  0  0  0  0  0
    9.0420    0.3700   21.5280 C   0  0  0  0  0  0  0  0  0  0  0  0
   10.6330   -7.3746   26.8775 C   0  0  0  0  0  0  0  0  0  0  0  0
   10.0059    1.2962   23.6279 C   0  0  0  0  0  0  0  0  0  0  0  0
    9.3523   -7.0865   26.1149 C   0  0  0  0  0  0  0  0  0  0  0  0
    6.7580    0.3810   17.8350 N   0  0  0  0  0  0  0  0  0  0  0  0
    7.6390   -0.2680   18.5410 N   0  0  0  0  0  0  0  0  0  0  0  0
    6.1790    0.5730   19.9990 N   0  0  0  0  0  0  0  0  0  0  0  0
    9.2546   -4.7422   25.5438 N   0  0  0  0  0  0  0  0  0  0  0  0
    8.1890   -0.7180   20.8700 N   0  0  0  0  0  0  0  0  0  0  0  0
    9.4560    0.1560   22.8130 N   0  0  0  0  0  0  0  0  0  0  0  0
    9.8806   -6.3053   23.8992 O   0  0  0  0  0  0  0  0  0  0  0  0
    9.2690    1.4140   20.9380 O   0  0  0  0  0  0  0  0  0  0  0  0
   14.3324   -0.8188   25.6122 Cl  0  0  0  0  0  0  0  0  0  0  0  0
   14.2335    2.8557   22.4368 H   0  0  0  0  0  0  0  0  0  0  0  0
   11.7645    2.8992   22.3082 H   0  0  0  0  0  0  0  0  0  0  0  0
    8.6895   -2.3529   26.5807 H   0  0  0  0  0  0  0  0  0  0  0  0
    9.9262   -4.3897   22.9916 H   0  0  0  0  0  0  0  0  0  0  0  0
    8.9224   -0.1998   25.4238 H   0  0  0  0  0  0  0  0  0  0  0  0
   10.0649   -2.2343   21.8258 H   0  0  0  0  0  0  0  0  0  0  0  0
   15.3772    1.2203   23.8902 H   0  0  0  0  0  0  0  0  0  0  0  0
   11.5570   -0.3578   25.1100 H   0  0  0  0  0  0  0  0  0  0  0  0
    4.3967    1.9772   17.4718 H   0  0  0  0  0  0  0  0  0  0  0  0
    3.0218    2.6486   19.3697 H   0  0  0  0  0  0  0  0  0  0  0  0
    3.6566    2.0043   21.7065 H   0  0  0  0  0  0  0  0  0  0  0  0
    5.7190    0.6877   22.0810 H   0  0  0  0  0  0  0  0  0  0  0  0
   11.4241   -7.7171   26.2024 H   0  0  0  0  0  0  0  0  0  0  0  0
   10.4629   -8.1530   27.6277 H   0  0  0  0  0  0  0  0  0  0  0  0
   10.9949   -6.4779   27.3912 H   0  0  0  0  0  0  0  0  0  0  0  0
    9.5676    1.2268   24.6295 H   0  0  0  0  0  0  0  0  0  0  0  0
    9.6507    2.2310   23.1816 H   0  0  0  0  0  0  0  0  0  0  0  0
    8.5795   -6.7463   26.8138 H   0  0  0  0  0  0  0  0  0  0  0  0
    8.9966   -8.0064   25.6368 H   0  0  0  0  0  0  0  0  0  0  0  0
    8.9776   -4.7057   26.5317 H   0  0  0  0  0  0  0  0  0  0  0  0
    8.2360   -1.5649   21.0923 H   0  0  0  0  0  0  0  0  0  0  0  0
  1  2  2  0  0  0  0
  1  7  1  0  0  0  0
  2  9  1  0  0  0  0
  3  5  2  0  0  0  0
  3 10  1  0  0  0  0
  4  6  1  0  0  0  0
  4 10  2  0  0  0  0
  5 11  1  0  0  0  0
  6 11  2  0  0  0  0
  7 12  2  0  0  0  0
  8  9  2  0  0  0  0
  8 12  1  0  0  0  0
  9 22  1  0  0  0  0
 10 27  1  0  0  0  0
 11 29  1  0  0  0  0
 12 32  1  0  0  0  0
 13 15  1  0  0  0  0
 13 24  2  0  0  0  0
 13 26  1  0  0  0  0
 14 25  2  0  0  0  0
 14 26  1  0  0  0  0
 14 28  1  0  0  0  0
 15 16  2  0  0  0  0
 16 17  1  0  0  0  0
 17 18  2  0  0  0  0
 18 26  1  0  0  0  0
 19 23  1  0  0  0  0
 19 27  1  0  0  0  0
 19 30  2  0  0  0  0
 20 28  1  0  0  0  0
 20 29  1  0  0  0  0
 20 31  2  0  0  0  0
 21 23  1  0  0  0  0
 22 29  1  0  0  0  0
 24 25  1  0  0  0  0
  1 33  1  0  0  0  0
  2 34  1  0  0  0  0
  3 35  1  0  0  0  0
  4 36  1  0  0  0  0
  5 37  1  0  0  0  0
  6 38  1  0  0  0  0
  7 39  1  0  0  0  0
  8 40  1  0  0  0  0
 15 41  1  0  0  0  0
 16 42  1  0  0  0  0
 17 43  1  0  0  0  0
 18 44  1  0  0  0  0
 21 45  1  0  0  0  0
 21 46  1  0  0  0  0
 21 47  1  0  0  0  0
 22 48  1  0  0  0  0
 22 49  1  0  0  0  0
 23 50  1  0  0  0  0
 23 51  1  0  0  0  0
 27 52  1  0  0  0  0
 28 53  1  0  0  0  0
M  END
> <clash_score>
2.16222211212193

> <docking_score>
-5.308259963989258

> <overlap_score>
0.9834227561950684

$$$$
BENZO_149_1
  -OEChem-08232013443D

 58 62  0     0  0  0  0  0  0999 V2000
   14.2935    1.3712   23.7867 C   0  0  0  0  0  0  0  0  0  0  0  0
   13.5637    0.6911   24.7616 C   0  0  0  0  0  0  0  0  0  0  0  0
   13.6297    2.0345   22.7546 C   0  0  0  0  0  0  0  0  0  0  0  0
   12.1701    0.6742   24.7044 C   0  0  0  0  0  0  0  0  0  0  0  0
   12.2361    2.0176   22.6974 C   0  0  0  0  0  0  0  0  0  0  0  0
    8.9960   -2.3380   25.5320 C   0  0  0  0  0  0  0  0  0  0  0  0
    9.6730   -3.4710   23.5300 C   0  0  0  0  0  0  0  0  0  0  0  0
    9.0720   -1.1280   24.8640 C   0  0  0  0  0  0  0  0  0  0  0  0
    9.7200   -2.2600   22.8630 C   0  0  0  0  0  0  0  0  0  0  0  0
   11.5063    1.3375   23.6723 C   0  0  0  0  0  0  0  0  0  0  0  0
    9.3070   -3.5340   24.8780 C   0  0  0  0  0  0  0  0  0  0  0  0
    9.3350   -1.0880   23.5010 C   0  0  0  0  0  0  0  0  0  0  0  0
    5.8300    0.9190   18.6970 C   0  0  0  0  0  0  0  0  0  0  0  0
    7.3170   -0.1610   19.8550 C   0  0  0  0  0  0  0  0  0  0  0  0
    4.6890    1.6810   18.4640 C   0  0  0  0  0  0  0  0  0  0  0  0
    3.9160    2.0630   19.5520 C   0  0  0  0  0  0  0  0  0  0  0  0
    4.2750    1.7050   20.8490 C   0  0  0  0  0  0  0  0  0  0  0  0
    5.4210    0.9600   21.0930 C   0  0  0  0  0  0  0  0  0  0  0  0
    9.0420    0.3700   21.5280 C   0  0  0  0  0  0  0  0  0  0  0  0
    7.3635   -6.1361   27.1888 C   0  0  0  0  0  0  0  0  0  0  0  0
    8.1961   -4.9735   27.7341 C   0  0  0  0  0  0  0  0  0  0  0  0
    7.1942   -6.0394   25.6709 C   0  0  0  0  0  0  0  0  0  0  0  0
    9.5196   -4.8490   26.9797 C   0  0  0  0  0  0  0  0  0  0  0  0
    8.5442   -5.8838   24.9639 C   0  0  0  0  0  0  0  0  0  0  0  0
   10.0063    1.3195   23.6101 C   0  0  0  0  0  0  0  0  0  0  0  0
    6.7580    0.3810   17.8350 N   0  0  0  0  0  0  0  0  0  0  0  0
    7.6390   -0.2680   18.5410 N   0  0  0  0  0  0  0  0  0  0  0  0
    6.1790    0.5730   19.9990 N   0  0  0  0  0  0  0  0  0  0  0  0
    9.2562   -4.7384   25.5422 N   0  0  0  0  0  0  0  0  0  0  0  0
    8.1890   -0.7180   20.8700 N   0  0  0  0  0  0  0  0  0  0  0  0
    9.4560    0.1560   22.8130 N   0  0  0  0  0  0  0  0  0  0  0  0
    9.2690    1.4140   20.9380 O   0  0  0  0  0  0  0  0  0  0  0  0
   15.3785    1.3854   23.8321 H   0  0  0  0  0  0  0  0  0  0  0  0
   14.0803    0.1755   25.5659 H   0  0  0  0  0  0  0  0  0  0  0  0
   14.1975    2.5650   21.9960 H   0  0  0  0  0  0  0  0  0  0  0  0
   11.6097    0.1416   25.4683 H   0  0  0  0  0  0  0  0  0  0  0  0
   11.7275    2.5370   21.8896 H   0  0  0  0  0  0  0  0  0  0  0  0
    8.6905   -2.3533   26.5810 H   0  0  0  0  0  0  0  0  0  0  0  0
    9.9266   -4.3896   22.9917 H   0  0  0  0  0  0  0  0  0  0  0  0
    8.9233   -0.1992   25.4231 H   0  0  0  0  0  0  0  0  0  0  0  0
   10.0650   -2.2330   21.8256 H   0  0  0  0  0  0  0  0  0  0  0  0
    4.3967    1.9772   17.4718 H   0  0  0  0  0  0  0  0  0  0  0  0
    3.0218    2.6486   19.3697 H   0  0  0  0  0  0  0  0  0  0  0  0
    3.6566    2.0043   21.7065 H   0  0  0  0  0  0  0  0  0  0  0  0
    5.7190    0.6877   22.0810 H   0  0  0  0  0  0  0  0  0  0  0  0
    7.8482   -7.0901   27.4469 H   0  0  0  0  0  0  0  0  0  0  0  0
    6.3760   -6.1438   27.6724 H   0  0  0  0  0  0  0  0  0  0  0  0
    7.6307   -4.0424   27.6403 H   0  0  0  0  0  0  0  0  0  0  0  0
    8.3915   -5.1310   28.7968 H   0  0  0  0  0  0  0  0  0  0  0  0
    6.6888   -6.9376   25.3010 H   0  0  0  0  0  0  0  0  0  0  0  0
    6.5515   -5.1859   25.4257 H   0  0  0  0  0  0  0  0  0  0  0  0
   10.0492   -3.9640   27.3414 H   0  0  0  0  0  0  0  0  0  0  0  0
   10.1431   -5.7254   27.1778 H   0  0  0  0  0  0  0  0  0  0  0  0
    9.1338   -6.7931   25.0868 H   0  0  0  0  0  0  0  0  0  0  0  0
    8.3656   -5.7264   23.8998 H   0  0  0  0  0  0  0  0  0  0  0  0
    9.5785    1.2746   24.6176 H   0  0  0  0  0  0  0  0  0  0  0  0
    9.6218    2.2274   23.1337 H   0  0  0  0  0  0  0  0  0  0  0  0
    8.2565   -1.5523   21.1108 H   0  0  0  0  0  0  0  0  0  0  0  0
  1  2  1  0  0  0  0
  1  3  2  0  0  0  0
  2  4  2  0  0  0  0
  3  5  1  0  0  0  0
  4 10  1  0  0  0  0
  5 10  2  0  0  0  0
  6  8  2  0  0  0  0
  6 11  1  0  0  0  0
  7  9  1  0  0  0  0
  7 11  2  0  0  0  0
  8 12  1  0  0  0  0
  9 12  2  0  0  0  0
 10 25  1  0  0  0  0
 11 29  1  0  0  0  0
 12 31  1  0  0  0  0
 13 15  1  0  0  0  0
 13 26  2  0  0  0  0
 13 28  1  0  0  0  0
 14 27  2  0  0  0  0
 14 28  1  0  0  0  0
 14 30  1  0  0  0  0
 15 16  2  0  0  0  0
 16 17  1  0  0  0  0
 17 18  2  0  0  0  0
 18 28  1  0  0  0  0
 19 30  1  0  0  0  0
 19 31  1  0  0  0  0
 19 32  2  0  0  0  0
 20 21  1  0  0  0  0
 20 22  1  0  0  0  0
 21 23  1  0  0  0  0
 22 24  1  0  0  0  0
 23 29  1  0  0  0  0
 24 29  1  0  0  0  0
 25 31  1  0  0  0  0
 26 27  1  0  0  0  0
  1 33  1  0  0  0  0
  2 34  1  0  0  0  0
  3 35  1  0  0  0  0
  4 36  1  0  0  0  0
  5 37  1  0  0  0  0
  6 38  1  0  0  0  0
  7 39  1  0  0  0  0
  8 40  1  0  0  0  0
  9 41  1  0  0  0  0
 15 42  1  0  0  0  0
 16 43  1  0  0  0  0
 17 44  1  0  0  0  0
 18 45  1  0  0  0  0
 20 46  1  0  0  0  0
 20 47  1  0  0  0  0
 21 48  1  0  0  0  0
 21 49  1  0  0  0  0
 22 50  1  0  0  0  0
 22 51  1  0  0  0  0
 23 52  1  0  0  0  0
 23 53  1  0  0  0  0
 24 54  1  0  0  0  0
 24 55  1  0  0  0  0
 25 56  1  0  0  0  0
 25 57  1  0  0  0  0
 30 58  1  0  0  0  0
M  END
> <clash_score>
0

> <docking_score>
-8.738273620605469

> <overlap_score>
0.9949210286140442

$$$$
BENZO_147_1
  -OEChem-08232013443D

 53 56  0     0  0  0  0  0  0999 V2000
    8.9960   -2.3380   25.5320 C   0  0  0  0  0  0  0  0  0  0  0  0
    9.6730   -3.4710   23.5300 C   0  0  0  0  0  0  0  0  0  0  0  0
    9.0720   -1.1280   24.8640 C   0  0  0  0  0  0  0  0  0  0  0  0
    9.7200   -2.2600   22.8630 C   0  0  0  0  0  0  0  0  0  0  0  0
   12.4186    2.0981   23.0231 C   0  0  0  0  0  0  0  0  0  0  0  0
   12.2936    0.4348   24.4559 C   0  0  0  0  0  0  0  0  0  0  0  0
   11.5052    1.2707   23.7036 C   0  0  0  0  0  0  0  0  0  0  0  0
    9.3070   -3.5340   24.8780 C   0  0  0  0  0  0  0  0  0  0  0  0
    9.3350   -1.0880   23.5010 C   0  0  0  0  0  0  0  0  0  0  0  0
    5.8300    0.9190   18.6970 C   0  0  0  0  0  0  0  0  0  0  0  0
    7.3170   -0.1610   19.8550 C   0  0  0  0  0  0  0  0  0  0  0  0
    4.6890    1.6810   18.4640 C   0  0  0  0  0  0  0  0  0  0  0  0
    3.9160    2.0630   19.5520 C   0  0  0  0  0  0  0  0  0  0  0  0
    4.2750    1.7050   20.8490 C   0  0  0  0  0  0  0  0  0  0  0  0
    5.4210    0.9600   21.0930 C   0  0  0  0  0  0  0  0  0  0  0  0
    9.5334   -6.0236   25.0414 C   0  0  0  0  0  0  0  0  0  0  0  0
    9.0420    0.3700   21.5280 C   0  0  0  0  0  0  0  0  0  0  0  0
   10.6330   -7.3746   26.8775 C   0  0  0  0  0  0  0  0  0  0  0  0
   14.7712    0.2036   24.7505 C   0  0  0  0  0  0  0  0  0  0  0  0
   10.0059    1.2962   23.6279 C   0  0  0  0  0  0  0  0  0  0  0  0
    9.3523   -7.0865   26.1149 C   0  0  0  0  0  0  0  0  0  0  0  0
   13.6900    1.8137   23.3173 N   0  0  0  0  0  0  0  0  0  0  0  0
    6.7580    0.3810   17.8350 N   0  0  0  0  0  0  0  0  0  0  0  0
    7.6390   -0.2680   18.5410 N   0  0  0  0  0  0  0  0  0  0  0  0
   13.5812    0.7984   24.1910 N   0  0  0  0  0  0  0  0  0  0  0  0
    6.1790    0.5730   19.9990 N   0  0  0  0  0  0  0  0  0  0  0  0
    9.2546   -4.7422   25.5438 N   0  0  0  0  0  0  0  0  0  0  0  0
    8.1890   -0.7180   20.8700 N   0  0  0  0  0  0  0  0  0  0  0  0
    9.4560    0.1560   22.8130 N   0  0  0  0  0  0  0  0  0  0  0  0
    9.8806   -6.3053   23.8992 O   0  0  0  0  0  0  0  0  0  0  0  0
    9.2690    1.4140   20.9380 O   0  0  0  0  0  0  0  0  0  0  0  0
    8.6895   -2.3529   26.5807 H   0  0  0  0  0  0  0  0  0  0  0  0
    9.9262   -4.3897   22.9916 H   0  0  0  0  0  0  0  0  0  0  0  0
    8.9224   -0.1998   25.4238 H   0  0  0  0  0  0  0  0  0  0  0  0
   10.0649   -2.2343   21.8258 H   0  0  0  0  0  0  0  0  0  0  0  0
   12.2131    2.8976   22.3254 H   0  0  0  0  0  0  0  0  0  0  0  0
   12.0541   -0.3669   25.1413 H   0  0  0  0  0  0  0  0  0  0  0  0
    4.3967    1.9772   17.4718 H   0  0  0  0  0  0  0  0  0  0  0  0
    3.0218    2.6486   19.3697 H   0  0  0  0  0  0  0  0  0  0  0  0
    3.6566    2.0043   21.7065 H   0  0  0  0  0  0  0  0  0  0  0  0
    5.7190    0.6877   22.0810 H   0  0  0  0  0  0  0  0  0  0  0  0
   11.4241   -7.7171   26.2024 H   0  0  0  0  0  0  0  0  0  0  0  0
   10.4629   -8.1530   27.6277 H   0  0  0  0  0  0  0  0  0  0  0  0
   10.9949   -6.4779   27.3912 H   0  0  0  0  0  0  0  0  0  0  0  0
   15.0794   -0.6151   24.0948 H   0  0  0  0  0  0  0  0  0  0  0  0
   15.5596    0.9586   24.8157 H   0  0  0  0  0  0  0  0  0  0  0  0
   14.5504   -0.1712   25.7538 H   0  0  0  0  0  0  0  0  0  0  0  0
    9.5676    1.2268   24.6295 H   0  0  0  0  0  0  0  0  0  0  0  0
    9.6507    2.2310   23.1816 H   0  0  0  0  0  0  0  0  0  0  0  0
    8.5795   -6.7463   26.8138 H   0  0  0  0  0  0  0  0  0  0  0  0
    8.9966   -8.0064   25.6368 H   0  0  0  0  0  0  0  0  0  0  0  0
    8.9776   -4.7057   26.5317 H   0  0  0  0  0  0  0  0  0  0  0  0
    8.2360   -1.5649   21.0923 H   0  0  0  0  0  0  0  0  0  0  0  0
  1  3  2  0  0  0  0
  1  8  1  0  0  0  0
  2  4  1  0  0  0  0
  2  8  2  0  0  0  0
  3  9  1  0  0  0  0
  4  9  2  0  0  0  0
  5  7  1  0  0  0  0
  5 22  2  0  0  0  0
  6  7  2  0  0  0  0
  6 25  1  0  0  0  0
  7 20  1  0  0  0  0
  8 27  1  0  0  0  0
  9 29  1  0  0  0  0
 10 12  1  0  0  0  0
 10 23  2  0  0  0  0
 10 26  1  0  0  0  0
 11 24  2  0  0  0  0
 11 26  1  0  0  0  0
 11 28  1  0  0  0  0
 12 13  2  0  0  0  0
 13 14  1  0  0  0  0
 14 15  2  0  0  0  0
 15 26  1  0  0  0  0
 16 21  1  0  0  0  0
 16 27  1  0  0  0  0
 16 30  2  0  0  0  0
 17 28  1  0  0  0  0
 17 29  1  0  0  0  0
 17 31  2  0  0  0  0
 18 21  1  0  0  0  0
 19 25  1  0  0  0  0
 20 29  1  0  0  0  0
 22 25  1  0  0  0  0
 23 24  1  0  0  0  0
  1 32  1  0  0  0  0
  2 33  1  0  0  0  0
  3 34  1  0  0  0  0
  4 35  1  0  0  0  0
  5 36  1  0  0  0  0
  6 37  1  0  0  0  0
 12 38  1  0  0  0  0
 13 39  1  0  0  0  0
 14 40  1  0  0  0  0
 15 41  1  0  0  0  0
 18 42  1  0  0  0  0
 18 43  1  0  0  0  0
 18 44  1  0  0  0  0
 19 45  1  0  0  0  0
 19 46  1  0  0  0  0
 19 47  1  0  0  0  0
 20 48  1  0  0  0  0
 20 49  1  0  0  0  0
 21 50  1  0  0  0  0
 21 51  1  0  0  0  0
 27 52  1  0  0  0  0
 28 53  1  0  0  0  0
M  END
> <clash_score>
1.4986663541170224

> <docking_score>
-6.060192108154297

> <overlap_score>
0.9792911410331726

$$$$
BENZO_148_1
  -OEChem-08232013443D

 55 59  0     0  0  0  0  0  0999 V2000
    8.9960   -2.3380   25.5320 C   0  0  0  0  0  0  0  0  0  0  0  0
    9.6730   -3.4710   23.5300 C   0  0  0  0  0  0  0  0  0  0  0  0
    9.0720   -1.1280   24.8640 C   0  0  0  0  0  0  0  0  0  0  0  0
    9.7200   -2.2600   22.8630 C   0  0  0  0  0  0  0  0  0  0  0  0
   12.3486    1.3935   22.5245 C   0  0  0  0  0  0  0  0  0  0  0  0
   13.6840    1.3978   22.8623 C   0  0  0  0  0  0  0  0  0  0  0  0
   12.2302    1.3009   24.8439 C   0  0  0  0  0  0  0  0  0  0  0  0
   11.5063    1.3375   23.6723 C   0  0  0  0  0  0  0  0  0  0  0  0
    9.3070   -3.5340   24.8780 C   0  0  0  0  0  0  0  0  0  0  0  0
    9.3350   -1.0880   23.5010 C   0  0  0  0  0  0  0  0  0  0  0  0
    5.8300    0.9190   18.6970 C   0  0  0  0  0  0  0  0  0  0  0  0
    7.3170   -0.1610   19.8550 C   0  0  0  0  0  0  0  0  0  0  0  0
    4.6890    1.6810   18.4640 C   0  0  0  0  0  0  0  0  0  0  0  0
    3.9160    2.0630   19.5520 C   0  0  0  0  0  0  0  0  0  0  0  0
    4.2750    1.7050   20.8490 C   0  0  0  0  0  0  0  0  0  0  0  0
    5.4210    0.9600   21.0930 C   0  0  0  0  0  0  0  0  0  0  0  0
    9.0420    0.3700   21.5280 C   0  0  0  0  0  0  0  0  0  0  0  0
    7.6075   -7.0890   25.4795 C   0  0  0  0  0  0  0  0  0  0  0  0
    7.1392   -5.7989   26.1565 C   0  0  0  0  0  0  0  0  0  0  0  0
    8.6478   -6.8051   24.3935 C   0  0  0  0  0  0  0  0  0  0  0  0
    8.3303   -4.9793   26.6524 C   0  0  0  0  0  0  0  0  0  0  0  0
    9.8033   -5.9551   24.9309 C   0  0  0  0  0  0  0  0  0  0  0  0
   10.0063    1.3195   23.6101 C   0  0  0  0  0  0  0  0  0  0  0  0
    6.7580    0.3810   17.8350 N   0  0  0  0  0  0  0  0  0  0  0  0
    7.6390   -0.2680   18.5410 N   0  0  0  0  0  0  0  0  0  0  0  0
    6.1790    0.5730   19.9990 N   0  0  0  0  0  0  0  0  0  0  0  0
    9.2562   -4.7384   25.5422 N   0  0  0  0  0  0  0  0  0  0  0  0
    8.1890   -0.7180   20.8700 N   0  0  0  0  0  0  0  0  0  0  0  0
    9.4560    0.1560   22.8130 N   0  0  0  0  0  0  0  0  0  0  0  0
    9.2690    1.4140   20.9380 O   0  0  0  0  0  0  0  0  0  0  0  0
   13.9181    1.3344   24.5574 S   0  0  0  0  0  0  0  0  0  0  0  0
    8.6905   -2.3533   26.5810 H   0  0  0  0  0  0  0  0  0  0  0  0
    9.9266   -4.3896   22.9917 H   0  0  0  0  0  0  0  0  0  0  0  0
    8.9233   -0.1992   25.4231 H   0  0  0  0  0  0  0  0  0  0  0  0
   10.0650   -2.2330   21.8256 H   0  0  0  0  0  0  0  0  0  0  0  0
   11.9970    1.4285   21.5010 H   0  0  0  0  0  0  0  0  0  0  0  0
   14.5334    1.4345   22.1949 H   0  0  0  0  0  0  0  0  0  0  0  0
   11.8527    1.2549   25.8560 H   0  0  0  0  0  0  0  0  0  0  0  0
    4.3967    1.9772   17.4718 H   0  0  0  0  0  0  0  0  0  0  0  0
    3.0218    2.6486   19.3697 H   0  0  0  0  0  0  0  0  0  0  0  0
    3.6566    2.0043   21.7065 H   0  0  0  0  0  0  0  0  0  0  0  0
    5.7190    0.6877   22.0810 H   0  0  0  0  0  0  0  0  0  0  0  0
    8.0356   -7.7671   26.2335 H   0  0  0  0  0  0  0  0  0  0  0  0
    6.7454   -7.6111   25.0398 H   0  0  0  0  0  0  0  0  0  0  0  0
    6.5539   -5.2055   25.4489 H   0  0  0  0  0  0  0  0  0  0  0  0
    6.4855   -6.0435   26.9963 H   0  0  0  0  0  0  0  0  0  0  0  0
    9.0392   -7.7512   24.0053 H   0  0  0  0  0  0  0  0  0  0  0  0
    8.1711   -6.2867   23.5535 H   0  0  0  0  0  0  0  0  0  0  0  0
    7.9625   -4.0328   27.0569 H   0  0  0  0  0  0  0  0  0  0  0  0
    8.8426   -5.5180   27.4546 H   0  0  0  0  0  0  0  0  0  0  0  0
   10.3696   -6.5240   25.6692 H   0  0  0  0  0  0  0  0  0  0  0  0
   10.4665   -5.7029   24.1030 H   0  0  0  0  0  0  0  0  0  0  0  0
    9.5785    1.2746   24.6176 H   0  0  0  0  0  0  0  0  0  0  0  0
    9.6218    2.2274   23.1337 H   0  0  0  0  0  0  0  0  0  0  0  0
    8.2565   -1.5523   21.1108 H   0  0  0  0  0  0  0  0  0  0  0  0
  1  3  2  0  0  0  0
  1  9  1  0  0  0  0
  2  4  1  0  0  0  0
  2  9  2  0  0  0  0
  3 10  1  0  0  0  0
  4 10  2  0  0  0  0
  5  6  2  0  0  0  0
  5  8  1  0  0  0  0
  6 31  1  0  0  0  0
  7  8  2  0  0  0  0
  7 31  1  0  0  0  0
  8 23  1  0  0  0  0
  9 27  1  0  0  0  0
 10 29  1  0  0  0  0
 11 13  1  0  0  0  0
 11 24  2  0  0  0  0
 11 26  1  0  0  0  0
 12 25  2  0  0  0  0
 12 26  1  0  0  0  0
 12 28  1  0  0  0  0
 13 14  2  0  0  0  0
 14 15  1  0  0  0  0
 15 16  2  0  0  0  0
 16 26  1  0  0  0  0
 17 28  1  0  0  0  0
 17 29  1  0  0  0  0
 17 30  2  0  0  0  0
 18 19  1  0  0  0  0
 18 20  1  0  0  0  0
 19 21  1  0  0  0  0
 20 22  1  0  0  0  0
 21 27  1  0  0  0  0
 22 27  1  0  0  0  0
 23 29  1  0  0  0  0
 24 25  1  0  0  0  0
  1 32  1  0  0  0  0
  2 33  1  0  0  0  0
  3 34  1  0  0  0  0
  4 35  1  0  0  0  0
  5 36  1  0  0  0  0
  6 37  1  0  0  0  0
  7 38  1  0  0  0  0
 13 39  1  0  0  0  0
 14 40  1  0  0  0  0
 15 41  1  0  0  0  0
 16 42  1  0  0  0  0
 18 43  1  0  0  0  0
 18 44  1  0  0  0  0
 19 45  1  0  0  0  0
 19 46  1  0  0  0  0
 20 47  1  0  0  0  0
 20 48  1  0  0  0  0
 21 49  1  0  0  0  0
 21 50  1  0  0  0  0
 22 51  1  0  0  0  0
 22 52  1  0  0  0  0
 23 53  1  0  0  0  0
 23 54  1  0  0  0  0
 28 55  1  0  0  0  0
M  END
> <clash_score>
0

> <docking_score>
-8.261831283569336

> <overlap_score>
0.9799782037734985

$$$$
BENZO_153_1
  -OEChem-08232013443D

 46 49  0     0  0  0  0  0  0999 V2000
   14.2910    1.2238   23.8427 C   0  0  0  0  0  0  0  0  0  0  0  0
   13.5334    0.5538   24.8033 C   0  0  0  0  0  0  0  0  0  0  0  0
   13.6558    1.9173   22.8126 C   0  0  0  0  0  0  0  0  0  0  0  0
   12.1405    0.5773   24.7337 C   0  0  0  0  0  0  0  0  0  0  0  0
   12.2628    1.9408   22.7430 C   0  0  0  0  0  0  0  0  0  0  0  0
    8.9960   -2.3380   25.5320 C   0  0  0  0  0  0  0  0  0  0  0  0
    9.6730   -3.4710   23.5300 C   0  0  0  0  0  0  0  0  0  0  0  0
    9.0720   -1.1280   24.8640 C   0  0  0  0  0  0  0  0  0  0  0  0
    9.7200   -2.2600   22.8630 C   0  0  0  0  0  0  0  0  0  0  0  0
    9.3070   -3.5340   24.8780 C   0  0  0  0  0  0  0  0  0  0  0  0
   11.5052    1.2707   23.7036 C   0  0  0  0  0  0  0  0  0  0  0  0
    9.3350   -1.0880   23.5010 C   0  0  0  0  0  0  0  0  0  0  0  0
    5.8300    0.9190   18.6970 C   0  0  0  0  0  0  0  0  0  0  0  0
    7.3170   -0.1610   19.8550 C   0  0  0  0  0  0  0  0  0  0  0  0
    4.6890    1.6810   18.4640 C   0  0  0  0  0  0  0  0  0  0  0  0
    3.9160    2.0630   19.5520 C   0  0  0  0  0  0  0  0  0  0  0  0
    4.2750    1.7050   20.8490 C   0  0  0  0  0  0  0  0  0  0  0  0
    5.4210    0.9600   21.0930 C   0  0  0  0  0  0  0  0  0  0  0  0
    9.0420    0.3700   21.5280 C   0  0  0  0  0  0  0  0  0  0  0  0
    9.2505   -4.8264   25.5904 C   0  0  0  0  0  0  0  0  0  0  0  0
   10.0059    1.2962   23.6279 C   0  0  0  0  0  0  0  0  0  0  0  0
    6.7580    0.3810   17.8350 N   0  0  0  0  0  0  0  0  0  0  0  0
    7.6390   -0.2680   18.5410 N   0  0  0  0  0  0  0  0  0  0  0  0
    6.1790    0.5730   19.9990 N   0  0  0  0  0  0  0  0  0  0  0  0
    8.1890   -0.7180   20.8700 N   0  0  0  0  0  0  0  0  0  0  0  0
    9.4560    0.1560   22.8130 N   0  0  0  0  0  0  0  0  0  0  0  0
    9.2690    1.4140   20.9380 O   0  0  0  0  0  0  0  0  0  0  0  0
   15.3756    1.2066   23.8978 H   0  0  0  0  0  0  0  0  0  0  0  0
   14.0279    0.0147   25.6061 H   0  0  0  0  0  0  0  0  0  0  0  0
   14.2453    2.4400   22.0652 H   0  0  0  0  0  0  0  0  0  0  0  0
   11.5583    0.0522   25.4864 H   0  0  0  0  0  0  0  0  0  0  0  0
   11.7765    2.4836   21.9368 H   0  0  0  0  0  0  0  0  0  0  0  0
    8.6919   -2.3557   26.5813 H   0  0  0  0  0  0  0  0  0  0  0  0
    9.9267   -4.3907   22.9939 H   0  0  0  0  0  0  0  0  0  0  0  0
    8.9217   -0.1995   25.4231 H   0  0  0  0  0  0  0  0  0  0  0  0
   10.0653   -2.2339   21.8256 H   0  0  0  0  0  0  0  0  0  0  0  0
    4.3967    1.9772   17.4718 H   0  0  0  0  0  0  0  0  0  0  0  0
    3.0218    2.6486   19.3697 H   0  0  0  0  0  0  0  0  0  0  0  0
    3.6566    2.0043   21.7065 H   0  0  0  0  0  0  0  0  0  0  0  0
    5.7190    0.6877   22.0810 H   0  0  0  0  0  0  0  0  0  0  0  0
    8.2503   -5.2678   25.5020 H   0  0  0  0  0  0  0  0  0  0  0  0
    9.9817   -5.5374   25.1845 H   0  0  0  0  0  0  0  0  0  0  0  0
    9.4841   -4.7043   26.6562 H   0  0  0  0  0  0  0  0  0  0  0  0
    9.5676    1.2268   24.6295 H   0  0  0  0  0  0  0  0  0  0  0  0
    9.6507    2.2310   23.1816 H   0  0  0  0  0  0  0  0  0  0  0  0
    8.2360   -1.5649   21.0923 H   0  0  0  0  0  0  0  0  0  0  0  0
  1  2  1  0  0  0  0
  1  3  2  0  0  0  0
  2  4  2  0  0  0  0
  3  5  1  0  0  0  0
  4 11  1  0  0  0  0
  5 11  2  0  0  0  0
  6  8  2  0  0  0  0
  6 10  1  0  0  0  0
  7  9  1  0  0  0  0
  7 10  2  0  0  0  0
  8 12  1  0  0  0  0
  9 12  2  0  0  0  0
 10 20  1  0  0  0  0
 11 21  1  0  0  0  0
 12 26  1  0  0  0  0
 13 15  1  0  0  0  0
 13 22  2  0  0  0  0
 13 24  1  0  0  0  0
 14 23  2  0  0  0  0
 14 24  1  0  0  0  0
 14 25  1  0  0  0  0
 15 16  2  0  0  0  0
 16 17  1  0  0  0  0
 17 18  2  0  0  0  0
 18 24  1  0  0  0  0
 19 25  1  0  0  0  0
 19 26  1  0  0  0  0
 19 27  2  0  0  0  0
 21 26  1  0  0  0  0
 22 23  1  0  0  0  0
  1 28  1  0  0  0  0
  2 29  1  0  0  0  0
  3 30  1  0  0  0  0
  4 31  1  0  0  0  0
  5 32  1  0  0  0  0
  6 33  1  0  0  0  0
  7 34  1  0  0  0  0
  8 35  1  0  0  0  0
  9 36  1  0  0  0  0
 15 37  1  0  0  0  0
 16 38  1  0  0  0  0
 17 39  1  0  0  0  0
 18 40  1  0  0  0  0
 20 41  1  0  0  0  0
 20 42  1  0  0  0  0
 20 43  1  0  0  0  0
 21 44  1  0  0  0  0
 21 45  1  0  0  0  0
 25 46  1  0  0  0  0
M  END
> <clash_score>
0

> <docking_score>
-9.009483337402344

> <overlap_score>
0.9386085867881775

$$$$
BENZO_152_1
  -OEChem-08232013443D

 43 46  0     0  0  0  0  0  0999 V2000
    8.9960   -2.3380   25.5320 C   0  0  0  0  0  0  0  0  0  0  0  0
    9.6730   -3.4710   23.5300 C   0  0  0  0  0  0  0  0  0  0  0  0
    9.0720   -1.1280   24.8640 C   0  0  0  0  0  0  0  0  0  0  0  0
    9.7200   -2.2600   22.8630 C   0  0  0  0  0  0  0  0  0  0  0  0
   12.3141    2.4366   23.8321 C   0  0  0  0  0  0  0  0  0  0  0  0
   13.6568    2.1322   23.8782 C   0  0  0  0  0  0  0  0  0  0  0  0
   12.2605    0.1196   23.6560 C   0  0  0  0  0  0  0  0  0  0  0  0
    9.3070   -3.5340   24.8780 C   0  0  0  0  0  0  0  0  0  0  0  0
   11.5052    1.2707   23.7036 C   0  0  0  0  0  0  0  0  0  0  0  0
    9.3350   -1.0880   23.5010 C   0  0  0  0  0  0  0  0  0  0  0  0
    5.8300    0.9190   18.6970 C   0  0  0  0  0  0  0  0  0  0  0  0
    7.3170   -0.1610   19.8550 C   0  0  0  0  0  0  0  0  0  0  0  0
    4.6890    1.6810   18.4640 C   0  0  0  0  0  0  0  0  0  0  0  0
    3.9160    2.0630   19.5520 C   0  0  0  0  0  0  0  0  0  0  0  0
    4.2750    1.7050   20.8490 C   0  0  0  0  0  0  0  0  0  0  0  0
    5.4210    0.9600   21.0930 C   0  0  0  0  0  0  0  0  0  0  0  0
    9.0420    0.3700   21.5280 C   0  0  0  0  0  0  0  0  0  0  0  0
    9.2505   -4.8264   25.5904 C   0  0  0  0  0  0  0  0  0  0  0  0
   10.0059    1.2962   23.6279 C   0  0  0  0  0  0  0  0  0  0  0  0
    6.7580    0.3810   17.8350 N   0  0  0  0  0  0  0  0  0  0  0  0
    7.6390   -0.2680   18.5410 N   0  0  0  0  0  0  0  0  0  0  0  0
    6.1790    0.5730   19.9990 N   0  0  0  0  0  0  0  0  0  0  0  0
    8.1890   -0.7180   20.8700 N   0  0  0  0  0  0  0  0  0  0  0  0
    9.4560    0.1560   22.8130 N   0  0  0  0  0  0  0  0  0  0  0  0
    9.2690    1.4140   20.9380 O   0  0  0  0  0  0  0  0  0  0  0  0
   13.9377    0.4467   23.7665 S   0  0  0  0  0  0  0  0  0  0  0  0
    8.6919   -2.3557   26.5813 H   0  0  0  0  0  0  0  0  0  0  0  0
    9.9267   -4.3907   22.9939 H   0  0  0  0  0  0  0  0  0  0  0  0
    8.9217   -0.1995   25.4231 H   0  0  0  0  0  0  0  0  0  0  0  0
   10.0653   -2.2339   21.8256 H   0  0  0  0  0  0  0  0  0  0  0  0
   11.9346    3.4491   23.8880 H   0  0  0  0  0  0  0  0  0  0  0  0
   14.4863    2.8189   23.9714 H   0  0  0  0  0  0  0  0  0  0  0  0
   11.9119   -0.8994   23.5606 H   0  0  0  0  0  0  0  0  0  0  0  0
    4.3967    1.9772   17.4718 H   0  0  0  0  0  0  0  0  0  0  0  0
    3.0218    2.6486   19.3697 H   0  0  0  0  0  0  0  0  0  0  0  0
    3.6566    2.0043   21.7065 H   0  0  0  0  0  0  0  0  0  0  0  0
    5.7190    0.6877   22.0810 H   0  0  0  0  0  0  0  0  0  0  0  0
    8.2503   -5.2678   25.5020 H   0  0  0  0  0  0  0  0  0  0  0  0
    9.9817   -5.5374   25.1845 H   0  0  0  0  0  0  0  0  0  0  0  0
    9.4841   -4.7043   26.6562 H   0  0  0  0  0  0  0  0  0  0  0  0
    9.5676    1.2268   24.6295 H   0  0  0  0  0  0  0  0  0  0  0  0
    9.6507    2.2310   23.1816 H   0  0  0  0  0  0  0  0  0  0  0  0
    8.2360   -1.5649   21.0923 H   0  0  0  0  0  0  0  0  0  0  0  0
  1  3  2  0  0  0  0
  1  8  1  0  0  0  0
  2  4  1  0  0  0  0
  2  8  2  0  0  0  0
  3 10  1  0  0  0  0
  4 10  2  0  0  0  0
  5  6  2  0  0  0  0
  5  9  1  0  0  0  0
  6 26  1  0  0  0  0
  7  9  2  0  0  0  0
  7 26  1  0  0  0  0
  8 18  1  0  0  0  0
  9 19  1  0  0  0  0
 10 24  1  0  0  0  0
 11 13  1  0  0  0  0
 11 20  2  0  0  0  0
 11 22  1  0  0  0  0
 12 21  2  0  0  0  0
 12 22  1  0  0  0  0
 12 23  1  0  0  0  0
 13 14  2  0  0  0  0
 14 15  1  0  0  0  0
 15 16  2  0  0  0  0
 16 22  1  0  0  0  0
 17 23  1  0  0  0  0
 17 24  1  0  0  0  0
 17 25  2  0  0  0  0
 19 24  1  0  0  0  0
 20 21  1  0  0  0  0
  1 27  1  0  0  0  0
  2 28  1  0  0  0  0
  3 29  1  0  0  0  0
  4 30  1  0  0  0  0
  5 31  1  0  0  0  0
  6 32  1  0  0  0  0
  7 33  1  0  0  0  0
 13 34  1  0  0  0  0
 14 35  1  0  0  0  0
 15 36  1  0  0  0  0
 16 37  1  0  0  0  0
 18 38  1  0  0  0  0
 18 39  1  0  0  0  0
 18 40  1  0  0  0  0
 19 41  1  0  0  0  0
 19 42  1  0  0  0  0
 23 43  1  0  0  0  0
M  END
> <clash_score>
0

> <docking_score>
-8.044780731201172

> <overlap_score>
0.92516028881073

$$$$
BENZO_150_1
  -OEChem-08232013443D

 58 62  0     0  0  0  0  0  0999 V2000
   13.5726    0.4739   24.5787 C   0  0  0  0  0  0  0  0  0  0  0  0
   12.1790    0.4585   24.5212 C   0  0  0  0  0  0  0  0  0  0  0  0
    8.9960   -2.3380   25.5320 C   0  0  0  0  0  0  0  0  0  0  0  0
    9.6730   -3.4710   23.5300 C   0  0  0  0  0  0  0  0  0  0  0  0
    9.0720   -1.1280   24.8640 C   0  0  0  0  0  0  0  0  0  0  0  0
    9.7200   -2.2600   22.8630 C   0  0  0  0  0  0  0  0  0  0  0  0
   14.2935    1.3684   23.7874 C   0  0  0  0  0  0  0  0  0  0  0  0
   12.2271    2.2319   22.8810 C   0  0  0  0  0  0  0  0  0  0  0  0
   11.5063    1.3375   23.6723 C   0  0  0  0  0  0  0  0  0  0  0  0
    9.3070   -3.5340   24.8780 C   0  0  0  0  0  0  0  0  0  0  0  0
    9.3350   -1.0880   23.5010 C   0  0  0  0  0  0  0  0  0  0  0  0
   13.6207    2.2473   22.9386 C   0  0  0  0  0  0  0  0  0  0  0  0
    5.8300    0.9190   18.6970 C   0  0  0  0  0  0  0  0  0  0  0  0
    7.3170   -0.1610   19.8550 C   0  0  0  0  0  0  0  0  0  0  0  0
    4.6890    1.6810   18.4640 C   0  0  0  0  0  0  0  0  0  0  0  0
    3.9160    2.0630   19.5520 C   0  0  0  0  0  0  0  0  0  0  0  0
    4.2750    1.7050   20.8490 C   0  0  0  0  0  0  0  0  0  0  0  0
    5.4210    0.9600   21.0930 C   0  0  0  0  0  0  0  0  0  0  0  0
    9.0420    0.3700   21.5280 C   0  0  0  0  0  0  0  0  0  0  0  0
    7.3635   -6.1361   27.1888 C   0  0  0  0  0  0  0  0  0  0  0  0
    8.1961   -4.9735   27.7341 C   0  0  0  0  0  0  0  0  0  0  0  0
    7.1942   -6.0394   25.6709 C   0  0  0  0  0  0  0  0  0  0  0  0
    9.5196   -4.8490   26.9797 C   0  0  0  0  0  0  0  0  0  0  0  0
    8.5442   -5.8838   24.9639 C   0  0  0  0  0  0  0  0  0  0  0  0
   10.0063    1.3195   23.6101 C   0  0  0  0  0  0  0  0  0  0  0  0
    6.7580    0.3810   17.8350 N   0  0  0  0  0  0  0  0  0  0  0  0
    7.6390   -0.2680   18.5410 N   0  0  0  0  0  0  0  0  0  0  0  0
    6.1790    0.5730   19.9990 N   0  0  0  0  0  0  0  0  0  0  0  0
    9.2562   -4.7384   25.5422 N   0  0  0  0  0  0  0  0  0  0  0  0
    8.1890   -0.7180   20.8700 N   0  0  0  0  0  0  0  0  0  0  0  0
    9.4560    0.1560   22.8130 N   0  0  0  0  0  0  0  0  0  0  0  0
    9.2690    1.4140   20.9380 O   0  0  0  0  0  0  0  0  0  0  0  0
   14.5107    3.3498   21.9617 Cl  0  0  0  0  0  0  0  0  0  0  0  0
   14.0961   -0.2107   25.2397 H   0  0  0  0  0  0  0  0  0  0  0  0
   11.6255   -0.2418   25.1412 H   0  0  0  0  0  0  0  0  0  0  0  0
    8.6905   -2.3533   26.5810 H   0  0  0  0  0  0  0  0  0  0  0  0
    9.9266   -4.3896   22.9917 H   0  0  0  0  0  0  0  0  0  0  0  0
    8.9233   -0.1992   25.4231 H   0  0  0  0  0  0  0  0  0  0  0  0
   10.0650   -2.2330   21.8256 H   0  0  0  0  0  0  0  0  0  0  0  0
   15.3793    1.3690   23.8424 H   0  0  0  0  0  0  0  0  0  0  0  0
   11.6979    2.9155   22.2212 H   0  0  0  0  0  0  0  0  0  0  0  0
    4.3967    1.9772   17.4718 H   0  0  0  0  0  0  0  0  0  0  0  0
    3.0218    2.6486   19.3697 H   0  0  0  0  0  0  0  0  0  0  0  0
    3.6566    2.0043   21.7065 H   0  0  0  0  0  0  0  0  0  0  0  0
    5.7190    0.6877   22.0810 H   0  0  0  0  0  0  0  0  0  0  0  0
    7.8482   -7.0901   27.4469 H   0  0  0  0  0  0  0  0  0  0  0  0
    6.3760   -6.1438   27.6724 H   0  0  0  0  0  0  0  0  0  0  0  0
    7.6307   -4.0424   27.6403 H   0  0  0  0  0  0  0  0  0  0  0  0
    8.3915   -5.1310   28.7968 H   0  0  0  0  0  0  0  0  0  0  0  0
    6.6888   -6.9376   25.3010 H   0  0  0  0  0  0  0  0  0  0  0  0
    6.5515   -5.1859   25.4257 H   0  0  0  0  0  0  0  0  0  0  0  0
   10.0492   -3.9640   27.3414 H   0  0  0  0  0  0  0  0  0  0  0  0
   10.1431   -5.7254   27.1778 H   0  0  0  0  0  0  0  0  0  0  0  0
    9.1338   -6.7931   25.0868 H   0  0  0  0  0  0  0  0  0  0  0  0
    8.3656   -5.7264   23.8998 H   0  0  0  0  0  0  0  0  0  0  0  0
    9.5785    1.2746   24.6176 H   0  0  0  0  0  0  0  0  0  0  0  0
    9.6218    2.2274   23.1337 H   0  0  0  0  0  0  0  0  0  0  0  0
    8.2565   -1.5523   21.1108 H   0  0  0  0  0  0  0  0  0  0  0  0
  1  2  2  0  0  0  0
  1  7  1  0  0  0  0
  2  9  1  0  0  0  0
  3  5  2  0  0  0  0
  3 10  1  0  0  0  0
  4  6  1  0  0  0  0
  4 10  2  0  0  0  0
  5 11  1  0  0  0  0
  6 11  2  0  0  0  0
  7 12  2  0  0  0  0
  8  9  2  0  0  0  0
  8 12  1  0  0  0  0
  9 25  1  0  0  0  0
 10 29  1  0  0  0  0
 11 31  1  0  0  0  0
 12 33  1  0  0  0  0
 13 15  1  0  0  0  0
 13 26  2  0  0  0  0
 13 28  1  0  0  0  0
 14 27  2  0  0  0  0
 14 28  1  0  0  0  0
 14 30  1  0  0  0  0
 15 16  2  0  0  0  0
 16 17  1  0  0  0  0
 17 18  2  0  0  0  0
 18 28  1  0  0  0  0
 19 30  1  0  0  0  0
 19 31  1  0  0  0  0
 19 32  2  0  0  0  0
 20 21  1  0  0  0  0
 20 22  1  0  0  0  0
 21 23  1  0  0  0  0
 22 24  1  0  0  0  0
 23 29  1  0  0  0  0
 24 29  1  0  0  0  0
 25 31  1  0  0  0  0
 26 27  1  0  0  0  0
  1 34  1  0  0  0  0
  2 35  1  0  0  0  0
  3 36  1  0  0  0  0
  4 37  1  0  0  0  0
  5 38  1  0  0  0  0
  6 39  1  0  0  0  0
  7 40  1  0  0  0  0
  8 41  1  0  0  0  0
 15 42  1  0  0  0  0
 16 43  1  0  0  0  0
 17 44  1  0  0  0  0
 18 45  1  0  0  0  0
 20 46  1  0  0  0  0
 20 47  1  0  0  0  0
 21 48  1  0  0  0  0
 21 49  1  0  0  0  0
 22 50  1  0  0  0  0
 22 51  1  0  0  0  0
 23 52  1  0  0  0  0
 23 53  1  0  0  0  0
 24 54  1  0  0  0  0
 24 55  1  0  0  0  0
 25 56  1  0  0  0  0
 25 57  1  0  0  0  0
 30 58  1  0  0  0  0
M  END
> <clash_score>
0

> <docking_score>
-7.667126178741455

> <overlap_score>
1.0056053400039673

$$$$
BENZO_151_1
  -OEChem-08232013443D

 58 62  0     0  0  0  0  0  0999 V2000
    8.9960   -2.3380   25.5320 C   0  0  0  0  0  0  0  0  0  0  0  0
    9.6730   -3.4710   23.5300 C   0  0  0  0  0  0  0  0  0  0  0  0
    9.0720   -1.1280   24.8640 C   0  0  0  0  0  0  0  0  0  0  0  0
    9.7200   -2.2600   22.8630 C   0  0  0  0  0  0  0  0  0  0  0  0
   12.3908    2.1640   22.9539 C   0  0  0  0  0  0  0  0  0  0  0  0
   12.3237    0.5511   24.4468 C   0  0  0  0  0  0  0  0  0  0  0  0
   11.5063    1.3375   23.6723 C   0  0  0  0  0  0  0  0  0  0  0  0
    9.3070   -3.5340   24.8780 C   0  0  0  0  0  0  0  0  0  0  0  0
    9.3350   -1.0880   23.5010 C   0  0  0  0  0  0  0  0  0  0  0  0
    5.8300    0.9190   18.6970 C   0  0  0  0  0  0  0  0  0  0  0  0
    7.3170   -0.1610   19.8550 C   0  0  0  0  0  0  0  0  0  0  0  0
    4.6890    1.6810   18.4640 C   0  0  0  0  0  0  0  0  0  0  0  0
    3.9160    2.0630   19.5520 C   0  0  0  0  0  0  0  0  0  0  0  0
    4.2750    1.7050   20.8490 C   0  0  0  0  0  0  0  0  0  0  0  0
    5.4210    0.9600   21.0930 C   0  0  0  0  0  0  0  0  0  0  0  0
    9.0420    0.3700   21.5280 C   0  0  0  0  0  0  0  0  0  0  0  0
    7.3635   -6.1361   27.1888 C   0  0  0  0  0  0  0  0  0  0  0  0
    8.1961   -4.9735   27.7341 C   0  0  0  0  0  0  0  0  0  0  0  0
    7.1942   -6.0394   25.6709 C   0  0  0  0  0  0  0  0  0  0  0  0
    9.5196   -4.8490   26.9797 C   0  0  0  0  0  0  0  0  0  0  0  0
    8.5442   -5.8838   24.9639 C   0  0  0  0  0  0  0  0  0  0  0  0
   14.8092    0.3979   24.7260 C   0  0  0  0  0  0  0  0  0  0  0  0
   10.0063    1.3195   23.6101 C   0  0  0  0  0  0  0  0  0  0  0  0
   13.6720    1.9251   23.2461 N   0  0  0  0  0  0  0  0  0  0  0  0
    6.7580    0.3810   17.8350 N   0  0  0  0  0  0  0  0  0  0  0  0
    7.6390   -0.2680   18.5410 N   0  0  0  0  0  0  0  0  0  0  0  0
   13.5986    0.9396   24.1568 N   0  0  0  0  0  0  0  0  0  0  0  0
    6.1790    0.5730   19.9990 N   0  0  0  0  0  0  0  0  0  0  0  0
    9.2562   -4.7384   25.5422 N   0  0  0  0  0  0  0  0  0  0  0  0
    8.1890   -0.7180   20.8700 N   0  0  0  0  0  0  0  0  0  0  0  0
    9.4560    0.1560   22.8130 N   0  0  0  0  0  0  0  0  0  0  0  0
    9.2690    1.4140   20.9380 O   0  0  0  0  0  0  0  0  0  0  0  0
    8.6905   -2.3533   26.5810 H   0  0  0  0  0  0  0  0  0  0  0  0
    9.9266   -4.3896   22.9917 H   0  0  0  0  0  0  0  0  0  0  0  0
    8.9233   -0.1992   25.4231 H   0  0  0  0  0  0  0  0  0  0  0  0
   10.0650   -2.2330   21.8256 H   0  0  0  0  0  0  0  0  0  0  0  0
   12.1576    2.9318   22.2298 H   0  0  0  0  0  0  0  0  0  0  0  0
   12.1121   -0.2315   25.1628 H   0  0  0  0  0  0  0  0  0  0  0  0
    4.3967    1.9772   17.4718 H   0  0  0  0  0  0  0  0  0  0  0  0
    3.0218    2.6486   19.3697 H   0  0  0  0  0  0  0  0  0  0  0  0
    3.6566    2.0043   21.7065 H   0  0  0  0  0  0  0  0  0  0  0  0
    5.7190    0.6877   22.0810 H   0  0  0  0  0  0  0  0  0  0  0  0
    7.8482   -7.0901   27.4469 H   0  0  0  0  0  0  0  0  0  0  0  0
    6.3760   -6.1438   27.6724 H   0  0  0  0  0  0  0  0  0  0  0  0
    7.6307   -4.0424   27.6403 H   0  0  0  0  0  0  0  0  0  0  0  0
    8.3915   -5.1310   28.7968 H   0  0  0  0  0  0  0  0  0  0  0  0
    6.6888   -6.9376   25.3010 H   0  0  0  0  0  0  0  0  0  0  0  0
    6.5515   -5.1859   25.4257 H   0  0  0  0  0  0  0  0  0  0  0  0
   10.0492   -3.9640   27.3414 H   0  0  0  0  0  0  0  0  0  0  0  0
   10.1431   -5.7254   27.1778 H   0  0  0  0  0  0  0  0  0  0  0  0
    9.1338   -6.7931   25.0868 H   0  0  0  0  0  0  0  0  0  0  0  0
    8.3656   -5.7264   23.8998 H   0  0  0  0  0  0  0  0  0  0  0  0
   15.1341   -0.4353   24.0973 H   0  0  0  0  0  0  0  0  0  0  0  0
   15.5770    1.1760   24.7565 H   0  0  0  0  0  0  0  0  0  0  0  0
   14.6073    0.0540   25.7443 H   0  0  0  0  0  0  0  0  0  0  0  0
    9.5785    1.2746   24.6176 H   0  0  0  0  0  0  0  0  0  0  0  0
    9.6218    2.2274   23.1337 H   0  0  0  0  0  0  0  0  0  0  0  0
    8.2565   -1.5523   21.1108 H   0  0  0  0  0  0  0  0  0  0  0  0
  1  3  2  0  0  0  0
  1  8  1  0  0  0  0
  2  4  1  0  0  0  0
  2  8  2  0  0  0  0
  3  9  1  0  0  0  0
  4  9  2  0  0  0  0
  5  7  1  0  0  0  0
  5 24  2  0  0  0  0
  6  7  2  0  0  0  0
  6 27  1  0  0  0  0
  7 23  1  0  0  0  0
  8 29  1  0  0  0  0
  9 31  1  0  0  0  0
 10 12  1  0  0  0  0
 10 25  2  0  0  0  0
 10 28  1  0  0  0  0
 11 26  2  0  0  0  0
 11 28  1  0  0  0  0
 11 30  1  0  0  0  0
 12 13  2  0  0  0  0
 13 14  1  0  0  0  0
 14 15  2  0  0  0  0
 15 28  1  0  0  0  0
 16 30  1  0  0  0  0
 16 31  1  0  0  0  0
 16 32  2  0  0  0  0
 17 18  1  0  0  0  0
 17 19  1  0  0  0  0
 18 20  1  0  0  0  0
 19 21  1  0  0  0  0
 20 29  1  0  0  0  0
 21 29  1  0  0  0  0
 22 27  1  0  0  0  0
 23 31  1  0  0  0  0
 24 27  1  0  0  0  0
 25 26  1  0  0  0  0
  1 33  1  0  0  0  0
  2 34  1  0  0  0  0
  3 35  1  0  0  0  0
  4 36  1  0  0  0  0
  5 37  1  0  0  0  0
  6 38  1  0  0  0  0
 12 39  1  0  0  0  0
 13 40  1  0  0  0  0
 14 41  1  0  0  0  0
 15 42  1  0  0  0  0
 17 43  1  0  0  0  0
 17 44  1  0  0  0  0
 18 45  1  0  0  0  0
 18 46  1  0  0  0  0
 19 47  1  0  0  0  0
 19 48  1  0  0  0  0
 20 49  1  0  0  0  0
 20 50  1  0  0  0  0
 21 51  1  0  0  0  0
 21 52  1  0  0  0  0
 22 53  1  0  0  0  0
 22 54  1  0  0  0  0
 22 55  1  0  0  0  0
 23 56  1  0  0  0  0
 23 57  1  0  0  0  0
 30 58  1  0  0  0  0
M  END
> <clash_score>
0

> <docking_score>
-8.533184051513672

> <overlap_score>
0.9954401850700378

$$$$
BENZO_155_1
  -OEChem-08232013443D

 46 49  0     0  0  0  0  0  0999 V2000
    8.9960   -2.3380   25.5320 C   0  0  0  0  0  0  0  0  0  0  0  0
    9.6730   -3.4710   23.5300 C   0  0  0  0  0  0  0  0  0  0  0  0
    9.0720   -1.1280   24.8640 C   0  0  0  0  0  0  0  0  0  0  0  0
    9.7200   -2.2600   22.8630 C   0  0  0  0  0  0  0  0  0  0  0  0
   12.4186    2.0981   23.0231 C   0  0  0  0  0  0  0  0  0  0  0  0
   12.2936    0.4348   24.4559 C   0  0  0  0  0  0  0  0  0  0  0  0
    9.3070   -3.5340   24.8780 C   0  0  0  0  0  0  0  0  0  0  0  0
   11.5052    1.2707   23.7036 C   0  0  0  0  0  0  0  0  0  0  0  0
    9.3350   -1.0880   23.5010 C   0  0  0  0  0  0  0  0  0  0  0  0
    5.8300    0.9190   18.6970 C   0  0  0  0  0  0  0  0  0  0  0  0
    7.3170   -0.1610   19.8550 C   0  0  0  0  0  0  0  0  0  0  0  0
    4.6890    1.6810   18.4640 C   0  0  0  0  0  0  0  0  0  0  0  0
    3.9160    2.0630   19.5520 C   0  0  0  0  0  0  0  0  0  0  0  0
    4.2750    1.7050   20.8490 C   0  0  0  0  0  0  0  0  0  0  0  0
    5.4210    0.9600   21.0930 C   0  0  0  0  0  0  0  0  0  0  0  0
    9.0420    0.3700   21.5280 C   0  0  0  0  0  0  0  0  0  0  0  0
    9.2505   -4.8264   25.5904 C   0  0  0  0  0  0  0  0  0  0  0  0
   14.7712    0.2036   24.7505 C   0  0  0  0  0  0  0  0  0  0  0  0
   10.0059    1.2962   23.6279 C   0  0  0  0  0  0  0  0  0  0  0  0
   13.6900    1.8137   23.3173 N   0  0  0  0  0  0  0  0  0  0  0  0
    6.7580    0.3810   17.8350 N   0  0  0  0  0  0  0  0  0  0  0  0
    7.6390   -0.2680   18.5410 N   0  0  0  0  0  0  0  0  0  0  0  0
   13.5812    0.7984   24.1910 N   0  0  0  0  0  0  0  0  0  0  0  0
    6.1790    0.5730   19.9990 N   0  0  0  0  0  0  0  0  0  0  0  0
    8.1890   -0.7180   20.8700 N   0  0  0  0  0  0  0  0  0  0  0  0
    9.4560    0.1560   22.8130 N   0  0  0  0  0  0  0  0  0  0  0  0
    9.2690    1.4140   20.9380 O   0  0  0  0  0  0  0  0  0  0  0  0
    8.6919   -2.3557   26.5813 H   0  0  0  0  0  0  0  0  0  0  0  0
    9.9267   -4.3907   22.9939 H   0  0  0  0  0  0  0  0  0  0  0  0
    8.9217   -0.1995   25.4231 H   0  0  0  0  0  0  0  0  0  0  0  0
   10.0653   -2.2339   21.8256 H   0  0  0  0  0  0  0  0  0  0  0  0
   12.2131    2.8976   22.3254 H   0  0  0  0  0  0  0  0  0  0  0  0
   12.0541   -0.3669   25.1413 H   0  0  0  0  0  0  0  0  0  0  0  0
    4.3967    1.9772   17.4718 H   0  0  0  0  0  0  0  0  0  0  0  0
    3.0218    2.6486   19.3697 H   0  0  0  0  0  0  0  0  0  0  0  0
    3.6566    2.0043   21.7065 H   0  0  0  0  0  0  0  0  0  0  0  0
    5.7190    0.6877   22.0810 H   0  0  0  0  0  0  0  0  0  0  0  0
    8.2503   -5.2678   25.5020 H   0  0  0  0  0  0  0  0  0  0  0  0
    9.9817   -5.5374   25.1845 H   0  0  0  0  0  0  0  0  0  0  0  0
    9.4841   -4.7043   26.6562 H   0  0  0  0  0  0  0  0  0  0  0  0
   15.0794   -0.6151   24.0948 H   0  0  0  0  0  0  0  0  0  0  0  0
   15.5596    0.9586   24.8157 H   0  0  0  0  0  0  0  0  0  0  0  0
   14.5504   -0.1712   25.7538 H   0  0  0  0  0  0  0  0  0  0  0  0
    9.5676    1.2268   24.6295 H   0  0  0  0  0  0  0  0  0  0  0  0
    9.6507    2.2310   23.1816 H   0  0  0  0  0  0  0  0  0  0  0  0
    8.2360   -1.5649   21.0923 H   0  0  0  0  0  0  0  0  0  0  0  0
  1  3  2  0  0  0  0
  1  7  1  0  0  0  0
  2  4  1  0  0  0  0
  2  7  2  0  0  0  0
  3  9  1  0  0  0  0
  4  9  2  0  0  0  0
  5  8  1  0  0  0  0
  5 20  2  0  0  0  0
  6  8  2  0  0  0  0
  6 23  1  0  0  0  0
  7 17  1  0  0  0  0
  8 19  1  0  0  0  0
  9 26  1  0  0  0  0
 10 12  1  0  0  0  0
 10 21  2  0  0  0  0
 10 24  1  0  0  0  0
 11 22  2  0  0  0  0
 11 24  1  0  0  0  0
 11 25  1  0  0  0  0
 12 13  2  0  0  0  0
 13 14  1  0  0  0  0
 14 15  2  0  0  0  0
 15 24  1  0  0  0  0
 16 25  1  0  0  0  0
 16 26  1  0  0  0  0
 16 27  2  0  0  0  0
 18 23  1  0  0  0  0
 19 26  1  0  0  0  0
 20 23  1  0  0  0  0
 21 22  1  0  0  0  0
  1 28  1  0  0  0  0
  2 29  1  0  0  0  0
  3 30  1  0  0  0  0
  4 31  1  0  0  0  0
  5 32  1  0  0  0  0
  6 33  1  0  0  0  0
 12 34  1  0  0  0  0
 13 35  1  0  0  0  0
 14 36  1  0  0  0  0
 15 37  1  0  0  0  0
 17 38  1  0  0  0  0
 17 39  1  0  0  0  0
 17 40  1  0  0  0  0
 18 41  1  0  0  0  0
 18 42  1  0  0  0  0
 18 43  1  0  0  0  0
 19 44  1  0  0  0  0
 19 45  1  0  0  0  0
 25 46  1  0  0  0  0
M  END
> <clash_score>
0

> <docking_score>
-8.595261573791504

> <overlap_score>
0.9385177493095398

$$$$
BENZO_154_1
  -OEChem-08232013443D

 46 49  0     0  0  0  0  0  0999 V2000
   13.6491    2.1519   23.0224 C   0  0  0  0  0  0  0  0  0  0  0  0
   12.2562    2.1742   22.9517 C   0  0  0  0  0  0  0  0  0  0  0  0
    8.9960   -2.3380   25.5320 C   0  0  0  0  0  0  0  0  0  0  0  0
    9.6730   -3.4710   23.5300 C   0  0  0  0  0  0  0  0  0  0  0  0
    9.0720   -1.1280   24.8640 C   0  0  0  0  0  0  0  0  0  0  0  0
    9.7200   -2.2600   22.8630 C   0  0  0  0  0  0  0  0  0  0  0  0
   14.2909    1.2260   23.8448 C   0  0  0  0  0  0  0  0  0  0  0  0
   12.1470    0.3449   24.5261 C   0  0  0  0  0  0  0  0  0  0  0  0
    9.3070   -3.5340   24.8780 C   0  0  0  0  0  0  0  0  0  0  0  0
   11.5052    1.2707   23.7036 C   0  0  0  0  0  0  0  0  0  0  0  0
    9.3350   -1.0880   23.5010 C   0  0  0  0  0  0  0  0  0  0  0  0
   13.5399    0.3225   24.5967 C   0  0  0  0  0  0  0  0  0  0  0  0
    5.8300    0.9190   18.6970 C   0  0  0  0  0  0  0  0  0  0  0  0
    7.3170   -0.1610   19.8550 C   0  0  0  0  0  0  0  0  0  0  0  0
    4.6890    1.6810   18.4640 C   0  0  0  0  0  0  0  0  0  0  0  0
    3.9160    2.0630   19.5520 C   0  0  0  0  0  0  0  0  0  0  0  0
    4.2750    1.7050   20.8490 C   0  0  0  0  0  0  0  0  0  0  0  0
    5.4210    0.9600   21.0930 C   0  0  0  0  0  0  0  0  0  0  0  0
    9.0420    0.3700   21.5280 C   0  0  0  0  0  0  0  0  0  0  0  0
    9.2505   -4.8264   25.5904 C   0  0  0  0  0  0  0  0  0  0  0  0
   10.0059    1.2962   23.6279 C   0  0  0  0  0  0  0  0  0  0  0  0
    6.7580    0.3810   17.8350 N   0  0  0  0  0  0  0  0  0  0  0  0
    7.6390   -0.2680   18.5410 N   0  0  0  0  0  0  0  0  0  0  0  0
    6.1790    0.5730   19.9990 N   0  0  0  0  0  0  0  0  0  0  0  0
    8.1890   -0.7180   20.8700 N   0  0  0  0  0  0  0  0  0  0  0  0
    9.4560    0.1560   22.8130 N   0  0  0  0  0  0  0  0  0  0  0  0
    9.2690    1.4140   20.9380 O   0  0  0  0  0  0  0  0  0  0  0  0
   14.3324   -0.8188   25.6122 Cl  0  0  0  0  0  0  0  0  0  0  0  0
   14.2335    2.8557   22.4368 H   0  0  0  0  0  0  0  0  0  0  0  0
   11.7645    2.8992   22.3082 H   0  0  0  0  0  0  0  0  0  0  0  0
    8.6919   -2.3557   26.5813 H   0  0  0  0  0  0  0  0  0  0  0  0
    9.9267   -4.3907   22.9939 H   0  0  0  0  0  0  0  0  0  0  0  0
    8.9217   -0.1995   25.4231 H   0  0  0  0  0  0  0  0  0  0  0  0
   10.0653   -2.2339   21.8256 H   0  0  0  0  0  0  0  0  0  0  0  0
   15.3772    1.2203   23.8902 H   0  0  0  0  0  0  0  0  0  0  0  0
   11.5570   -0.3578   25.1100 H   0  0  0  0  0  0  0  0  0  0  0  0
    4.3967    1.9772   17.4718 H   0  0  0  0  0  0  0  0  0  0  0  0
    3.0218    2.6486   19.3697 H   0  0  0  0  0  0  0  0  0  0  0  0
    3.6566    2.0043   21.7065 H   0  0  0  0  0  0  0  0  0  0  0  0
    5.7190    0.6877   22.0810 H   0  0  0  0  0  0  0  0  0  0  0  0
    8.2503   -5.2678   25.5020 H   0  0  0  0  0  0  0  0  0  0  0  0
    9.9817   -5.5374   25.1845 H   0  0  0  0  0  0  0  0  0  0  0  0
    9.4841   -4.7043   26.6562 H   0  0  0  0  0  0  0  0  0  0  0  0
    9.5676    1.2268   24.6295 H   0  0  0  0  0  0  0  0  0  0  0  0
    9.6507    2.2310   23.1816 H   0  0  0  0  0  0  0  0  0  0  0  0
    8.2360   -1.5649   21.0923 H   0  0  0  0  0  0  0  0  0  0  0  0
  1  2  2  0  0  0  0
  1  7  1  0  0  0  0
  2 10  1  0  0  0  0
  3  5  2  0  0  0  0
  3  9  1  0  0  0  0
  4  6  1  0  0  0  0
  4  9  2  0  0  0  0
  5 11  1  0  0  0  0
  6 11  2  0  0  0  0
  7 12  2  0  0  0  0
  8 10  2  0  0  0  0
  8 12  1  0  0  0  0
  9 20  1  0  0  0  0
 10 21  1  0  0  0  0
 11 26  1  0  0  0  0
 12 28  1  0  0  0  0
 13 15  1  0  0  0  0
 13 22  2  0  0  0  0
 13 24  1  0  0  0  0
 14 23  2  0  0  0  0
 14 24  1  0  0  0  0
 14 25  1  0  0  0  0
 15 16  2  0  0  0  0
 16 17  1  0  0  0  0
 17 18  2  0  0  0  0
 18 24  1  0  0  0  0
 19 25  1  0  0  0  0
 19 26  1  0  0  0  0
 19 27  2  0  0  0  0
 21 26  1  0  0  0  0
 22 23  1  0  0  0  0
  1 29  1  0  0  0  0
  2 30  1  0  0  0  0
  3 31  1  0  0  0  0
  4 32  1  0  0  0  0
  5 33  1  0  0  0  0
  6 34  1  0  0  0  0
  7 35  1  0  0  0  0
  8 36  1  0  0  0  0
 15 37  1  0  0  0  0
 16 38  1  0  0  0  0
 17 39  1  0  0  0  0
 18 40  1  0  0  0  0
 20 41  1  0  0  0  0
 20 42  1  0  0  0  0
 20 43  1  0  0  0  0
 21 44  1  0  0  0  0
 21 45  1  0  0  0  0
 25 46  1  0  0  0  0
M  END
> <clash_score>
0.6635557580049075

> <docking_score>
-7.8433308601379395

> <overlap_score>
0.9427209496498108

$$$$
BENZO_157_1
  -OEChem-08232013443D

 47 50  0     0  0  0  0  0  0999 V2000
   14.2910    1.2238   23.8427 C   0  0  0  0  0  0  0  0  0  0  0  0
   13.5334    0.5538   24.8033 C   0  0  0  0  0  0  0  0  0  0  0  0
   13.6558    1.9173   22.8126 C   0  0  0  0  0  0  0  0  0  0  0  0
   12.1405    0.5773   24.7337 C   0  0  0  0  0  0  0  0  0  0  0  0
   12.2628    1.9408   22.7430 C   0  0  0  0  0  0  0  0  0  0  0  0
    9.0720   -1.1280   24.8640 C   0  0  0  0  0  0  0  0  0  0  0  0
    9.7200   -2.2600   22.8630 C   0  0  0  0  0  0  0  0  0  0  0  0
    8.9960   -2.3380   25.5320 C   0  0  0  0  0  0  0  0  0  0  0  0
    9.6730   -3.4710   23.5300 C   0  0  0  0  0  0  0  0  0  0  0  0
   11.5052    1.2707   23.7036 C   0  0  0  0  0  0  0  0  0  0  0  0
    9.3350   -1.0880   23.5010 C   0  0  0  0  0  0  0  0  0  0  0  0
    9.3070   -3.5340   24.8780 C   0  0  0  0  0  0  0  0  0  0  0  0
    5.8300    0.9190   18.6970 C   0  0  0  0  0  0  0  0  0  0  0  0
    7.3170   -0.1610   19.8550 C   0  0  0  0  0  0  0  0  0  0  0  0
    4.6890    1.6810   18.4640 C   0  0  0  0  0  0  0  0  0  0  0  0
    3.9160    2.0630   19.5520 C   0  0  0  0  0  0  0  0  0  0  0  0
    4.2750    1.7050   20.8490 C   0  0  0  0  0  0  0  0  0  0  0  0
    5.4210    0.9600   21.0930 C   0  0  0  0  0  0  0  0  0  0  0  0
    9.0420    0.3700   21.5280 C   0  0  0  0  0  0  0  0  0  0  0  0
    9.5894   -5.8809   24.7798 C   0  0  0  0  0  0  0  0  0  0  0  0
   10.0059    1.2962   23.6279 C   0  0  0  0  0  0  0  0  0  0  0  0
    6.7580    0.3810   17.8350 N   0  0  0  0  0  0  0  0  0  0  0  0
    7.6390   -0.2680   18.5410 N   0  0  0  0  0  0  0  0  0  0  0  0
    6.1790    0.5730   19.9990 N   0  0  0  0  0  0  0  0  0  0  0  0
    8.1890   -0.7180   20.8700 N   0  0  0  0  0  0  0  0  0  0  0  0
    9.4560    0.1560   22.8130 N   0  0  0  0  0  0  0  0  0  0  0  0
    9.2690    1.4140   20.9380 O   0  0  0  0  0  0  0  0  0  0  0  0
    9.2555   -4.7124   25.5274 O   0  0  0  0  0  0  0  0  0  0  0  0
   15.3756    1.2066   23.8978 H   0  0  0  0  0  0  0  0  0  0  0  0
   14.0279    0.0147   25.6061 H   0  0  0  0  0  0  0  0  0  0  0  0
   14.2453    2.4400   22.0652 H   0  0  0  0  0  0  0  0  0  0  0  0
   11.5583    0.0522   25.4864 H   0  0  0  0  0  0  0  0  0  0  0  0
   11.7765    2.4836   21.9368 H   0  0  0  0  0  0  0  0  0  0  0  0
    8.9221   -0.1995   25.4231 H   0  0  0  0  0  0  0  0  0  0  0  0
   10.0642   -2.2347   21.8253 H   0  0  0  0  0  0  0  0  0  0  0  0
    8.6902   -2.3588   26.5805 H   0  0  0  0  0  0  0  0  0  0  0  0
    9.9254   -4.3921   22.9961 H   0  0  0  0  0  0  0  0  0  0  0  0
    4.3967    1.9772   17.4718 H   0  0  0  0  0  0  0  0  0  0  0  0
    3.0218    2.6486   19.3697 H   0  0  0  0  0  0  0  0  0  0  0  0
    3.6566    2.0043   21.7065 H   0  0  0  0  0  0  0  0  0  0  0  0
    5.7190    0.6877   22.0810 H   0  0  0  0  0  0  0  0  0  0  0  0
    9.5074   -6.7611   25.4222 H   0  0  0  0  0  0  0  0  0  0  0  0
   10.6088   -5.7902   24.3963 H   0  0  0  0  0  0  0  0  0  0  0  0
    8.8944   -5.9778   23.9424 H   0  0  0  0  0  0  0  0  0  0  0  0
    9.5676    1.2268   24.6295 H   0  0  0  0  0  0  0  0  0  0  0  0
    9.6507    2.2310   23.1816 H   0  0  0  0  0  0  0  0  0  0  0  0
    8.2360   -1.5649   21.0923 H   0  0  0  0  0  0  0  0  0  0  0  0
  1  2  1  0  0  0  0
  1  3  2  0  0  0  0
  2  4  2  0  0  0  0
  3  5  1  0  0  0  0
  4 10  1  0  0  0  0
  5 10  2  0  0  0  0
  6  8  2  0  0  0  0
  6 11  1  0  0  0  0
  7  9  1  0  0  0  0
  7 11  2  0  0  0  0
  8 12  1  0  0  0  0
  9 12  2  0  0  0  0
 10 21  1  0  0  0  0
 11 26  1  0  0  0  0
 12 28  1  0  0  0  0
 13 15  1  0  0  0  0
 13 22  2  0  0  0  0
 13 24  1  0  0  0  0
 14 23  2  0  0  0  0
 14 24  1  0  0  0  0
 14 25  1  0  0  0  0
 15 16  2  0  0  0  0
 16 17  1  0  0  0  0
 17 18  2  0  0  0  0
 18 24  1  0  0  0  0
 19 25  1  0  0  0  0
 19 26  1  0  0  0  0
 19 27  2  0  0  0  0
 20 28  1  0  0  0  0
 21 26  1  0  0  0  0
 22 23  1  0  0  0  0
  1 29  1  0  0  0  0
  2 30  1  0  0  0  0
  3 31  1  0  0  0  0
  4 32  1  0  0  0  0
  5 33  1  0  0  0  0
  6 34  1  0  0  0  0
  7 35  1  0  0  0  0
  8 36  1  0  0  0  0
  9 37  1  0  0  0  0
 15 38  1  0  0  0  0
 16 39  1  0  0  0  0
 17 40  1  0  0  0  0
 18 41  1  0  0  0  0
 20 42  1  0  0  0  0
 20 43  1  0  0  0  0
 20 44  1  0  0  0  0
 21 45  1  0  0  0  0
 21 46  1  0  0  0  0
 25 47  1  0  0  0  0
M  END
> <clash_score>
0

> <docking_score>
-8.715600967407227

> <overlap_score>
0.9634144306182861

$$$$
BENZO_156_1
  -OEChem-08232013443D

 44 47  0     0  0  0  0  0  0999 V2000
    9.0720   -1.1280   24.8640 C   0  0  0  0  0  0  0  0  0  0  0  0
    9.7200   -2.2600   22.8630 C   0  0  0  0  0  0  0  0  0  0  0  0
    8.9960   -2.3380   25.5320 C   0  0  0  0  0  0  0  0  0  0  0  0
    9.6730   -3.4710   23.5300 C   0  0  0  0  0  0  0  0  0  0  0  0
   12.3141    2.4366   23.8321 C   0  0  0  0  0  0  0  0  0  0  0  0
   13.6568    2.1322   23.8782 C   0  0  0  0  0  0  0  0  0  0  0  0
   12.2605    0.1196   23.6560 C   0  0  0  0  0  0  0  0  0  0  0  0
   11.5052    1.2707   23.7036 C   0  0  0  0  0  0  0  0  0  0  0  0
    9.3350   -1.0880   23.5010 C   0  0  0  0  0  0  0  0  0  0  0  0
    9.3070   -3.5340   24.8780 C   0  0  0  0  0  0  0  0  0  0  0  0
    5.8300    0.9190   18.6970 C   0  0  0  0  0  0  0  0  0  0  0  0
    7.3170   -0.1610   19.8550 C   0  0  0  0  0  0  0  0  0  0  0  0
    4.6890    1.6810   18.4640 C   0  0  0  0  0  0  0  0  0  0  0  0
    3.9160    2.0630   19.5520 C   0  0  0  0  0  0  0  0  0  0  0  0
    4.2750    1.7050   20.8490 C   0  0  0  0  0  0  0  0  0  0  0  0
    5.4210    0.9600   21.0930 C   0  0  0  0  0  0  0  0  0  0  0  0
    9.0420    0.3700   21.5280 C   0  0  0  0  0  0  0  0  0  0  0  0
    8.8720   -4.6805   26.9013 C   0  0  0  0  0  0  0  0  0  0  0  0
   10.0059    1.2962   23.6279 C   0  0  0  0  0  0  0  0  0  0  0  0
    6.7580    0.3810   17.8350 N   0  0  0  0  0  0  0  0  0  0  0  0
    7.6390   -0.2680   18.5410 N   0  0  0  0  0  0  0  0  0  0  0  0
    6.1790    0.5730   19.9990 N   0  0  0  0  0  0  0  0  0  0  0  0
    8.1890   -0.7180   20.8700 N   0  0  0  0  0  0  0  0  0  0  0  0
    9.4560    0.1560   22.8130 N   0  0  0  0  0  0  0  0  0  0  0  0
    9.2690    1.4140   20.9380 O   0  0  0  0  0  0  0  0  0  0  0  0
    9.2555   -4.7124   25.5274 O   0  0  0  0  0  0  0  0  0  0  0  0
   13.9377    0.4467   23.7665 S   0  0  0  0  0  0  0  0  0  0  0  0
    8.9221   -0.1995   25.4231 H   0  0  0  0  0  0  0  0  0  0  0  0
   10.0642   -2.2347   21.8253 H   0  0  0  0  0  0  0  0  0  0  0  0
    8.6902   -2.3588   26.5805 H   0  0  0  0  0  0  0  0  0  0  0  0
    9.9254   -4.3921   22.9961 H   0  0  0  0  0  0  0  0  0  0  0  0
   11.9346    3.4491   23.8880 H   0  0  0  0  0  0  0  0  0  0  0  0
   14.4863    2.8189   23.9714 H   0  0  0  0  0  0  0  0  0  0  0  0
   11.9119   -0.8994   23.5606 H   0  0  0  0  0  0  0  0  0  0  0  0
    4.3967    1.9772   17.4718 H   0  0  0  0  0  0  0  0  0  0  0  0
    3.0218    2.6486   19.3697 H   0  0  0  0  0  0  0  0  0  0  0  0
    3.6566    2.0043   21.7065 H   0  0  0  0  0  0  0  0  0  0  0  0
    5.7190    0.6877   22.0810 H   0  0  0  0  0  0  0  0  0  0  0  0
    8.8711   -5.6964   27.3038 H   0  0  0  0  0  0  0  0  0  0  0  0
    7.8758   -4.2402   26.9923 H   0  0  0  0  0  0  0  0  0  0  0  0
    9.5894   -4.0716   27.4566 H   0  0  0  0  0  0  0  0  0  0  0  0
    9.5676    1.2268   24.6295 H   0  0  0  0  0  0  0  0  0  0  0  0
    9.6507    2.2310   23.1816 H   0  0  0  0  0  0  0  0  0  0  0  0
    8.2360   -1.5649   21.0923 H   0  0  0  0  0  0  0  0  0  0  0  0
  1  3  2  0  0  0  0
  1  9  1  0  0  0  0
  2  4  1  0  0  0  0
  2  9  2  0  0  0  0
  3 10  1  0  0  0  0
  4 10  2  0  0  0  0
  5  6  2  0  0  0  0
  5  8  1  0  0  0  0
  6 27  1  0  0  0  0
  7  8  2  0  0  0  0
  7 27  1  0  0  0  0
  8 19  1  0  0  0  0
  9 24  1  0  0  0  0
 10 26  1  0  0  0  0
 11 13  1  0  0  0  0
 11 20  2  0  0  0  0
 11 22  1  0  0  0  0
 12 21  2  0  0  0  0
 12 22  1  0  0  0  0
 12 23  1  0  0  0  0
 13 14  2  0  0  0  0
 14 15  1  0  0  0  0
 15 16  2  0  0  0  0
 16 22  1  0  0  0  0
 17 23  1  0  0  0  0
 17 24  1  0  0  0  0
 17 25  2  0  0  0  0
 18 26  1  0  0  0  0
 19 24  1  0  0  0  0
 20 21  1  0  0  0  0
  1 28  1  0  0  0  0
  2 29  1  0  0  0  0
  3 30  1  0  0  0  0
  4 31  1  0  0  0  0
  5 32  1  0  0  0  0
  6 33  1  0  0  0  0
  7 34  1  0  0  0  0
 13 35  1  0  0  0  0
 14 36  1  0  0  0  0
 15 37  1  0  0  0  0
 16 38  1  0  0  0  0
 18 39  1  0  0  0  0
 18 40  1  0  0  0  0
 18 41  1  0  0  0  0
 19 42  1  0  0  0  0
 19 43  1  0  0  0  0
 23 44  1  0  0  0  0
M  END
> <clash_score>
0

> <docking_score>
-7.781086444854736

> <overlap_score>
0.9475966095924377

$$$$
BENZO_159_1
  -OEChem-08232013443D

 47 50  0     0  0  0  0  0  0999 V2000
    9.0720   -1.1280   24.8640 C   0  0  0  0  0  0  0  0  0  0  0  0
    9.7200   -2.2600   22.8630 C   0  0  0  0  0  0  0  0  0  0  0  0
    8.9960   -2.3380   25.5320 C   0  0  0  0  0  0  0  0  0  0  0  0
    9.6730   -3.4710   23.5300 C   0  0  0  0  0  0  0  0  0  0  0  0
   12.4186    2.0981   23.0231 C   0  0  0  0  0  0  0  0  0  0  0  0
   12.2936    0.4348   24.4559 C   0  0  0  0  0  0  0  0  0  0  0  0
   11.5052    1.2707   23.7036 C   0  0  0  0  0  0  0  0  0  0  0  0
    9.3350   -1.0880   23.5010 C   0  0  0  0  0  0  0  0  0  0  0  0
    9.3070   -3.5340   24.8780 C   0  0  0  0  0  0  0  0  0  0  0  0
    5.8300    0.9190   18.6970 C   0  0  0  0  0  0  0  0  0  0  0  0
    7.3170   -0.1610   19.8550 C   0  0  0  0  0  0  0  0  0  0  0  0
    4.6890    1.6810   18.4640 C   0  0  0  0  0  0  0  0  0  0  0  0
    3.9160    2.0630   19.5520 C   0  0  0  0  0  0  0  0  0  0  0  0
    4.2750    1.7050   20.8490 C   0  0  0  0  0  0  0  0  0  0  0  0
    5.4210    0.9600   21.0930 C   0  0  0  0  0  0  0  0  0  0  0  0
    9.0420    0.3700   21.5280 C   0  0  0  0  0  0  0  0  0  0  0  0
   14.7712    0.2036   24.7505 C   0  0  0  0  0  0  0  0  0  0  0  0
    8.8720   -4.6805   26.9013 C   0  0  0  0  0  0  0  0  0  0  0  0
   10.0059    1.2962   23.6279 C   0  0  0  0  0  0  0  0  0  0  0  0
   13.6900    1.8137   23.3173 N   0  0  0  0  0  0  0  0  0  0  0  0
    6.7580    0.3810   17.8350 N   0  0  0  0  0  0  0  0  0  0  0  0
    7.6390   -0.2680   18.5410 N   0  0  0  0  0  0  0  0  0  0  0  0
   13.5812    0.7984   24.1910 N   0  0  0  0  0  0  0  0  0  0  0  0
    6.1790    0.5730   19.9990 N   0  0  0  0  0  0  0  0  0  0  0  0
    8.1890   -0.7180   20.8700 N   0  0  0  0  0  0  0  0  0  0  0  0
    9.4560    0.1560   22.8130 N   0  0  0  0  0  0  0  0  0  0  0  0
    9.2690    1.4140   20.9380 O   0  0  0  0  0  0  0  0  0  0  0  0
    9.2555   -4.7124   25.5274 O   0  0  0  0  0  0  0  0  0  0  0  0
    8.9221   -0.1995   25.4231 H   0  0  0  0  0  0  0  0  0  0  0  0
   10.0642   -2.2347   21.8253 H   0  0  0  0  0  0  0  0  0  0  0  0
    8.6902   -2.3588   26.5805 H   0  0  0  0  0  0  0  0  0  0  0  0
    9.9254   -4.3921   22.9961 H   0  0  0  0  0  0  0  0  0  0  0  0
   12.2131    2.8976   22.3254 H   0  0  0  0  0  0  0  0  0  0  0  0
   12.0541   -0.3669   25.1413 H   0  0  0  0  0  0  0  0  0  0  0  0
    4.3967    1.9772   17.4718 H   0  0  0  0  0  0  0  0  0  0  0  0
    3.0218    2.6486   19.3697 H   0  0  0  0  0  0  0  0  0  0  0  0
    3.6566    2.0043   21.7065 H   0  0  0  0  0  0  0  0  0  0  0  0
    5.7190    0.6877   22.0810 H   0  0  0  0  0  0  0  0  0  0  0  0
   15.0794   -0.6151   24.0948 H   0  0  0  0  0  0  0  0  0  0  0  0
   15.5596    0.9586   24.8157 H   0  0  0  0  0  0  0  0  0  0  0  0
   14.5504   -0.1712   25.7538 H   0  0  0  0  0  0  0  0  0  0  0  0
    8.8711   -5.6964   27.3038 H   0  0  0  0  0  0  0  0  0  0  0  0
    7.8758   -4.2402   26.9923 H   0  0  0  0  0  0  0  0  0  0  0  0
    9.5894   -4.0716   27.4566 H   0  0  0  0  0  0  0  0  0  0  0  0
    9.5676    1.2268   24.6295 H   0  0  0  0  0  0  0  0  0  0  0  0
    9.6507    2.2310   23.1816 H   0  0  0  0  0  0  0  0  0  0  0  0
    8.2360   -1.5649   21.0923 H   0  0  0  0  0  0  0  0  0  0  0  0
  1  3  2  0  0  0  0
  1  8  1  0  0  0  0
  2  4  1  0  0  0  0
  2  8  2  0  0  0  0
  3  9  1  0  0  0  0
  4  9  2  0  0  0  0
  5  7  1  0  0  0  0
  5 20  2  0  0  0  0
  6  7  2  0  0  0  0
  6 23  1  0  0  0  0
  7 19  1  0  0  0  0
  8 26  1  0  0  0  0
  9 28  1  0  0  0  0
 10 12  1  0  0  0  0
 10 21  2  0  0  0  0
 10 24  1  0  0  0  0
 11 22  2  0  0  0  0
 11 24  1  0  0  0  0
 11 25  1  0  0  0  0
 12 13  2  0  0  0  0
 13 14  1  0  0  0  0
 14 15  2  0  0  0  0
 15 24  1  0  0  0  0
 16 25  1  0  0  0  0
 16 26  1  0  0  0  0
 16 27  2  0  0  0  0
 17 23  1  0  0  0  0
 18 28  1  0  0  0  0
 19 26  1  0  0  0  0
 20 23  1  0  0  0  0
 21 22  1  0  0  0  0
  1 29  1  0  0  0  0
  2 30  1  0  0  0  0
  3 31  1  0  0  0  0
  4 32  1  0  0  0  0
  5 33  1  0  0  0  0
  6 34  1  0  0  0  0
 12 35  1  0  0  0  0
 13 36  1  0  0  0  0
 14 37  1  0  0  0  0
 15 38  1  0  0  0  0
 17 39  1  0  0  0  0
 17 40  1  0  0  0  0
 17 41  1  0  0  0  0
 18 42  1  0  0  0  0
 18 43  1  0  0  0  0
 18 44  1  0  0  0  0
 19 45  1  0  0  0  0
 19 46  1  0  0  0  0
 25 47  1  0  0  0  0
M  END
> <clash_score>
0

> <docking_score>
-8.33156967163086

> <overlap_score>
0.9608710408210754

$$$$
BENZO_158_1
  -OEChem-08232013443D

 47 50  0     0  0  0  0  0  0999 V2000
   13.6491    2.1519   23.0224 C   0  0  0  0  0  0  0  0  0  0  0  0
   12.2562    2.1742   22.9517 C   0  0  0  0  0  0  0  0  0  0  0  0
    9.0720   -1.1280   24.8640 C   0  0  0  0  0  0  0  0  0  0  0  0
    9.7200   -2.2600   22.8630 C   0  0  0  0  0  0  0  0  0  0  0  0
    8.9960   -2.3380   25.5320 C   0  0  0  0  0  0  0  0  0  0  0  0
    9.6730   -3.4710   23.5300 C   0  0  0  0  0  0  0  0  0  0  0  0
   14.2909    1.2260   23.8448 C   0  0  0  0  0  0  0  0  0  0  0  0
   12.1470    0.3449   24.5261 C   0  0  0  0  0  0  0  0  0  0  0  0
   11.5052    1.2707   23.7036 C   0  0  0  0  0  0  0  0  0  0  0  0
    9.3350   -1.0880   23.5010 C   0  0  0  0  0  0  0  0  0  0  0  0
    9.3070   -3.5340   24.8780 C   0  0  0  0  0  0  0  0  0  0  0  0
   13.5399    0.3225   24.5967 C   0  0  0  0  0  0  0  0  0  0  0  0
    5.8300    0.9190   18.6970 C   0  0  0  0  0  0  0  0  0  0  0  0
    7.3170   -0.1610   19.8550 C   0  0  0  0  0  0  0  0  0  0  0  0
    4.6890    1.6810   18.4640 C   0  0  0  0  0  0  0  0  0  0  0  0
    3.9160    2.0630   19.5520 C   0  0  0  0  0  0  0  0  0  0  0  0
    4.2750    1.7050   20.8490 C   0  0  0  0  0  0  0  0  0  0  0  0
    5.4210    0.9600   21.0930 C   0  0  0  0  0  0  0  0  0  0  0  0
    9.0420    0.3700   21.5280 C   0  0  0  0  0  0  0  0  0  0  0  0
    8.8720   -4.6805   26.9013 C   0  0  0  0  0  0  0  0  0  0  0  0
   10.0059    1.2962   23.6279 C   0  0  0  0  0  0  0  0  0  0  0  0
    6.7580    0.3810   17.8350 N   0  0  0  0  0  0  0  0  0  0  0  0
    7.6390   -0.2680   18.5410 N   0  0  0  0  0  0  0  0  0  0  0  0
    6.1790    0.5730   19.9990 N   0  0  0  0  0  0  0  0  0  0  0  0
    8.1890   -0.7180   20.8700 N   0  0  0  0  0  0  0  0  0  0  0  0
    9.4560    0.1560   22.8130 N   0  0  0  0  0  0  0  0  0  0  0  0
    9.2690    1.4140   20.9380 O   0  0  0  0  0  0  0  0  0  0  0  0
    9.2555   -4.7124   25.5274 O   0  0  0  0  0  0  0  0  0  0  0  0
   14.3324   -0.8188   25.6122 Cl  0  0  0  0  0  0  0  0  0  0  0  0
   14.2335    2.8557   22.4368 H   0  0  0  0  0  0  0  0  0  0  0  0
   11.7645    2.8992   22.3082 H   0  0  0  0  0  0  0  0  0  0  0  0
    8.9221   -0.1995   25.4231 H   0  0  0  0  0  0  0  0  0  0  0  0
   10.0642   -2.2347   21.8253 H   0  0  0  0  0  0  0  0  0  0  0  0
    8.6902   -2.3588   26.5805 H   0  0  0  0  0  0  0  0  0  0  0  0
    9.9254   -4.3921   22.9961 H   0  0  0  0  0  0  0  0  0  0  0  0
   15.3772    1.2203   23.8902 H   0  0  0  0  0  0  0  0  0  0  0  0
   11.5570   -0.3578   25.1100 H   0  0  0  0  0  0  0  0  0  0  0  0
    4.3967    1.9772   17.4718 H   0  0  0  0  0  0  0  0  0  0  0  0
    3.0218    2.6486   19.3697 H   0  0  0  0  0  0  0  0  0  0  0  0
    3.6566    2.0043   21.7065 H   0  0  0  0  0  0  0  0  0  0  0  0
    5.7190    0.6877   22.0810 H   0  0  0  0  0  0  0  0  0  0  0  0
    8.8711   -5.6964   27.3038 H   0  0  0  0  0  0  0  0  0  0  0  0
    7.8758   -4.2402   26.9923 H   0  0  0  0  0  0  0  0  0  0  0  0
    9.5894   -4.0716   27.4566 H   0  0  0  0  0  0  0  0  0  0  0  0
    9.5676    1.2268   24.6295 H   0  0  0  0  0  0  0  0  0  0  0  0
    9.6507    2.2310   23.1816 H   0  0  0  0  0  0  0  0  0  0  0  0
    8.2360   -1.5649   21.0923 H   0  0  0  0  0  0  0  0  0  0  0  0
  1  2  2  0  0  0  0
  1  7  1  0  0  0  0
  2  9  1  0  0  0  0
  3  5  2  0  0  0  0
  3 10  1  0  0  0  0
  4  6  1  0  0  0  0
  4 10  2  0  0  0  0
  5 11  1  0  0  0  0
  6 11  2  0  0  0  0
  7 12  2  0  0  0  0
  8  9  2  0  0  0  0
  8 12  1  0  0  0  0
  9 21  1  0  0  0  0
 10 26  1  0  0  0  0
 11 28  1  0  0  0  0
 12 29  1  0  0  0  0
 13 15  1  0  0  0  0
 13 22  2  0  0  0  0
 13 24  1  0  0  0  0
 14 23  2  0  0  0  0
 14 24  1  0  0  0  0
 14 25  1  0  0  0  0
 15 16  2  0  0  0  0
 16 17  1  0  0  0  0
 17 18  2  0  0  0  0
 18 24  1  0  0  0  0
 19 25  1  0  0  0  0
 19 26  1  0  0  0  0
 19 27  2  0  0  0  0
 20 28  1  0  0  0  0
 21 26  1  0  0  0  0
 22 23  1  0  0  0  0
  1 30  1  0  0  0  0
  2 31  1  0  0  0  0
  3 32  1  0  0  0  0
  4 33  1  0  0  0  0
  5 34  1  0  0  0  0
  6 35  1  0  0  0  0
  7 36  1  0  0  0  0
  8 37  1  0  0  0  0
 15 38  1  0  0  0  0
 16 39  1  0  0  0  0
 17 40  1  0  0  0  0
 18 41  1  0  0  0  0
 20 42  1  0  0  0  0
 20 43  1  0  0  0  0
 20 44  1  0  0  0  0
 21 45  1  0  0  0  0
 21 46  1  0  0  0  0
 25 47  1  0  0  0  0
M  END
> <clash_score>
0.6635557580049075

> <docking_score>
-7.579638957977295

> <overlap_score>
0.9650426506996155

$$$$
BENZO_161_1
  -OEChem-08232013443D

 57 61  0     0  0  0  0  0  0999 V2000
   14.2901    1.2070   23.8342 C   0  0  0  0  0  0  0  0  0  0  0  0
   13.5239    0.5665   24.8080 C   0  0  0  0  0  0  0  0  0  0  0  0
   13.6638    1.8841   22.7878 C   0  0  0  0  0  0  0  0  0  0  0  0
   12.1314    0.6030   24.7354 C   0  0  0  0  0  0  0  0  0  0  0  0
   12.2713    1.9205   22.7152 C   0  0  0  0  0  0  0  0  0  0  0  0
    8.9960   -2.3380   25.5320 C   0  0  0  0  0  0  0  0  0  0  0  0
    9.6730   -3.4710   23.5300 C   0  0  0  0  0  0  0  0  0  0  0  0
    9.0720   -1.1280   24.8640 C   0  0  0  0  0  0  0  0  0  0  0  0
    9.7200   -2.2600   22.8630 C   0  0  0  0  0  0  0  0  0  0  0  0
   11.5051    1.2800   23.6890 C   0  0  0  0  0  0  0  0  0  0  0  0
    9.3070   -3.5340   24.8780 C   0  0  0  0  0  0  0  0  0  0  0  0
    9.3350   -1.0880   23.5010 C   0  0  0  0  0  0  0  0  0  0  0  0
    5.8300    0.9190   18.6970 C   0  0  0  0  0  0  0  0  0  0  0  0
    7.3170   -0.1610   19.8550 C   0  0  0  0  0  0  0  0  0  0  0  0
    4.6890    1.6810   18.4640 C   0  0  0  0  0  0  0  0  0  0  0  0
    3.9160    2.0630   19.5520 C   0  0  0  0  0  0  0  0  0  0  0  0
    4.2750    1.7050   20.8490 C   0  0  0  0  0  0  0  0  0  0  0  0
    5.4210    0.9600   21.0930 C   0  0  0  0  0  0  0  0  0  0  0  0
    8.3597   -5.0073   26.6307 C   0  0  0  0  0  0  0  0  0  0  0  0
    9.0420    0.3700   21.5280 C   0  0  0  0  0  0  0  0  0  0  0  0
    8.4720   -6.3981   27.2296 C   0  0  0  0  0  0  0  0  0  0  0  0
    9.9252   -6.7605   27.4803 C   0  0  0  0  0  0  0  0  0  0  0  0
   10.7833   -6.6094   26.2282 C   0  0  0  0  0  0  0  0  0  0  0  0
   10.0539   -5.9099   25.0823 C   0  0  0  0  0  0  0  0  0  0  0  0
   10.0063    1.3195   23.6101 C   0  0  0  0  0  0  0  0  0  0  0  0
    6.7580    0.3810   17.8350 N   0  0  0  0  0  0  0  0  0  0  0  0
    7.6390   -0.2680   18.5410 N   0  0  0  0  0  0  0  0  0  0  0  0
    6.1790    0.5730   19.9990 N   0  0  0  0  0  0  0  0  0  0  0  0
    9.2529   -4.7797   25.5644 N   0  0  0  0  0  0  0  0  0  0  0  0
    8.1890   -0.7180   20.8700 N   0  0  0  0  0  0  0  0  0  0  0  0
    9.4560    0.1560   22.8130 N   0  0  0  0  0  0  0  0  0  0  0  0
    7.4954   -4.2356   27.0449 O   0  0  0  0  0  0  0  0  0  0  0  0
    9.2690    1.4140   20.9380 O   0  0  0  0  0  0  0  0  0  0  0  0
   15.3743    1.1796   23.8917 H   0  0  0  0  0  0  0  0  0  0  0  0
   14.0114    0.0402   25.6235 H   0  0  0  0  0  0  0  0  0  0  0  0
   14.2600    2.3838   22.0300 H   0  0  0  0  0  0  0  0  0  0  0  0
   11.5425    0.1009   25.4985 H   0  0  0  0  0  0  0  0  0  0  0  0
   11.7920    2.4504   21.8962 H   0  0  0  0  0  0  0  0  0  0  0  0
    8.6895   -2.3529   26.5807 H   0  0  0  0  0  0  0  0  0  0  0  0
    9.9262   -4.3897   22.9916 H   0  0  0  0  0  0  0  0  0  0  0  0
    8.9224   -0.1998   25.4238 H   0  0  0  0  0  0  0  0  0  0  0  0
   10.0649   -2.2343   21.8258 H   0  0  0  0  0  0  0  0  0  0  0  0
    4.3967    1.9772   17.4718 H   0  0  0  0  0  0  0  0  0  0  0  0
    3.0218    2.6486   19.3697 H   0  0  0  0  0  0  0  0  0  0  0  0
    3.6566    2.0043   21.7065 H   0  0  0  0  0  0  0  0  0  0  0  0
    5.7190    0.6877   22.0810 H   0  0  0  0  0  0  0  0  0  0  0  0
    7.9325   -6.4148   28.1641 H   0  0  0  0  0  0  0  0  0  0  0  0
    8.0254   -7.0920   26.5333 H   0  0  0  0  0  0  0  0  0  0  0  0
   10.3387   -6.1267   28.2923 H   0  0  0  0  0  0  0  0  0  0  0  0
    9.9904   -7.8023   27.8537 H   0  0  0  0  0  0  0  0  0  0  0  0
   11.7037   -6.0404   26.4771 H   0  0  0  0  0  0  0  0  0  0  0  0
   11.1411   -7.6068   25.8918 H   0  0  0  0  0  0  0  0  0  0  0  0
   10.7782   -5.5162   24.3756 H   0  0  0  0  0  0  0  0  0  0  0  0
    9.4042   -6.6189   24.5807 H   0  0  0  0  0  0  0  0  0  0  0  0
    9.5651    1.2527   24.6105 H   0  0  0  0  0  0  0  0  0  0  0  0
    9.6608    2.2581   23.1642 H   0  0  0  0  0  0  0  0  0  0  0  0
    8.2565   -1.5523   21.1108 H   0  0  0  0  0  0  0  0  0  0  0  0
  1  2  1  0  0  0  0
  1  3  2  0  0  0  0
  2  4  2  0  0  0  0
  3  5  1  0  0  0  0
  4 10  1  0  0  0  0
  5 10  2  0  0  0  0
  6  8  2  0  0  0  0
  6 11  1  0  0  0  0
  7  9  1  0  0  0  0
  7 11  2  0  0  0  0
  8 12  1  0  0  0  0
  9 12  2  0  0  0  0
 10 25  1  0  0  0  0
 11 29  1  0  0  0  0
 12 31  1  0  0  0  0
 13 15  1  0  0  0  0
 13 26  2  0  0  0  0
 13 28  1  0  0  0  0
 14 27  2  0  0  0  0
 14 28  1  0  0  0  0
 14 30  1  0  0  0  0
 15 16  2  0  0  0  0
 16 17  1  0  0  0  0
 17 18  2  0  0  0  0
 18 28  1  0  0  0  0
 19 21  1  0  0  0  0
 19 29  1  0  0  0  0
 19 32  2  0  0  0  0
 20 30  1  0  0  0  0
 20 31  1  0  0  0  0
 20 33  2  0  0  0  0
 21 22  1  0  0  0  0
 22 23  1  0  0  0  0
 23 24  1  0  0  0  0
 24 29  1  0  0  0  0
 25 31  1  0  0  0  0
 26 27  1  0  0  0  0
  1 34  1  0  0  0  0
  2 35  1  0  0  0  0
  3 36  1  0  0  0  0
  4 37  1  0  0  0  0
  5 38  1  0  0  0  0
  6 39  1  0  0  0  0
  7 40  1  0  0  0  0
  8 41  1  0  0  0  0
  9 42  1  0  0  0  0
 15 43  1  0  0  0  0
 16 44  1  0  0  0  0
 17 45  1  0  0  0  0
 18 46  1  0  0  0  0
 21 47  1  0  0  0  0
 21 48  1  0  0  0  0
 22 49  1  0  0  0  0
 22 50  1  0  0  0  0
 23 51  1  0  0  0  0
 23 52  1  0  0  0  0
 24 53  1  0  0  0  0
 24 54  1  0  0  0  0
 25 55  1  0  0  0  0
 25 56  1  0  0  0  0
 30 57  1  0  0  0  0
M  END
> <clash_score>
0.7790751876189459

> <docking_score>
-8.12751293182373

> <overlap_score>
1.0030076503753662

$$$$
BENZO_160_1
  -OEChem-08232013443D

 54 58  0     0  0  0  0  0  0999 V2000
    8.9960   -2.3380   25.5320 C   0  0  0  0  0  0  0  0  0  0  0  0
    9.6730   -3.4710   23.5300 C   0  0  0  0  0  0  0  0  0  0  0  0
    9.0720   -1.1280   24.8640 C   0  0  0  0  0  0  0  0  0  0  0  0
    9.7200   -2.2600   22.8630 C   0  0  0  0  0  0  0  0  0  0  0  0
   12.3626    1.3479   22.5531 C   0  0  0  0  0  0  0  0  0  0  0  0
   13.6932    1.2905   22.9051 C   0  0  0  0  0  0  0  0  0  0  0  0
   12.2130    1.1731   24.8660 C   0  0  0  0  0  0  0  0  0  0  0  0
   11.5051    1.2800   23.6890 C   0  0  0  0  0  0  0  0  0  0  0  0
    9.3070   -3.5340   24.8780 C   0  0  0  0  0  0  0  0  0  0  0  0
    9.3350   -1.0880   23.5010 C   0  0  0  0  0  0  0  0  0  0  0  0
    5.8300    0.9190   18.6970 C   0  0  0  0  0  0  0  0  0  0  0  0
    7.3170   -0.1610   19.8550 C   0  0  0  0  0  0  0  0  0  0  0  0
    4.6890    1.6810   18.4640 C   0  0  0  0  0  0  0  0  0  0  0  0
    3.9160    2.0630   19.5520 C   0  0  0  0  0  0  0  0  0  0  0  0
    4.2750    1.7050   20.8490 C   0  0  0  0  0  0  0  0  0  0  0  0
    5.4210    0.9600   21.0930 C   0  0  0  0  0  0  0  0  0  0  0  0
    8.3596   -5.0074   26.6308 C   0  0  0  0  0  0  0  0  0  0  0  0
    9.0420    0.3700   21.5280 C   0  0  0  0  0  0  0  0  0  0  0  0
    8.4579   -6.4047   27.2169 C   0  0  0  0  0  0  0  0  0  0  0  0
    8.4717   -7.4504   26.1159 C   0  0  0  0  0  0  0  0  0  0  0  0
    9.5645   -7.1893   25.0842 C   0  0  0  0  0  0  0  0  0  0  0  0
   10.2327   -5.8252   25.2501 C   0  0  0  0  0  0  0  0  0  0  0  0
   10.0063    1.3195   23.6101 C   0  0  0  0  0  0  0  0  0  0  0  0
    6.7580    0.3810   17.8350 N   0  0  0  0  0  0  0  0  0  0  0  0
    7.6390   -0.2680   18.5410 N   0  0  0  0  0  0  0  0  0  0  0  0
    6.1790    0.5730   19.9990 N   0  0  0  0  0  0  0  0  0  0  0  0
    9.2529   -4.7798   25.5645 N   0  0  0  0  0  0  0  0  0  0  0  0
    8.1890   -0.7180   20.8700 N   0  0  0  0  0  0  0  0  0  0  0  0
    9.4560    0.1560   22.8130 N   0  0  0  0  0  0  0  0  0  0  0  0
    7.5990   -4.1865   27.1424 O   0  0  0  0  0  0  0  0  0  0  0  0
    9.2690    1.4140   20.9380 O   0  0  0  0  0  0  0  0  0  0  0  0
   13.9044    1.1553   24.5990 S   0  0  0  0  0  0  0  0  0  0  0  0
    8.6895   -2.3529   26.5807 H   0  0  0  0  0  0  0  0  0  0  0  0
    9.9262   -4.3897   22.9916 H   0  0  0  0  0  0  0  0  0  0  0  0
    8.9224   -0.1998   25.4238 H   0  0  0  0  0  0  0  0  0  0  0  0
   10.0649   -2.2343   21.8258 H   0  0  0  0  0  0  0  0  0  0  0  0
   12.0249    1.4340   21.5280 H   0  0  0  0  0  0  0  0  0  0  0  0
   14.5513    1.3208   22.2486 H   0  0  0  0  0  0  0  0  0  0  0  0
   11.8219    1.1033   25.8716 H   0  0  0  0  0  0  0  0  0  0  0  0
    4.3967    1.9772   17.4718 H   0  0  0  0  0  0  0  0  0  0  0  0
    3.0218    2.6486   19.3697 H   0  0  0  0  0  0  0  0  0  0  0  0
    3.6566    2.0043   21.7065 H   0  0  0  0  0  0  0  0  0  0  0  0
    5.7190    0.6877   22.0810 H   0  0  0  0  0  0  0  0  0  0  0  0
    9.3706   -6.4745   27.7885 H   0  0  0  0  0  0  0  0  0  0  0  0
    7.6055   -6.5497   27.8636 H   0  0  0  0  0  0  0  0  0  0  0  0
    8.6095   -8.4604   26.5550 H   0  0  0  0  0  0  0  0  0  0  0  0
    7.4835   -7.4763   25.6142 H   0  0  0  0  0  0  0  0  0  0  0  0
   10.3359   -7.9850   25.1531 H   0  0  0  0  0  0  0  0  0  0  0  0
    9.1458   -7.2796   24.0582 H   0  0  0  0  0  0  0  0  0  0  0  0
   10.9408   -5.8640   26.0725 H   0  0  0  0  0  0  0  0  0  0  0  0
   10.7521   -5.5631   24.3347 H   0  0  0  0  0  0  0  0  0  0  0  0
    9.5651    1.2527   24.6105 H   0  0  0  0  0  0  0  0  0  0  0  0
    9.6608    2.2581   23.1642 H   0  0  0  0  0  0  0  0  0  0  0  0
    8.2565   -1.5523   21.1108 H   0  0  0  0  0  0  0  0  0  0  0  0
  1  3  2  0  0  0  0
  1  9  1  0  0  0  0
  2  4  1  0  0  0  0
  2  9  2  0  0  0  0
  3 10  1  0  0  0  0
  4 10  2  0  0  0  0
  5  6  2  0  0  0  0
  5  8  1  0  0  0  0
  6 32  1  0  0  0  0
  7  8  2  0  0  0  0
  7 32  1  0  0  0  0
  8 23  1  0  0  0  0
  9 27  1  0  0  0  0
 10 29  1  0  0  0  0
 11 13  1  0  0  0  0
 11 24  2  0  0  0  0
 11 26  1  0  0  0  0
 12 25  2  0  0  0  0
 12 26  1  0  0  0  0
 12 28  1  0  0  0  0
 13 14  2  0  0  0  0
 14 15  1  0  0  0  0
 15 16  2  0  0  0  0
 16 26  1  0  0  0  0
 17 19  1  0  0  0  0
 17 27  1  0  0  0  0
 17 30  2  0  0  0  0
 18 28  1  0  0  0  0
 18 29  1  0  0  0  0
 18 31  2  0  0  0  0
 19 20  1  0  0  0  0
 20 21  1  0  0  0  0
 21 22  1  0  0  0  0
 22 27  1  0  0  0  0
 23 29  1  0  0  0  0
 24 25  1  0  0  0  0
  1 33  1  0  0  0  0
  2 34  1  0  0  0  0
  3 35  1  0  0  0  0
  4 36  1  0  0  0  0
  5 37  1  0  0  0  0
  6 38  1  0  0  0  0
  7 39  1  0  0  0  0
 13 40  1  0  0  0  0
 14 41  1  0  0  0  0
 15 42  1  0  0  0  0
 16 43  1  0  0  0  0
 19 44  1  0  0  0  0
 19 45  1  0  0  0  0
 20 46  1  0  0  0  0
 20 47  1  0  0  0  0
 21 48  1  0  0  0  0
 21 49  1  0  0  0  0
 22 50  1  0  0  0  0
 22 51  1  0  0  0  0
 23 52  1  0  0  0  0
 23 53  1  0  0  0  0
 28 54  1  0  0  0  0
M  END
> <clash_score>
0.6354466317061015

> <docking_score>
-8.081364631652832

> <overlap_score>
0.9860453009605408

$$$$
BENZO_162_1
  -OEChem-08232013443D

 57 61  0     0  0  0  0  0  0999 V2000
   13.6586    2.1422   23.0138 C   0  0  0  0  0  0  0  0  0  0  0  0
   12.2662    2.1775   22.9401 C   0  0  0  0  0  0  0  0  0  0  0  0
    8.9960   -2.3380   25.5320 C   0  0  0  0  0  0  0  0  0  0  0  0
    9.6730   -3.4710   23.5300 C   0  0  0  0  0  0  0  0  0  0  0  0
    9.0720   -1.1280   24.8640 C   0  0  0  0  0  0  0  0  0  0  0  0
    9.7200   -2.2600   22.8630 C   0  0  0  0  0  0  0  0  0  0  0  0
   14.2900    1.2092   23.8363 C   0  0  0  0  0  0  0  0  0  0  0  0
   12.1365    0.3471   24.5116 C   0  0  0  0  0  0  0  0  0  0  0  0
   11.5051    1.2800   23.6890 C   0  0  0  0  0  0  0  0  0  0  0  0
    9.3070   -3.5340   24.8780 C   0  0  0  0  0  0  0  0  0  0  0  0
    9.3350   -1.0880   23.5010 C   0  0  0  0  0  0  0  0  0  0  0  0
   13.5290    0.3117   24.5853 C   0  0  0  0  0  0  0  0  0  0  0  0
    5.8300    0.9190   18.6970 C   0  0  0  0  0  0  0  0  0  0  0  0
    7.3170   -0.1610   19.8550 C   0  0  0  0  0  0  0  0  0  0  0  0
    4.6890    1.6810   18.4640 C   0  0  0  0  0  0  0  0  0  0  0  0
    3.9160    2.0630   19.5520 C   0  0  0  0  0  0  0  0  0  0  0  0
    4.2750    1.7050   20.8490 C   0  0  0  0  0  0  0  0  0  0  0  0
    5.4210    0.9600   21.0930 C   0  0  0  0  0  0  0  0  0  0  0  0
    8.3597   -5.0073   26.6307 C   0  0  0  0  0  0  0  0  0  0  0  0
    9.0420    0.3700   21.5280 C   0  0  0  0  0  0  0  0  0  0  0  0
    8.4720   -6.3981   27.2296 C   0  0  0  0  0  0  0  0  0  0  0  0
    9.9252   -6.7605   27.4803 C   0  0  0  0  0  0  0  0  0  0  0  0
   10.7833   -6.6094   26.2282 C   0  0  0  0  0  0  0  0  0  0  0  0
   10.0539   -5.9099   25.0823 C   0  0  0  0  0  0  0  0  0  0  0  0
   10.0063    1.3195   23.6101 C   0  0  0  0  0  0  0  0  0  0  0  0
    6.7580    0.3810   17.8350 N   0  0  0  0  0  0  0  0  0  0  0  0
    7.6390   -0.2680   18.5410 N   0  0  0  0  0  0  0  0  0  0  0  0
    6.1790    0.5730   19.9990 N   0  0  0  0  0  0  0  0  0  0  0  0
    9.2529   -4.7797   25.5644 N   0  0  0  0  0  0  0  0  0  0  0  0
    8.1890   -0.7180   20.8700 N   0  0  0  0  0  0  0  0  0  0  0  0
    9.4560    0.1560   22.8130 N   0  0  0  0  0  0  0  0  0  0  0  0
    7.4954   -4.2356   27.0449 O   0  0  0  0  0  0  0  0  0  0  0  0
    9.2690    1.4140   20.9380 O   0  0  0  0  0  0  0  0  0  0  0  0
   14.3085   -0.8384   25.6008 Cl  0  0  0  0  0  0  0  0  0  0  0  0
   14.2509    2.8413   22.4305 H   0  0  0  0  0  0  0  0  0  0  0  0
   11.7826    2.9079   22.2966 H   0  0  0  0  0  0  0  0  0  0  0  0
    8.6895   -2.3529   26.5807 H   0  0  0  0  0  0  0  0  0  0  0  0
    9.9262   -4.3897   22.9916 H   0  0  0  0  0  0  0  0  0  0  0  0
    8.9224   -0.1998   25.4238 H   0  0  0  0  0  0  0  0  0  0  0  0
   10.0649   -2.2343   21.8258 H   0  0  0  0  0  0  0  0  0  0  0  0
   15.3761    1.1934   23.8841 H   0  0  0  0  0  0  0  0  0  0  0  0
   11.5386   -0.3509   25.0931 H   0  0  0  0  0  0  0  0  0  0  0  0
    4.3967    1.9772   17.4718 H   0  0  0  0  0  0  0  0  0  0  0  0
    3.0218    2.6486   19.3697 H   0  0  0  0  0  0  0  0  0  0  0  0
    3.6566    2.0043   21.7065 H   0  0  0  0  0  0  0  0  0  0  0  0
    5.7190    0.6877   22.0810 H   0  0  0  0  0  0  0  0  0  0  0  0
    7.9325   -6.4148   28.1641 H   0  0  0  0  0  0  0  0  0  0  0  0
    8.0254   -7.0920   26.5333 H   0  0  0  0  0  0  0  0  0  0  0  0
   10.3387   -6.1267   28.2923 H   0  0  0  0  0  0  0  0  0  0  0  0
    9.9904   -7.8023   27.8537 H   0  0  0  0  0  0  0  0  0  0  0  0
   11.7037   -6.0404   26.4771 H   0  0  0  0  0  0  0  0  0  0  0  0
   11.1411   -7.6068   25.8918 H   0  0  0  0  0  0  0  0  0  0  0  0
   10.7782   -5.5162   24.3756 H   0  0  0  0  0  0  0  0  0  0  0  0
    9.4042   -6.6189   24.5807 H   0  0  0  0  0  0  0  0  0  0  0  0
    9.5651    1.2527   24.6105 H   0  0  0  0  0  0  0  0  0  0  0  0
    9.6608    2.2581   23.1642 H   0  0  0  0  0  0  0  0  0  0  0  0
    8.2565   -1.5523   21.1108 H   0  0  0  0  0  0  0  0  0  0  0  0
  1  2  2  0  0  0  0
  1  7  1  0  0  0  0
  2  9  1  0  0  0  0
  3  5  2  0  0  0  0
  3 10  1  0  0  0  0
  4  6  1  0  0  0  0
  4 10  2  0  0  0  0
  5 11  1  0  0  0  0
  6 11  2  0  0  0  0
  7 12  2  0  0  0  0
  8  9  2  0  0  0  0
  8 12  1  0  0  0  0
  9 25  1  0  0  0  0
 10 29  1  0  0  0  0
 11 31  1  0  0  0  0
 12 34  1  0  0  0  0
 13 15  1  0  0  0  0
 13 26  2  0  0  0  0
 13 28  1  0  0  0  0
 14 27  2  0  0  0  0
 14 28  1  0  0  0  0
 14 30  1  0  0  0  0
 15 16  2  0  0  0  0
 16 17  1  0  0  0  0
 17 18  2  0  0  0  0
 18 28  1  0  0  0  0
 19 21  1  0  0  0  0
 19 29  1  0  0  0  0
 19 32  2  0  0  0  0
 20 30  1  0  0  0  0
 20 31  1  0  0  0  0
 20 33  2  0  0  0  0
 21 22  1  0  0  0  0
 22 23  1  0  0  0  0
 23 24  1  0  0  0  0
 24 29  1  0  0  0  0
 25 31  1  0  0  0  0
 26 27  1  0  0  0  0
  1 35  1  0  0  0  0
  2 36  1  0  0  0  0
  3 37  1  0  0  0  0
  4 38  1  0  0  0  0
  5 39  1  0  0  0  0
  6 40  1  0  0  0  0
  7 41  1  0  0  0  0
  8 42  1  0  0  0  0
 15 43  1  0  0  0  0
 16 44  1  0  0  0  0
 17 45  1  0  0  0  0
 18 46  1  0  0  0  0
 21 47  1  0  0  0  0
 21 48  1  0  0  0  0
 22 49  1  0  0  0  0
 22 50  1  0  0  0  0
 23 51  1  0  0  0  0
 23 52  1  0  0  0  0
 24 53  1  0  0  0  0
 24 54  1  0  0  0  0
 25 55  1  0  0  0  0
 25 56  1  0  0  0  0
 30 57  1  0  0  0  0
M  END
> <clash_score>
1.4506021645831106

> <docking_score>
-6.961910724639893

> <overlap_score>
1.0076640844345093

$$$$
BENZO_163_1
  -OEChem-08232013443D

 57 61  0     0  0  0  0  0  0999 V2000
    8.9960   -2.3380   25.5320 C   0  0  0  0  0  0  0  0  0  0  0  0
    9.6730   -3.4710   23.5300 C   0  0  0  0  0  0  0  0  0  0  0  0
    9.0720   -1.1280   24.8640 C   0  0  0  0  0  0  0  0  0  0  0  0
    9.7200   -2.2600   22.8630 C   0  0  0  0  0  0  0  0  0  0  0  0
   12.3069    1.1739   24.8412 C   0  0  0  0  0  0  0  0  0  0  0  0
   12.4021    1.3368   22.6504 C   0  0  0  0  0  0  0  0  0  0  0  0
   11.5051    1.2800   23.6890 C   0  0  0  0  0  0  0  0  0  0  0  0
    9.3070   -3.5340   24.8780 C   0  0  0  0  0  0  0  0  0  0  0  0
    9.3350   -1.0880   23.5010 C   0  0  0  0  0  0  0  0  0  0  0  0
    5.8300    0.9190   18.6970 C   0  0  0  0  0  0  0  0  0  0  0  0
    7.3170   -0.1610   19.8550 C   0  0  0  0  0  0  0  0  0  0  0  0
    4.6890    1.6810   18.4640 C   0  0  0  0  0  0  0  0  0  0  0  0
    3.9160    2.0630   19.5520 C   0  0  0  0  0  0  0  0  0  0  0  0
    4.2750    1.7050   20.8490 C   0  0  0  0  0  0  0  0  0  0  0  0
    5.4210    0.9600   21.0930 C   0  0  0  0  0  0  0  0  0  0  0  0
    8.3597   -5.0073   26.6307 C   0  0  0  0  0  0  0  0  0  0  0  0
    9.0420    0.3700   21.5280 C   0  0  0  0  0  0  0  0  0  0  0  0
    8.4720   -6.3981   27.2296 C   0  0  0  0  0  0  0  0  0  0  0  0
    9.9252   -6.7605   27.4803 C   0  0  0  0  0  0  0  0  0  0  0  0
   10.7833   -6.6094   26.2282 C   0  0  0  0  0  0  0  0  0  0  0  0
   10.0539   -5.9099   25.0823 C   0  0  0  0  0  0  0  0  0  0  0  0
   14.9044    1.2854   22.5284 C   0  0  0  0  0  0  0  0  0  0  0  0
   10.0063    1.3195   23.6101 C   0  0  0  0  0  0  0  0  0  0  0  0
   13.6129    1.1635   24.5614 N   0  0  0  0  0  0  0  0  0  0  0  0
    6.7580    0.3810   17.8350 N   0  0  0  0  0  0  0  0  0  0  0  0
    7.6390   -0.2680   18.5410 N   0  0  0  0  0  0  0  0  0  0  0  0
   13.6386    1.2638   23.2214 N   0  0  0  0  0  0  0  0  0  0  0  0
    6.1790    0.5730   19.9990 N   0  0  0  0  0  0  0  0  0  0  0  0
    9.2529   -4.7797   25.5644 N   0  0  0  0  0  0  0  0  0  0  0  0
    8.1890   -0.7180   20.8700 N   0  0  0  0  0  0  0  0  0  0  0  0
    9.4560    0.1560   22.8130 N   0  0  0  0  0  0  0  0  0  0  0  0
    7.4954   -4.2356   27.0449 O   0  0  0  0  0  0  0  0  0  0  0  0
    9.2690    1.4140   20.9380 O   0  0  0  0  0  0  0  0  0  0  0  0
    8.6895   -2.3529   26.5807 H   0  0  0  0  0  0  0  0  0  0  0  0
    9.9262   -4.3897   22.9916 H   0  0  0  0  0  0  0  0  0  0  0  0
    8.9224   -0.1998   25.4238 H   0  0  0  0  0  0  0  0  0  0  0  0
   10.0649   -2.2343   21.8258 H   0  0  0  0  0  0  0  0  0  0  0  0
   11.9964    1.1027   25.8740 H   0  0  0  0  0  0  0  0  0  0  0  0
   12.2692    1.4196   21.5802 H   0  0  0  0  0  0  0  0  0  0  0  0
    4.3967    1.9772   17.4718 H   0  0  0  0  0  0  0  0  0  0  0  0
    3.0218    2.6486   19.3697 H   0  0  0  0  0  0  0  0  0  0  0  0
    3.6566    2.0043   21.7065 H   0  0  0  0  0  0  0  0  0  0  0  0
    5.7190    0.6877   22.0810 H   0  0  0  0  0  0  0  0  0  0  0  0
    7.9325   -6.4148   28.1641 H   0  0  0  0  0  0  0  0  0  0  0  0
    8.0254   -7.0920   26.5333 H   0  0  0  0  0  0  0  0  0  0  0  0
   10.3387   -6.1267   28.2923 H   0  0  0  0  0  0  0  0  0  0  0  0
    9.9904   -7.8023   27.8537 H   0  0  0  0  0  0  0  0  0  0  0  0
   11.7037   -6.0404   26.4771 H   0  0  0  0  0  0  0  0  0  0  0  0
   11.1411   -7.6068   25.8918 H   0  0  0  0  0  0  0  0  0  0  0  0
   10.7782   -5.5162   24.3756 H   0  0  0  0  0  0  0  0  0  0  0  0
    9.4042   -6.6189   24.5807 H   0  0  0  0  0  0  0  0  0  0  0  0
   15.2253    2.3271   22.4447 H   0  0  0  0  0  0  0  0  0  0  0  0
   15.6384    0.7034   23.0926 H   0  0  0  0  0  0  0  0  0  0  0  0
   14.7810    0.8414   21.5367 H   0  0  0  0  0  0  0  0  0  0  0  0
    9.5651    1.2527   24.6105 H   0  0  0  0  0  0  0  0  0  0  0  0
    9.6608    2.2581   23.1642 H   0  0  0  0  0  0  0  0  0  0  0  0
    8.2565   -1.5523   21.1108 H   0  0  0  0  0  0  0  0  0  0  0  0
  1  3  2  0  0  0  0
  1  8  1  0  0  0  0
  2  4  1  0  0  0  0
  2  8  2  0  0  0  0
  3  9  1  0  0  0  0
  4  9  2  0  0  0  0
  5  7  1  0  0  0  0
  5 24  2  0  0  0  0
  6  7  2  0  0  0  0
  6 27  1  0  0  0  0
  7 23  1  0  0  0  0
  8 29  1  0  0  0  0
  9 31  1  0  0  0  0
 10 12  1  0  0  0  0
 10 25  2  0  0  0  0
 10 28  1  0  0  0  0
 11 26  2  0  0  0  0
 11 28  1  0  0  0  0
 11 30  1  0  0  0  0
 12 13  2  0  0  0  0
 13 14  1  0  0  0  0
 14 15  2  0  0  0  0
 15 28  1  0  0  0  0
 16 18  1  0  0  0  0
 16 29  1  0  0  0  0
 16 32  2  0  0  0  0
 17 30  1  0  0  0  0
 17 31  1  0  0  0  0
 17 33  2  0  0  0  0
 18 19  1  0  0  0  0
 19 20  1  0  0  0  0
 20 21  1  0  0  0  0
 21 29  1  0  0  0  0
 22 27  1  0  0  0  0
 23 31  1  0  0  0  0
 24 27  1  0  0  0  0
 25 26  1  0  0  0  0
  1 34  1  0  0  0  0
  2 35  1  0  0  0  0
  3 36  1  0  0  0  0
  4 37  1  0  0  0  0
  5 38  1  0  0  0  0
  6 39  1  0  0  0  0
 12 40  1  0  0  0  0
 13 41  1  0  0  0  0
 14 42  1  0  0  0  0
 15 43  1  0  0  0  0
 18 44  1  0  0  0  0
 18 45  1  0  0  0  0
 19 46  1  0  0  0  0
 19 47  1  0  0  0  0
 20 48  1  0  0  0  0
 20 49  1  0  0  0  0
 21 50  1  0  0  0  0
 21 51  1  0  0  0  0
 22 52  1  0  0  0  0
 22 53  1  0  0  0  0
 22 54  1  0  0  0  0
 23 55  1  0  0  0  0
 23 56  1  0  0  0  0
 30 57  1  0  0  0  0
M  END
> <clash_score>
0.7790751876189459

> <docking_score>
-7.910994529724121

> <overlap_score>
0.9960875511169434

$$$$
BENZO_165_1
  -OEChem-08232013443D

 56 60  0     0  0  0  0  0  0999 V2000
   14.2935    1.3712   23.7866 C   0  0  0  0  0  0  0  0  0  0  0  0
   13.5637    0.6911   24.7615 C   0  0  0  0  0  0  0  0  0  0  0  0
   13.6297    2.0345   22.7545 C   0  0  0  0  0  0  0  0  0  0  0  0
   12.1701    0.6742   24.7044 C   0  0  0  0  0  0  0  0  0  0  0  0
   12.2361    2.0176   22.6974 C   0  0  0  0  0  0  0  0  0  0  0  0
    8.9960   -2.3380   25.5320 C   0  0  0  0  0  0  0  0  0  0  0  0
    9.6730   -3.4710   23.5300 C   0  0  0  0  0  0  0  0  0  0  0  0
    9.0720   -1.1280   24.8640 C   0  0  0  0  0  0  0  0  0  0  0  0
    9.7200   -2.2600   22.8630 C   0  0  0  0  0  0  0  0  0  0  0  0
   11.5063    1.3374   23.6723 C   0  0  0  0  0  0  0  0  0  0  0  0
    9.3070   -3.5340   24.8780 C   0  0  0  0  0  0  0  0  0  0  0  0
    9.3350   -1.0880   23.5010 C   0  0  0  0  0  0  0  0  0  0  0  0
    5.8300    0.9190   18.6970 C   0  0  0  0  0  0  0  0  0  0  0  0
    7.3170   -0.1610   19.8550 C   0  0  0  0  0  0  0  0  0  0  0  0
    4.6890    1.6810   18.4640 C   0  0  0  0  0  0  0  0  0  0  0  0
    3.9160    2.0630   19.5520 C   0  0  0  0  0  0  0  0  0  0  0  0
    4.2750    1.7050   20.8490 C   0  0  0  0  0  0  0  0  0  0  0  0
    5.4210    0.9600   21.0930 C   0  0  0  0  0  0  0  0  0  0  0  0
    9.0420    0.3700   21.5280 C   0  0  0  0  0  0  0  0  0  0  0  0
   10.0771   -5.0255   26.7193 C   0  0  0  0  0  0  0  0  0  0  0  0
    8.0927   -5.6195   25.4071 C   0  0  0  0  0  0  0  0  0  0  0  0
    9.1933   -4.9427   27.9592 C   0  0  0  0  0  0  0  0  0  0  0  0
    7.2756   -5.5290   26.6967 C   0  0  0  0  0  0  0  0  0  0  0  0
   10.0063    1.3195   23.6101 C   0  0  0  0  0  0  0  0  0  0  0  0
    6.7580    0.3810   17.8350 N   0  0  0  0  0  0  0  0  0  0  0  0
    7.6390   -0.2680   18.5410 N   0  0  0  0  0  0  0  0  0  0  0  0
    6.1790    0.5730   19.9990 N   0  0  0  0  0  0  0  0  0  0  0  0
    9.2563   -4.7368   25.5413 N   0  0  0  0  0  0  0  0  0  0  0  0
    8.1890   -0.7180   20.8700 N   0  0  0  0  0  0  0  0  0  0  0  0
    9.4560    0.1560   22.8130 N   0  0  0  0  0  0  0  0  0  0  0  0
    9.2690    1.4140   20.9380 O   0  0  0  0  0  0  0  0  0  0  0  0
    8.0883   -5.8459   27.8325 O   0  0  0  0  0  0  0  0  0  0  0  0
   15.3785    1.3853   23.8320 H   0  0  0  0  0  0  0  0  0  0  0  0
   14.0803    0.1755   25.5658 H   0  0  0  0  0  0  0  0  0  0  0  0
   14.1975    2.5650   21.9960 H   0  0  0  0  0  0  0  0  0  0  0  0
   11.6097    0.1415   25.4682 H   0  0  0  0  0  0  0  0  0  0  0  0
   11.7275    2.5370   21.8896 H   0  0  0  0  0  0  0  0  0  0  0  0
    8.6905   -2.3533   26.5810 H   0  0  0  0  0  0  0  0  0  0  0  0
    9.9266   -4.3896   22.9917 H   0  0  0  0  0  0  0  0  0  0  0  0
    8.9233   -0.1992   25.4232 H   0  0  0  0  0  0  0  0  0  0  0  0
   10.0650   -2.2330   21.8256 H   0  0  0  0  0  0  0  0  0  0  0  0
    4.3967    1.9772   17.4718 H   0  0  0  0  0  0  0  0  0  0  0  0
    3.0218    2.6486   19.3697 H   0  0  0  0  0  0  0  0  0  0  0  0
    3.6566    2.0043   21.7065 H   0  0  0  0  0  0  0  0  0  0  0  0
    5.7190    0.6877   22.0810 H   0  0  0  0  0  0  0  0  0  0  0  0
   10.8985   -4.3115   26.8085 H   0  0  0  0  0  0  0  0  0  0  0  0
   10.4915   -6.0334   26.6323 H   0  0  0  0  0  0  0  0  0  0  0  0
    8.4327   -6.6456   25.2620 H   0  0  0  0  0  0  0  0  0  0  0  0
    7.4725   -5.3241   24.5619 H   0  0  0  0  0  0  0  0  0  0  0  0
    9.7636   -5.2398   28.8419 H   0  0  0  0  0  0  0  0  0  0  0  0
    8.8236   -3.9268   28.1248 H   0  0  0  0  0  0  0  0  0  0  0  0
    6.8339   -4.5337   26.8232 H   0  0  0  0  0  0  0  0  0  0  0  0
    6.4550   -6.2521   26.6643 H   0  0  0  0  0  0  0  0  0  0  0  0
    9.5786    1.2746   24.6176 H   0  0  0  0  0  0  0  0  0  0  0  0
    9.6218    2.2274   23.1337 H   0  0  0  0  0  0  0  0  0  0  0  0
    8.2565   -1.5523   21.1108 H   0  0  0  0  0  0  0  0  0  0  0  0
  1  2  1  0  0  0  0
  1  3  2  0  0  0  0
  2  4  2  0  0  0  0
  3  5  1  0  0  0  0
  4 10  1  0  0  0  0
  5 10  2  0  0  0  0
  6  8  2  0  0  0  0
  6 11  1  0  0  0  0
  7  9  1  0  0  0  0
  7 11  2  0  0  0  0
  8 12  1  0  0  0  0
  9 12  2  0  0  0  0
 10 24  1  0  0  0  0
 11 28  1  0  0  0  0
 12 30  1  0  0  0  0
 13 15  1  0  0  0  0
 13 25  2  0  0  0  0
 13 27  1  0  0  0  0
 14 26  2  0  0  0  0
 14 27  1  0  0  0  0
 14 29  1  0  0  0  0
 15 16  2  0  0  0  0
 16 17  1  0  0  0  0
 17 18  2  0  0  0  0
 18 27  1  0  0  0  0
 19 29  1  0  0  0  0
 19 30  1  0  0  0  0
 19 31  2  0  0  0  0
 20 22  1  0  0  0  0
 20 28  1  0  0  0  0
 21 23  1  0  0  0  0
 21 28  1  0  0  0  0
 22 32  1  0  0  0  0
 23 32  1  0  0  0  0
 24 30  1  0  0  0  0
 25 26  1  0  0  0  0
  1 33  1  0  0  0  0
  2 34  1  0  0  0  0
  3 35  1  0  0  0  0
  4 36  1  0  0  0  0
  5 37  1  0  0  0  0
  6 38  1  0  0  0  0
  7 39  1  0  0  0  0
  8 40  1  0  0  0  0
  9 41  1  0  0  0  0
 15 42  1  0  0  0  0
 16 43  1  0  0  0  0
 17 44  1  0  0  0  0
 18 45  1  0  0  0  0
 20 46  1  0  0  0  0
 20 47  1  0  0  0  0
 21 48  1  0  0  0  0
 21 49  1  0  0  0  0
 22 50  1  0  0  0  0
 22 51  1  0  0  0  0
 23 52  1  0  0  0  0
 23 53  1  0  0  0  0
 24 54  1  0  0  0  0
 24 55  1  0  0  0  0
 29 56  1  0  0  0  0
M  END
> <clash_score>
0

> <docking_score>
-9.060389518737793

> <overlap_score>
0.992071270942688

$$$$
BENZO_164_1
  -OEChem-08232013443D

 53 57  0     0  0  0  0  0  0999 V2000
    8.9960   -2.3380   25.5320 C   0  0  0  0  0  0  0  0  0  0  0  0
    9.6730   -3.4710   23.5300 C   0  0  0  0  0  0  0  0  0  0  0  0
    9.0720   -1.1280   24.8640 C   0  0  0  0  0  0  0  0  0  0  0  0
    9.7200   -2.2600   22.8630 C   0  0  0  0  0  0  0  0  0  0  0  0
   12.2840    2.5287   23.7511 C   0  0  0  0  0  0  0  0  0  0  0  0
   13.6349    2.2627   23.7953 C   0  0  0  0  0  0  0  0  0  0  0  0
   12.2925    0.2062   23.6591 C   0  0  0  0  0  0  0  0  0  0  0  0
   11.5063    1.3374   23.6723 C   0  0  0  0  0  0  0  0  0  0  0  0
    9.3070   -3.5340   24.8780 C   0  0  0  0  0  0  0  0  0  0  0  0
    9.3350   -1.0880   23.5010 C   0  0  0  0  0  0  0  0  0  0  0  0
    5.8300    0.9190   18.6970 C   0  0  0  0  0  0  0  0  0  0  0  0
    7.3170   -0.1610   19.8550 C   0  0  0  0  0  0  0  0  0  0  0  0
    4.6890    1.6810   18.4640 C   0  0  0  0  0  0  0  0  0  0  0  0
    3.9160    2.0630   19.5520 C   0  0  0  0  0  0  0  0  0  0  0  0
    4.2750    1.7050   20.8490 C   0  0  0  0  0  0  0  0  0  0  0  0
    5.4210    0.9600   21.0930 C   0  0  0  0  0  0  0  0  0  0  0  0
    9.0420    0.3700   21.5280 C   0  0  0  0  0  0  0  0  0  0  0  0
   10.0771   -5.0255   26.7193 C   0  0  0  0  0  0  0  0  0  0  0  0
    8.0927   -5.6195   25.4071 C   0  0  0  0  0  0  0  0  0  0  0  0
    9.1933   -4.9427   27.9592 C   0  0  0  0  0  0  0  0  0  0  0  0
    7.2756   -5.5290   26.6967 C   0  0  0  0  0  0  0  0  0  0  0  0
   10.0063    1.3195   23.6101 C   0  0  0  0  0  0  0  0  0  0  0  0
    6.7580    0.3810   17.8350 N   0  0  0  0  0  0  0  0  0  0  0  0
    7.6390   -0.2680   18.5410 N   0  0  0  0  0  0  0  0  0  0  0  0
    6.1790    0.5730   19.9990 N   0  0  0  0  0  0  0  0  0  0  0  0
    9.2563   -4.7368   25.5413 N   0  0  0  0  0  0  0  0  0  0  0  0
    8.1890   -0.7180   20.8700 N   0  0  0  0  0  0  0  0  0  0  0  0
    9.4560    0.1560   22.8130 N   0  0  0  0  0  0  0  0  0  0  0  0
    9.2690    1.4140   20.9380 O   0  0  0  0  0  0  0  0  0  0  0  0
    8.0883   -5.8459   27.8325 O   0  0  0  0  0  0  0  0  0  0  0  0
   13.9610    0.5825   23.7418 S   0  0  0  0  0  0  0  0  0  0  0  0
    8.6905   -2.3533   26.5810 H   0  0  0  0  0  0  0  0  0  0  0  0
    9.9266   -4.3896   22.9917 H   0  0  0  0  0  0  0  0  0  0  0  0
    8.9233   -0.1992   25.4232 H   0  0  0  0  0  0  0  0  0  0  0  0
   10.0650   -2.2330   21.8256 H   0  0  0  0  0  0  0  0  0  0  0  0
   11.8774    3.5319   23.7739 H   0  0  0  0  0  0  0  0  0  0  0  0
   14.4460    2.9746   23.8558 H   0  0  0  0  0  0  0  0  0  0  0  0
   11.9711   -0.8246   23.6038 H   0  0  0  0  0  0  0  0  0  0  0  0
    4.3967    1.9772   17.4718 H   0  0  0  0  0  0  0  0  0  0  0  0
    3.0218    2.6486   19.3697 H   0  0  0  0  0  0  0  0  0  0  0  0
    3.6566    2.0043   21.7065 H   0  0  0  0  0  0  0  0  0  0  0  0
    5.7190    0.6877   22.0810 H   0  0  0  0  0  0  0  0  0  0  0  0
   10.8985   -4.3115   26.8085 H   0  0  0  0  0  0  0  0  0  0  0  0
   10.4915   -6.0334   26.6323 H   0  0  0  0  0  0  0  0  0  0  0  0
    8.4327   -6.6456   25.2620 H   0  0  0  0  0  0  0  0  0  0  0  0
    7.4725   -5.3241   24.5619 H   0  0  0  0  0  0  0  0  0  0  0  0
    9.7636   -5.2398   28.8419 H   0  0  0  0  0  0  0  0  0  0  0  0
    8.8236   -3.9268   28.1248 H   0  0  0  0  0  0  0  0  0  0  0  0
    6.8339   -4.5337   26.8232 H   0  0  0  0  0  0  0  0  0  0  0  0
    6.4550   -6.2521   26.6643 H   0  0  0  0  0  0  0  0  0  0  0  0
    9.5786    1.2746   24.6176 H   0  0  0  0  0  0  0  0  0  0  0  0
    9.6218    2.2274   23.1337 H   0  0  0  0  0  0  0  0  0  0  0  0
    8.2565   -1.5523   21.1108 H   0  0  0  0  0  0  0  0  0  0  0  0
  1  3  2  0  0  0  0
  1  9  1  0  0  0  0
  2  4  1  0  0  0  0
  2  9  2  0  0  0  0
  3 10  1  0  0  0  0
  4 10  2  0  0  0  0
  5  6  2  0  0  0  0
  5  8  1  0  0  0  0
  6 31  1  0  0  0  0
  7  8  2  0  0  0  0
  7 31  1  0  0  0  0
  8 22  1  0  0  0  0
  9 26  1  0  0  0  0
 10 28  1  0  0  0  0
 11 13  1  0  0  0  0
 11 23  2  0  0  0  0
 11 25  1  0  0  0  0
 12 24  2  0  0  0  0
 12 25  1  0  0  0  0
 12 27  1  0  0  0  0
 13 14  2  0  0  0  0
 14 15  1  0  0  0  0
 15 16  2  0  0  0  0
 16 25  1  0  0  0  0
 17 27  1  0  0  0  0
 17 28  1  0  0  0  0
 17 29  2  0  0  0  0
 18 20  1  0  0  0  0
 18 26  1  0  0  0  0
 19 21  1  0  0  0  0
 19 26  1  0  0  0  0
 20 30  1  0  0  0  0
 21 30  1  0  0  0  0
 22 28  1  0  0  0  0
 23 24  1  0  0  0  0
  1 32  1  0  0  0  0
  2 33  1  0  0  0  0
  3 34  1  0  0  0  0
  4 35  1  0  0  0  0
  5 36  1  0  0  0  0
  6 37  1  0  0  0  0
  7 38  1  0  0  0  0
 13 39  1  0  0  0  0
 14 40  1  0  0  0  0
 15 41  1  0  0  0  0
 16 42  1  0  0  0  0
 18 43  1  0  0  0  0
 18 44  1  0  0  0  0
 19 45  1  0  0  0  0
 19 46  1  0  0  0  0
 20 47  1  0  0  0  0
 20 48  1  0  0  0  0
 21 49  1  0  0  0  0
 21 50  1  0  0  0  0
 22 51  1  0  0  0  0
 22 52  1  0  0  0  0
 27 53  1  0  0  0  0
M  END
> <clash_score>
0

> <docking_score>
-8.305768013000488

> <overlap_score>
0.9806849360466003

$$$$
BENZO_166_1
  -OEChem-08232013443D

 56 60  0     0  0  0  0  0  0999 V2000
   13.5726    0.4739   24.5786 C   0  0  0  0  0  0  0  0  0  0  0  0
   12.1790    0.4585   24.5212 C   0  0  0  0  0  0  0  0  0  0  0  0
    8.9960   -2.3380   25.5320 C   0  0  0  0  0  0  0  0  0  0  0  0
    9.6730   -3.4710   23.5300 C   0  0  0  0  0  0  0  0  0  0  0  0
    9.0720   -1.1280   24.8640 C   0  0  0  0  0  0  0  0  0  0  0  0
    9.7200   -2.2600   22.8630 C   0  0  0  0  0  0  0  0  0  0  0  0
   14.2935    1.3683   23.7873 C   0  0  0  0  0  0  0  0  0  0  0  0
   12.2271    2.2318   22.8810 C   0  0  0  0  0  0  0  0  0  0  0  0
   11.5063    1.3374   23.6723 C   0  0  0  0  0  0  0  0  0  0  0  0
    9.3070   -3.5340   24.8780 C   0  0  0  0  0  0  0  0  0  0  0  0
    9.3350   -1.0880   23.5010 C   0  0  0  0  0  0  0  0  0  0  0  0
   13.6207    2.2472   22.9385 C   0  0  0  0  0  0  0  0  0  0  0  0
    5.8300    0.9190   18.6970 C   0  0  0  0  0  0  0  0  0  0  0  0
    7.3170   -0.1610   19.8550 C   0  0  0  0  0  0  0  0  0  0  0  0
    4.6890    1.6810   18.4640 C   0  0  0  0  0  0  0  0  0  0  0  0
    3.9160    2.0630   19.5520 C   0  0  0  0  0  0  0  0  0  0  0  0
    4.2750    1.7050   20.8490 C   0  0  0  0  0  0  0  0  0  0  0  0
    5.4210    0.9600   21.0930 C   0  0  0  0  0  0  0  0  0  0  0  0
    9.0420    0.3700   21.5280 C   0  0  0  0  0  0  0  0  0  0  0  0
   10.0771   -5.0255   26.7193 C   0  0  0  0  0  0  0  0  0  0  0  0
    8.0927   -5.6195   25.4071 C   0  0  0  0  0  0  0  0  0  0  0  0
    9.1933   -4.9427   27.9592 C   0  0  0  0  0  0  0  0  0  0  0  0
    7.2756   -5.5290   26.6967 C   0  0  0  0  0  0  0  0  0  0  0  0
   10.0063    1.3195   23.6101 C   0  0  0  0  0  0  0  0  0  0  0  0
    6.7580    0.3810   17.8350 N   0  0  0  0  0  0  0  0  0  0  0  0
    7.6390   -0.2680   18.5410 N   0  0  0  0  0  0  0  0  0  0  0  0
    6.1790    0.5730   19.9990 N   0  0  0  0  0  0  0  0  0  0  0  0
    9.2563   -4.7368   25.5413 N   0  0  0  0  0  0  0  0  0  0  0  0
    8.1890   -0.7180   20.8700 N   0  0  0  0  0  0  0  0  0  0  0  0
    9.4560    0.1560   22.8130 N   0  0  0  0  0  0  0  0  0  0  0  0
    9.2690    1.4140   20.9380 O   0  0  0  0  0  0  0  0  0  0  0  0
    8.0883   -5.8459   27.8325 O   0  0  0  0  0  0  0  0  0  0  0  0
   14.5107    3.3497   21.9616 Cl  0  0  0  0  0  0  0  0  0  0  0  0
   14.0961   -0.2108   25.2397 H   0  0  0  0  0  0  0  0  0  0  0  0
   11.6255   -0.2418   25.1412 H   0  0  0  0  0  0  0  0  0  0  0  0
    8.6905   -2.3533   26.5810 H   0  0  0  0  0  0  0  0  0  0  0  0
    9.9266   -4.3896   22.9917 H   0  0  0  0  0  0  0  0  0  0  0  0
    8.9233   -0.1992   25.4232 H   0  0  0  0  0  0  0  0  0  0  0  0
   10.0650   -2.2330   21.8256 H   0  0  0  0  0  0  0  0  0  0  0  0
   15.3793    1.3689   23.8423 H   0  0  0  0  0  0  0  0  0  0  0  0
   11.6979    2.9154   22.2211 H   0  0  0  0  0  0  0  0  0  0  0  0
    4.3967    1.9772   17.4718 H   0  0  0  0  0  0  0  0  0  0  0  0
    3.0218    2.6486   19.3697 H   0  0  0  0  0  0  0  0  0  0  0  0
    3.6566    2.0043   21.7065 H   0  0  0  0  0  0  0  0  0  0  0  0
    5.7190    0.6877   22.0810 H   0  0  0  0  0  0  0  0  0  0  0  0
   10.8985   -4.3115   26.8085 H   0  0  0  0  0  0  0  0  0  0  0  0
   10.4915   -6.0334   26.6323 H   0  0  0  0  0  0  0  0  0  0  0  0
    8.4327   -6.6456   25.2620 H   0  0  0  0  0  0  0  0  0  0  0  0
    7.4725   -5.3241   24.5619 H   0  0  0  0  0  0  0  0  0  0  0  0
    9.7636   -5.2398   28.8419 H   0  0  0  0  0  0  0  0  0  0  0  0
    8.8236   -3.9268   28.1248 H   0  0  0  0  0  0  0  0  0  0  0  0
    6.8339   -4.5337   26.8232 H   0  0  0  0  0  0  0  0  0  0  0  0
    6.4550   -6.2521   26.6643 H   0  0  0  0  0  0  0  0  0  0  0  0
    9.5786    1.2746   24.6176 H   0  0  0  0  0  0  0  0  0  0  0  0
    9.6218    2.2274   23.1337 H   0  0  0  0  0  0  0  0  0  0  0  0
    8.2565   -1.5523   21.1108 H   0  0  0  0  0  0  0  0  0  0  0  0
  1  2  2  0  0  0  0
  1  7  1  0  0  0  0
  2  9  1  0  0  0  0
  3  5  2  0  0  0  0
  3 10  1  0  0  0  0
  4  6  1  0  0  0  0
  4 10  2  0  0  0  0
  5 11  1  0  0  0  0
  6 11  2  0  0  0  0
  7 12  2  0  0  0  0
  8  9  2  0  0  0  0
  8 12  1  0  0  0  0
  9 24  1  0  0  0  0
 10 28  1  0  0  0  0
 11 30  1  0  0  0  0
 12 33  1  0  0  0  0
 13 15  1  0  0  0  0
 13 25  2  0  0  0  0
 13 27  1  0  0  0  0
 14 26  2  0  0  0  0
 14 27  1  0  0  0  0
 14 29  1  0  0  0  0
 15 16  2  0  0  0  0
 16 17  1  0  0  0  0
 17 18  2  0  0  0  0
 18 27  1  0  0  0  0
 19 29  1  0  0  0  0
 19 30  1  0  0  0  0
 19 31  2  0  0  0  0
 20 22  1  0  0  0  0
 20 28  1  0  0  0  0
 21 23  1  0  0  0  0
 21 28  1  0  0  0  0
 22 32  1  0  0  0  0
 23 32  1  0  0  0  0
 24 30  1  0  0  0  0
 25 26  1  0  0  0  0
  1 34  1  0  0  0  0
  2 35  1  0  0  0  0
  3 36  1  0  0  0  0
  4 37  1  0  0  0  0
  5 38  1  0  0  0  0
  6 39  1  0  0  0  0
  7 40  1  0  0  0  0
  8 41  1  0  0  0  0
 15 42  1  0  0  0  0
 16 43  1  0  0  0  0
 17 44  1  0  0  0  0
 18 45  1  0  0  0  0
 20 46  1  0  0  0  0
 20 47  1  0  0  0  0
 21 48  1  0  0  0  0
 21 49  1  0  0  0  0
 22 50  1  0  0  0  0
 22 51  1  0  0  0  0
 23 52  1  0  0  0  0
 23 53  1  0  0  0  0
 24 54  1  0  0  0  0
 24 55  1  0  0  0  0
 29 56  1  0  0  0  0
M  END
> <clash_score>
0

> <docking_score>
-7.989261627197266

> <overlap_score>
1.0027565956115723

$$$$
BENZO_167_1
  -OEChem-08232013443D

 56 60  0     0  0  0  0  0  0999 V2000
    8.9960   -2.3380   25.5320 C   0  0  0  0  0  0  0  0  0  0  0  0
    9.6730   -3.4710   23.5300 C   0  0  0  0  0  0  0  0  0  0  0  0
    9.0720   -1.1280   24.8640 C   0  0  0  0  0  0  0  0  0  0  0  0
    9.7200   -2.2600   22.8630 C   0  0  0  0  0  0  0  0  0  0  0  0
   12.3908    2.1640   22.9538 C   0  0  0  0  0  0  0  0  0  0  0  0
   12.3238    0.5511   24.4468 C   0  0  0  0  0  0  0  0  0  0  0  0
   11.5063    1.3374   23.6723 C   0  0  0  0  0  0  0  0  0  0  0  0
    9.3070   -3.5340   24.8780 C   0  0  0  0  0  0  0  0  0  0  0  0
    9.3350   -1.0880   23.5010 C   0  0  0  0  0  0  0  0  0  0  0  0
    5.8300    0.9190   18.6970 C   0  0  0  0  0  0  0  0  0  0  0  0
    7.3170   -0.1610   19.8550 C   0  0  0  0  0  0  0  0  0  0  0  0
    4.6890    1.6810   18.4640 C   0  0  0  0  0  0  0  0  0  0  0  0
    3.9160    2.0630   19.5520 C   0  0  0  0  0  0  0  0  0  0  0  0
    4.2750    1.7050   20.8490 C   0  0  0  0  0  0  0  0  0  0  0  0
    5.4210    0.9600   21.0930 C   0  0  0  0  0  0  0  0  0  0  0  0
    9.0420    0.3700   21.5280 C   0  0  0  0  0  0  0  0  0  0  0  0
   10.0771   -5.0255   26.7193 C   0  0  0  0  0  0  0  0  0  0  0  0
    8.0927   -5.6195   25.4071 C   0  0  0  0  0  0  0  0  0  0  0  0
    9.1933   -4.9427   27.9592 C   0  0  0  0  0  0  0  0  0  0  0  0
    7.2756   -5.5290   26.6967 C   0  0  0  0  0  0  0  0  0  0  0  0
   14.8092    0.3979   24.7260 C   0  0  0  0  0  0  0  0  0  0  0  0
   10.0063    1.3195   23.6101 C   0  0  0  0  0  0  0  0  0  0  0  0
   13.6720    1.9251   23.2460 N   0  0  0  0  0  0  0  0  0  0  0  0
    6.7580    0.3810   17.8350 N   0  0  0  0  0  0  0  0  0  0  0  0
    7.6390   -0.2680   18.5410 N   0  0  0  0  0  0  0  0  0  0  0  0
   13.5986    0.9395   24.1567 N   0  0  0  0  0  0  0  0  0  0  0  0
    6.1790    0.5730   19.9990 N   0  0  0  0  0  0  0  0  0  0  0  0
    9.2563   -4.7368   25.5413 N   0  0  0  0  0  0  0  0  0  0  0  0
    8.1890   -0.7180   20.8700 N   0  0  0  0  0  0  0  0  0  0  0  0
    9.4560    0.1560   22.8130 N   0  0  0  0  0  0  0  0  0  0  0  0
    9.2690    1.4140   20.9380 O   0  0  0  0  0  0  0  0  0  0  0  0
    8.0883   -5.8459   27.8325 O   0  0  0  0  0  0  0  0  0  0  0  0
    8.6905   -2.3533   26.5810 H   0  0  0  0  0  0  0  0  0  0  0  0
    9.9266   -4.3896   22.9917 H   0  0  0  0  0  0  0  0  0  0  0  0
    8.9233   -0.1992   25.4232 H   0  0  0  0  0  0  0  0  0  0  0  0
   10.0650   -2.2330   21.8256 H   0  0  0  0  0  0  0  0  0  0  0  0
   12.1576    2.9318   22.2297 H   0  0  0  0  0  0  0  0  0  0  0  0
   12.1121   -0.2315   25.1628 H   0  0  0  0  0  0  0  0  0  0  0  0
    4.3967    1.9772   17.4718 H   0  0  0  0  0  0  0  0  0  0  0  0
    3.0218    2.6486   19.3697 H   0  0  0  0  0  0  0  0  0  0  0  0
    3.6566    2.0043   21.7065 H   0  0  0  0  0  0  0  0  0  0  0  0
    5.7190    0.6877   22.0810 H   0  0  0  0  0  0  0  0  0  0  0  0
   10.8985   -4.3115   26.8085 H   0  0  0  0  0  0  0  0  0  0  0  0
   10.4915   -6.0334   26.6323 H   0  0  0  0  0  0  0  0  0  0  0  0
    8.4327   -6.6456   25.2620 H   0  0  0  0  0  0  0  0  0  0  0  0
    7.4725   -5.3241   24.5619 H   0  0  0  0  0  0  0  0  0  0  0  0
    9.7636   -5.2398   28.8419 H   0  0  0  0  0  0  0  0  0  0  0  0
    8.8236   -3.9268   28.1248 H   0  0  0  0  0  0  0  0  0  0  0  0
    6.8339   -4.5337   26.8232 H   0  0  0  0  0  0  0  0  0  0  0  0
    6.4550   -6.2521   26.6643 H   0  0  0  0  0  0  0  0  0  0  0  0
   15.1341   -0.4353   24.0973 H   0  0  0  0  0  0  0  0  0  0  0  0
   15.5770    1.1759   24.7564 H   0  0  0  0  0  0  0  0  0  0  0  0
   14.6073    0.0539   25.7442 H   0  0  0  0  0  0  0  0  0  0  0  0
    9.5786    1.2746   24.6176 H   0  0  0  0  0  0  0  0  0  0  0  0
    9.6218    2.2274   23.1337 H   0  0  0  0  0  0  0  0  0  0  0  0
    8.2565   -1.5523   21.1108 H   0  0  0  0  0  0  0  0  0  0  0  0
  1  3  2  0  0  0  0
  1  8  1  0  0  0  0
  2  4  1  0  0  0  0
  2  8  2  0  0  0  0
  3  9  1  0  0  0  0
  4  9  2  0  0  0  0
  5  7  1  0  0  0  0
  5 23  2  0  0  0  0
  6  7  2  0  0  0  0
  6 26  1  0  0  0  0
  7 22  1  0  0  0  0
  8 28  1  0  0  0  0
  9 30  1  0  0  0  0
 10 12  1  0  0  0  0
 10 24  2  0  0  0  0
 10 27  1  0  0  0  0
 11 25  2  0  0  0  0
 11 27  1  0  0  0  0
 11 29  1  0  0  0  0
 12 13  2  0  0  0  0
 13 14  1  0  0  0  0
 14 15  2  0  0  0  0
 15 27  1  0  0  0  0
 16 29  1  0  0  0  0
 16 30  1  0  0  0  0
 16 31  2  0  0  0  0
 17 19  1  0  0  0  0
 17 28  1  0  0  0  0
 18 20  1  0  0  0  0
 18 28  1  0  0  0  0
 19 32  1  0  0  0  0
 20 32  1  0  0  0  0
 21 26  1  0  0  0  0
 22 30  1  0  0  0  0
 23 26  1  0  0  0  0
 24 25  1  0  0  0  0
  1 33  1  0  0  0  0
  2 34  1  0  0  0  0
  3 35  1  0  0  0  0
  4 36  1  0  0  0  0
  5 37  1  0  0  0  0
  6 38  1  0  0  0  0
 12 39  1  0  0  0  0
 13 40  1  0  0  0  0
 14 41  1  0  0  0  0
 15 42  1  0  0  0  0
 17 43  1  0  0  0  0
 17 44  1  0  0  0  0
 18 45  1  0  0  0  0
 18 46  1  0  0  0  0
 19 47  1  0  0  0  0
 19 48  1  0  0  0  0
 20 49  1  0  0  0  0
 20 50  1  0  0  0  0
 21 51  1  0  0  0  0
 21 52  1  0  0  0  0
 21 53  1  0  0  0  0
 22 54  1  0  0  0  0
 22 55  1  0  0  0  0
 29 56  1  0  0  0  0
M  END
> <clash_score>
0

> <docking_score>
-8.855340957641602

> <overlap_score>
0.9925914406776428

$$$$
BENZO_168_1
  -OEChem-08232013443D

 49 52  0     1  0  0  0  0  0999 V2000
    3.9160    2.0630   19.5520 C   0  0  0  0  0  0  0  0  0  0  0  0
    4.2750    1.7050   20.8490 C   0  0  0  0  0  0  0  0  0  0  0  0
    9.0720   -1.1280   24.8640 C   0  0  0  0  0  0  0  0  0  0  0  0
    9.7200   -2.2600   22.8630 C   0  0  0  0  0  0  0  0  0  0  0  0
    4.6890    1.6810   18.4640 C   0  0  0  0  0  0  0  0  0  0  0  0
    5.4210    0.9600   21.0930 C   0  0  0  0  0  0  0  0  0  0  0  0
    8.9960   -2.3380   25.5320 C   0  0  0  0  0  0  0  0  0  0  0  0
    9.6730   -3.4710   23.5300 C   0  0  0  0  0  0  0  0  0  0  0  0
   12.0646    2.8761   22.0718 C   0  0  0  0  0  0  0  0  0  0  0  0
   12.0506    4.2394   22.2689 C   0  0  0  0  0  0  0  0  0  0  0  0
   10.5394    3.0670   23.8153 C   0  0  0  0  0  0  0  0  0  0  0  0
    9.3350   -1.0880   23.5010 C   0  0  0  0  0  0  0  0  0  0  0  0
   11.1891    2.1969   22.9675 C   0  0  0  0  0  0  0  0  0  0  0  0
    5.8300    0.9190   18.6970 C   0  0  0  0  0  0  0  0  0  0  0  0
    6.1790    0.5730   19.9990 C   0  0  0  0  0  0  0  0  0  0  0  0
    9.3070   -3.5340   24.8780 C   0  0  0  0  0  0  0  0  0  0  0  0
    9.0420    0.3700   21.5280 C   0  0  0  0  0  0  0  0  0  0  0  0
    8.0148   -5.2164   26.1419 C   0  0  0  0  0  0  0  0  0  0  0  0
   10.4390   -5.5857   25.6570 C   0  0  0  0  0  0  0  0  0  0  0  0
   10.9980    0.6985   22.9845 C   0  0  0  0  0  0  0  0  0  0  0  0
    9.4560    0.1560   22.8130 C   0  0  1  0  0  0  0  0  0  0  0  0
    6.7580    0.3810   17.8350 N   0  0  0  0  0  0  0  0  0  0  0  0
    7.6390   -0.2680   18.5410 N   0  0  0  0  0  0  0  0  0  0  0  0
    7.3170   -0.1610   19.8550 N   0  0  0  0  0  0  0  0  0  0  0  0
    8.1890   -0.7180   20.8700 N   0  0  0  0  0  0  0  0  0  0  0  0
    9.2556   -4.7554   25.5514 N   0  0  0  0  0  0  0  0  0  0  0  0
    9.2690    1.4140   20.9380 O   0  0  0  0  0  0  0  0  0  0  0  0
   10.9853    4.6955   23.5296 S   0  0  0  0  0  0  0  0  0  0  0  0
    3.0136    2.6526   19.3908 H   0  0  0  0  0  0  0  0  0  0  0  0
    3.6480    2.0140   21.6821 H   0  0  0  0  0  0  0  0  0  0  0  0
    8.9214   -0.1986   25.4206 H   0  0  0  0  0  0  0  0  0  0  0  0
   10.0622   -2.2326   21.8251 H   0  0  0  0  0  0  0  0  0  0  0  0
    4.4042    1.9741   17.4524 H   0  0  0  0  0  0  0  0  0  0  0  0
    5.7089    0.6919   22.1150 H   0  0  0  0  0  0  0  0  0  0  0  0
    8.6882   -2.3542   26.5803 H   0  0  0  0  0  0  0  0  0  0  0  0
    9.9258   -4.3896   22.9914 H   0  0  0  0  0  0  0  0  0  0  0  0
   12.6757    2.3931   21.3198 H   0  0  0  0  0  0  0  0  0  0  0  0
   12.6155    4.9893   21.7334 H   0  0  0  0  0  0  0  0  0  0  0  0
    9.8247    2.8285   24.5908 H   0  0  0  0  0  0  0  0  0  0  0  0
    8.1775   -6.1919   26.6236 H   0  0  0  0  0  0  0  0  0  0  0  0
    7.6740   -4.4889   26.8933 H   0  0  0  0  0  0  0  0  0  0  0  0
    7.2508   -5.3181   25.3570 H   0  0  0  0  0  0  0  0  0  0  0  0
   10.1974   -6.4996   26.2196 H   0  0  0  0  0  0  0  0  0  0  0  0
   10.7877   -5.8568   24.6496 H   0  0  0  0  0  0  0  0  0  0  0  0
   11.2305   -5.0307   26.1819 H   0  0  0  0  0  0  0  0  0  0  0  0
   11.6403    0.2667   22.2043 H   0  0  0  0  0  0  0  0  0  0  0  0
   11.3821    0.2882   23.9279 H   0  0  0  0  0  0  0  0  0  0  0  0
    8.9221    0.9705   23.4866 H   0  0  0  0  0  0  0  0  0  0  0  0
    8.2712   -1.5583   21.1209 H   0  0  0  0  0  0  0  0  0  0  0  0
  1  2  1  0  0  0  0
  1  5  2  0  0  0  0
  2  6  2  0  0  0  0
  3  7  2  0  0  0  0
  3 12  1  0  0  0  0
  4  8  1  0  0  0  0
  4 12  2  0  0  0  0
  5 14  1  0  0  0  0
  6 15  1  0  0  0  0
  7 16  1  0  0  0  0
  8 16  2  0  0  0  0
  9 10  2  0  0  0  0
  9 13  1  0  0  0  0
 10 28  1  0  0  0  0
 11 13  2  0  0  0  0
 11 28  1  0  0  0  0
 12 21  1  0  0  0  0
 13 20  1  0  0  0  0
 14 15  2  0  0  0  0
 14 22  1  0  0  0  0
 15 24  1  0  0  0  0
 16 26  1  0  0  0  0
 17 21  1  0  0  0  0
 17 25  1  0  0  0  0
 17 27  2  0  0  0  0
 18 26  1  0  0  0  0
 19 26  1  0  0  0  0
 20 21  1  1  0  0  0
 22 23  2  0  0  0  0
 23 24  1  0  0  0  0
 24 25  1  0  0  0  0
  1 29  1  0  0  0  0
  2 30  1  0  0  0  0
  3 31  1  0  0  0  0
  4 32  1  0  0  0  0
  5 33  1  0  0  0  0
  6 34  1  0  0  0  0
  7 35  1  0  0  0  0
  8 36  1  0  0  0  0
  9 37  1  0  0  0  0
 10 38  1  0  0  0  0
 11 39  1  0  0  0  0
 18 40  1  0  0  0  0
 18 41  1  0  0  0  0
 18 42  1  0  0  0  0
 19 43  1  0  0  0  0
 19 44  1  0  0  0  0
 19 45  1  0  0  0  0
 20 46  1  0  0  0  0
 20 47  1  0  0  0  0
 21 48  1  0  0  0  0
 25 49  1  0  0  0  0
M  END
> <clash_score>
0

> <docking_score>
-9.970281600952148

> <overlap_score>
0.9151829481124878

$$$$
BENZO_168_2
  -OEChem-08232013443D

 49 52  0     1  0  0  0  0  0999 V2000
    3.9160    2.0630   19.5520 C   0  0  0  0  0  0  0  0  0  0  0  0
    4.2750    1.7050   20.8490 C   0  0  0  0  0  0  0  0  0  0  0  0
    9.0720   -1.1280   24.8640 C   0  0  0  0  0  0  0  0  0  0  0  0
    9.7200   -2.2600   22.8630 C   0  0  0  0  0  0  0  0  0  0  0  0
    4.6890    1.6810   18.4640 C   0  0  0  0  0  0  0  0  0  0  0  0
    5.4210    0.9600   21.0930 C   0  0  0  0  0  0  0  0  0  0  0  0
    8.9960   -2.3380   25.5320 C   0  0  0  0  0  0  0  0  0  0  0  0
    9.6730   -3.4710   23.5300 C   0  0  0  0  0  0  0  0  0  0  0  0
   10.9285    2.7711   23.1427 C   0  0  0  0  0  0  0  0  0  0  0  0
   11.3066    4.0806   22.9428 C   0  0  0  0  0  0  0  0  0  0  0  0
    8.9310    3.8875   23.5503 C   0  0  0  0  0  0  0  0  0  0  0  0
    9.3350   -1.0880   23.5010 C   0  0  0  0  0  0  0  0  0  0  0  0
    9.5523    2.6591   23.4945 C   0  0  0  0  0  0  0  0  0  0  0  0
    5.8300    0.9190   18.6970 C   0  0  0  0  0  0  0  0  0  0  0  0
    6.1790    0.5730   19.9990 C   0  0  0  0  0  0  0  0  0  0  0  0
    9.3070   -3.5340   24.8780 C   0  0  0  0  0  0  0  0  0  0  0  0
    9.0420    0.3700   21.5280 C   0  0  0  0  0  0  0  0  0  0  0  0
    8.8766   -4.8075   26.9494 C   0  0  0  0  0  0  0  0  0  0  0  0
    9.5670   -5.9896   24.8578 C   0  0  0  0  0  0  0  0  0  0  0  0
    8.8584    1.3468   23.7740 C   0  0  0  0  0  0  0  0  0  0  0  0
    9.4560    0.1560   22.8130 C   0  0  2  0  0  0  0  0  0  0  0  0
    6.7580    0.3810   17.8350 N   0  0  0  0  0  0  0  0  0  0  0  0
    7.6390   -0.2680   18.5410 N   0  0  0  0  0  0  0  0  0  0  0  0
    7.3170   -0.1610   19.8550 N   0  0  0  0  0  0  0  0  0  0  0  0
    8.1890   -0.7180   20.8700 N   0  0  0  0  0  0  0  0  0  0  0  0
    9.2556   -4.7554   25.5514 N   0  0  0  0  0  0  0  0  0  0  0  0
    9.2690    1.4140   20.9380 O   0  0  0  0  0  0  0  0  0  0  0  0
   10.0053    5.1683   23.1793 S   0  0  0  0  0  0  0  0  0  0  0  0
    3.0136    2.6526   19.3908 H   0  0  0  0  0  0  0  0  0  0  0  0
    3.6480    2.0140   21.6821 H   0  0  0  0  0  0  0  0  0  0  0  0
    8.9214   -0.1986   25.4206 H   0  0  0  0  0  0  0  0  0  0  0  0
   10.0622   -2.2326   21.8251 H   0  0  0  0  0  0  0  0  0  0  0  0
    4.4042    1.9741   17.4524 H   0  0  0  0  0  0  0  0  0  0  0  0
    5.7089    0.6919   22.1150 H   0  0  0  0  0  0  0  0  0  0  0  0
    8.6882   -2.3542   26.5803 H   0  0  0  0  0  0  0  0  0  0  0  0
    9.9258   -4.3896   22.9914 H   0  0  0  0  0  0  0  0  0  0  0  0
   11.6102    1.9362   23.0408 H   0  0  0  0  0  0  0  0  0  0  0  0
   12.2848    4.4506   22.6700 H   0  0  0  0  0  0  0  0  0  0  0  0
    7.8985    4.0985   23.7919 H   0  0  0  0  0  0  0  0  0  0  0  0
    8.8956   -5.8512   27.2963 H   0  0  0  0  0  0  0  0  0  0  0  0
    9.5845   -4.2109   27.5435 H   0  0  0  0  0  0  0  0  0  0  0  0
    7.8621   -4.3997   27.0696 H   0  0  0  0  0  0  0  0  0  0  0  0
    9.4708   -6.8361   25.5536 H   0  0  0  0  0  0  0  0  0  0  0  0
    8.8693   -6.1242   24.0181 H   0  0  0  0  0  0  0  0  0  0  0  0
   10.5973   -5.9450   24.4750 H   0  0  0  0  0  0  0  0  0  0  0  0
    8.9548    1.1352   24.8480 H   0  0  0  0  0  0  0  0  0  0  0  0
    7.7793    1.4560   23.6018 H   0  0  0  0  0  0  0  0  0  0  0  0
   10.5986    0.4624   22.8633 H   0  0  0  0  0  0  0  0  0  0  0  0
    8.2712   -1.5583   21.1209 H   0  0  0  0  0  0  0  0  0  0  0  0
  1  2  1  0  0  0  0
  1  5  2  0  0  0  0
  2  6  2  0  0  0  0
  3  7  2  0  0  0  0
  3 12  1  0  0  0  0
  4  8  1  0  0  0  0
  4 12  2  0  0  0  0
  5 14  1  0  0  0  0
  6 15  1  0  0  0  0
  7 16  1  0  0  0  0
  8 16  2  0  0  0  0
  9 10  2  0  0  0  0
  9 13  1  0  0  0  0
 10 28  1  0  0  0  0
 11 13  2  0  0  0  0
 11 28  1  0  0  0  0
 12 21  1  0  0  0  0
 13 20  1  0  0  0  0
 14 15  2  0  0  0  0
 14 22  1  0  0  0  0
 15 24  1  0  0  0  0
 16 26  1  0  0  0  0
 17 21  1  0  0  0  0
 17 25  1  0  0  0  0
 17 27  2  0  0  0  0
 18 26  1  0  0  0  0
 19 26  1  0  0  0  0
 20 21  1  6  0  0  0
 22 23  2  0  0  0  0
 23 24  1  0  0  0  0
 24 25  1  0  0  0  0
  1 29  1  0  0  0  0
  2 30  1  0  0  0  0
  3 31  1  0  0  0  0
  4 32  1  0  0  0  0
  5 33  1  0  0  0  0
  6 34  1  0  0  0  0
  7 35  1  0  0  0  0
  8 36  1  0  0  0  0
  9 37  1  0  0  0  0
 10 38  1  0  0  0  0
 11 39  1  0  0  0  0
 18 40  1  0  0  0  0
 18 41  1  0  0  0  0
 18 42  1  0  0  0  0
 19 43  1  0  0  0  0
 19 44  1  0  0  0  0
 19 45  1  0  0  0  0
 20 46  1  0  0  0  0
 20 47  1  0  0  0  0
 21 48  1  0  0  0  0
 25 49  1  0  0  0  0
M  END
> <clash_score>
0

> <docking_score>
-8.787117004394531

> <overlap_score>
0.8732239603996277

$$$$
BENZO_169_1
  -OEChem-08232013443D

 52 55  0     1  0  0  0  0  0999 V2000
   11.5406    4.9642   22.9363 C   0  0  0  0  0  0  0  0  0  0  0  0
   12.5552    4.1270   22.4723 C   0  0  0  0  0  0  0  0  0  0  0  0
   10.3502    4.4177   23.4160 C   0  0  0  0  0  0  0  0  0  0  0  0
    3.9160    2.0630   19.5520 C   0  0  0  0  0  0  0  0  0  0  0  0
    4.2750    1.7050   20.8490 C   0  0  0  0  0  0  0  0  0  0  0  0
   12.3795    2.7434   22.4879 C   0  0  0  0  0  0  0  0  0  0  0  0
   10.1745    3.0341   23.4316 C   0  0  0  0  0  0  0  0  0  0  0  0
    9.0720   -1.1280   24.8640 C   0  0  0  0  0  0  0  0  0  0  0  0
    9.7200   -2.2600   22.8630 C   0  0  0  0  0  0  0  0  0  0  0  0
    4.6890    1.6810   18.4640 C   0  0  0  0  0  0  0  0  0  0  0  0
    5.4210    0.9600   21.0930 C   0  0  0  0  0  0  0  0  0  0  0  0
    8.9960   -2.3380   25.5320 C   0  0  0  0  0  0  0  0  0  0  0  0
    9.6730   -3.4710   23.5300 C   0  0  0  0  0  0  0  0  0  0  0  0
   11.1891    2.1969   22.9675 C   0  0  0  0  0  0  0  0  0  0  0  0
    9.3350   -1.0880   23.5010 C   0  0  0  0  0  0  0  0  0  0  0  0
    5.8300    0.9190   18.6970 C   0  0  0  0  0  0  0  0  0  0  0  0
    6.1790    0.5730   19.9990 C   0  0  0  0  0  0  0  0  0  0  0  0
    9.3070   -3.5340   24.8780 C   0  0  0  0  0  0  0  0  0  0  0  0
    9.0420    0.3700   21.5280 C   0  0  0  0  0  0  0  0  0  0  0  0
    8.0148   -5.2164   26.1419 C   0  0  0  0  0  0  0  0  0  0  0  0
   10.4390   -5.5857   25.6570 C   0  0  0  0  0  0  0  0  0  0  0  0
   10.9980    0.6985   22.9845 C   0  0  0  0  0  0  0  0  0  0  0  0
    9.4560    0.1560   22.8130 C   0  0  1  0  0  0  0  0  0  0  0  0
    6.7580    0.3810   17.8350 N   0  0  0  0  0  0  0  0  0  0  0  0
    7.6390   -0.2680   18.5410 N   0  0  0  0  0  0  0  0  0  0  0  0
    7.3170   -0.1610   19.8550 N   0  0  0  0  0  0  0  0  0  0  0  0
    8.1890   -0.7180   20.8700 N   0  0  0  0  0  0  0  0  0  0  0  0
    9.2556   -4.7554   25.5514 N   0  0  0  0  0  0  0  0  0  0  0  0
    9.2690    1.4140   20.9380 O   0  0  0  0  0  0  0  0  0  0  0  0
   11.6782    6.0415   22.9253 H   0  0  0  0  0  0  0  0  0  0  0  0
   13.4826    4.5523   22.0998 H   0  0  0  0  0  0  0  0  0  0  0  0
    9.5605    5.0692   23.7783 H   0  0  0  0  0  0  0  0  0  0  0  0
    3.0136    2.6526   19.3908 H   0  0  0  0  0  0  0  0  0  0  0  0
    3.6480    2.0140   21.6821 H   0  0  0  0  0  0  0  0  0  0  0  0
   13.1754    2.0988   22.1242 H   0  0  0  0  0  0  0  0  0  0  0  0
    9.2436    2.6172   23.8070 H   0  0  0  0  0  0  0  0  0  0  0  0
    8.9214   -0.1986   25.4206 H   0  0  0  0  0  0  0  0  0  0  0  0
   10.0622   -2.2326   21.8251 H   0  0  0  0  0  0  0  0  0  0  0  0
    4.4042    1.9741   17.4524 H   0  0  0  0  0  0  0  0  0  0  0  0
    5.7089    0.6919   22.1150 H   0  0  0  0  0  0  0  0  0  0  0  0
    8.6882   -2.3542   26.5803 H   0  0  0  0  0  0  0  0  0  0  0  0
    9.9258   -4.3896   22.9914 H   0  0  0  0  0  0  0  0  0  0  0  0
    8.1775   -6.1919   26.6236 H   0  0  0  0  0  0  0  0  0  0  0  0
    7.6740   -4.4889   26.8933 H   0  0  0  0  0  0  0  0  0  0  0  0
    7.2508   -5.3181   25.3570 H   0  0  0  0  0  0  0  0  0  0  0  0
   10.1974   -6.4996   26.2196 H   0  0  0  0  0  0  0  0  0  0  0  0
   10.7877   -5.8568   24.6496 H   0  0  0  0  0  0  0  0  0  0  0  0
   11.2305   -5.0307   26.1819 H   0  0  0  0  0  0  0  0  0  0  0  0
   11.6403    0.2667   22.2043 H   0  0  0  0  0  0  0  0  0  0  0  0
   11.3821    0.2882   23.9279 H   0  0  0  0  0  0  0  0  0  0  0  0
    8.9221    0.9705   23.4866 H   0  0  0  0  0  0  0  0  0  0  0  0
    8.2712   -1.5583   21.1209 H   0  0  0  0  0  0  0  0  0  0  0  0
  1  2  1  0  0  0  0
  1  3  2  0  0  0  0
  2  6  2  0  0  0  0
  3  7  1  0  0  0  0
  4  5  1  0  0  0  0
  4 10  2  0  0  0  0
  5 11  2  0  0  0  0
  6 14  1  0  0  0  0
  7 14  2  0  0  0  0
  8 12  2  0  0  0  0
  8 15  1  0  0  0  0
  9 13  1  0  0  0  0
  9 15  2  0  0  0  0
 10 16  1  0  0  0  0
 11 17  1  0  0  0  0
 12 18  1  0  0  0  0
 13 18  2  0  0  0  0
 14 22  1  0  0  0  0
 15 23  1  0  0  0  0
 16 17  2  0  0  0  0
 16 24  1  0  0  0  0
 17 26  1  0  0  0  0
 18 28  1  0  0  0  0
 19 23  1  0  0  0  0
 19 27  1  0  0  0  0
 19 29  2  0  0  0  0
 20 28  1  0  0  0  0
 21 28  1  0  0  0  0
 22 23  1  1  0  0  0
 24 25  2  0  0  0  0
 25 26  1  0  0  0  0
 26 27  1  0  0  0  0
  1 30  1  0  0  0  0
  2 31  1  0  0  0  0
  3 32  1  0  0  0  0
  4 33  1  0  0  0  0
  5 34  1  0  0  0  0
  6 35  1  0  0  0  0
  7 36  1  0  0  0  0
  8 37  1  0  0  0  0
  9 38  1  0  0  0  0
 10 39  1  0  0  0  0
 11 40  1  0  0  0  0
 12 41  1  0  0  0  0
 13 42  1  0  0  0  0
 20 43  1  0  0  0  0
 20 44  1  0  0  0  0
 20 45  1  0  0  0  0
 21 46  1  0  0  0  0
 21 47  1  0  0  0  0
 21 48  1  0  0  0  0
 22 49  1  0  0  0  0
 22 50  1  0  0  0  0
 23 51  1  0  0  0  0
 27 52  1  0  0  0  0
M  END
> <clash_score>
0

> <docking_score>
-10.687487602233887

> <overlap_score>
0.9264546632766724

$$$$
BENZO_169_2
  -OEChem-08232013443D

 52 55  0     1  0  0  0  0  0999 V2000
   10.8333    5.0828   22.9771 C   0  0  0  0  0  0  0  0  0  0  0  0
   11.3431    4.2172   23.9447 C   0  0  0  0  0  0  0  0  0  0  0  0
    9.6829    4.7367   22.2682 C   0  0  0  0  0  0  0  0  0  0  0  0
    3.9160    2.0630   19.5520 C   0  0  0  0  0  0  0  0  0  0  0  0
    4.2750    1.7050   20.8490 C   0  0  0  0  0  0  0  0  0  0  0  0
   10.7027    3.0054   24.2034 C   0  0  0  0  0  0  0  0  0  0  0  0
    9.0424    3.5248   22.5269 C   0  0  0  0  0  0  0  0  0  0  0  0
    9.0720   -1.1280   24.8640 C   0  0  0  0  0  0  0  0  0  0  0  0
    9.7200   -2.2600   22.8630 C   0  0  0  0  0  0  0  0  0  0  0  0
    4.6890    1.6810   18.4640 C   0  0  0  0  0  0  0  0  0  0  0  0
    5.4210    0.9600   21.0930 C   0  0  0  0  0  0  0  0  0  0  0  0
    8.9960   -2.3380   25.5320 C   0  0  0  0  0  0  0  0  0  0  0  0
    9.6730   -3.4710   23.5300 C   0  0  0  0  0  0  0  0  0  0  0  0
    9.5523    2.6591   23.4945 C   0  0  0  0  0  0  0  0  0  0  0  0
    9.3350   -1.0880   23.5010 C   0  0  0  0  0  0  0  0  0  0  0  0
    5.8300    0.9190   18.6970 C   0  0  0  0  0  0  0  0  0  0  0  0
    6.1790    0.5730   19.9990 C   0  0  0  0  0  0  0  0  0  0  0  0
    9.3070   -3.5340   24.8780 C   0  0  0  0  0  0  0  0  0  0  0  0
    9.0420    0.3700   21.5280 C   0  0  0  0  0  0  0  0  0  0  0  0
    8.8766   -4.8075   26.9494 C   0  0  0  0  0  0  0  0  0  0  0  0
    9.5670   -5.9896   24.8578 C   0  0  0  0  0  0  0  0  0  0  0  0
    8.8584    1.3468   23.7740 C   0  0  0  0  0  0  0  0  0  0  0  0
    9.4560    0.1560   22.8130 C   0  0  2  0  0  0  0  0  0  0  0  0
    6.7580    0.3810   17.8350 N   0  0  0  0  0  0  0  0  0  0  0  0
    7.6390   -0.2680   18.5410 N   0  0  0  0  0  0  0  0  0  0  0  0
    7.3170   -0.1610   19.8550 N   0  0  0  0  0  0  0  0  0  0  0  0
    8.1890   -0.7180   20.8700 N   0  0  0  0  0  0  0  0  0  0  0  0
    9.2556   -4.7554   25.5514 N   0  0  0  0  0  0  0  0  0  0  0  0
    9.2690    1.4140   20.9380 O   0  0  0  0  0  0  0  0  0  0  0  0
   11.3313    6.0270   22.7767 H   0  0  0  0  0  0  0  0  0  0  0  0
   12.2382    4.4870   24.4976 H   0  0  0  0  0  0  0  0  0  0  0  0
    9.2850    5.4109   21.5155 H   0  0  0  0  0  0  0  0  0  0  0  0
    3.0136    2.6526   19.3908 H   0  0  0  0  0  0  0  0  0  0  0  0
    3.6480    2.0140   21.6821 H   0  0  0  0  0  0  0  0  0  0  0  0
   11.1072    2.3370   24.9590 H   0  0  0  0  0  0  0  0  0  0  0  0
    8.1468    3.2634   21.9695 H   0  0  0  0  0  0  0  0  0  0  0  0
    8.9214   -0.1986   25.4206 H   0  0  0  0  0  0  0  0  0  0  0  0
   10.0622   -2.2326   21.8251 H   0  0  0  0  0  0  0  0  0  0  0  0
    4.4042    1.9741   17.4524 H   0  0  0  0  0  0  0  0  0  0  0  0
    5.7089    0.6919   22.1150 H   0  0  0  0  0  0  0  0  0  0  0  0
    8.6882   -2.3542   26.5803 H   0  0  0  0  0  0  0  0  0  0  0  0
    9.9258   -4.3896   22.9914 H   0  0  0  0  0  0  0  0  0  0  0  0
    8.8956   -5.8512   27.2963 H   0  0  0  0  0  0  0  0  0  0  0  0
    9.5845   -4.2109   27.5435 H   0  0  0  0  0  0  0  0  0  0  0  0
    7.8621   -4.3997   27.0696 H   0  0  0  0  0  0  0  0  0  0  0  0
    9.4708   -6.8361   25.5536 H   0  0  0  0  0  0  0  0  0  0  0  0
    8.8693   -6.1242   24.0181 H   0  0  0  0  0  0  0  0  0  0  0  0
   10.5973   -5.9450   24.4750 H   0  0  0  0  0  0  0  0  0  0  0  0
    8.9548    1.1352   24.8480 H   0  0  0  0  0  0  0  0  0  0  0  0
    7.7793    1.4560   23.6018 H   0  0  0  0  0  0  0  0  0  0  0  0
   10.5986    0.4624   22.8633 H   0  0  0  0  0  0  0  0  0  0  0  0
    8.2712   -1.5583   21.1209 H   0  0  0  0  0  0  0  0  0  0  0  0
  1  2  1  0  0  0  0
  1  3  2  0  0  0  0
  2  6  2  0  0  0  0
  3  7  1  0  0  0  0
  4  5  1  0  0  0  0
  4 10  2  0  0  0  0
  5 11  2  0  0  0  0
  6 14  1  0  0  0  0
  7 14  2  0  0  0  0
  8 12  2  0  0  0  0
  8 15  1  0  0  0  0
  9 13  1  0  0  0  0
  9 15  2  0  0  0  0
 10 16  1  0  0  0  0
 11 17  1  0  0  0  0
 12 18  1  0  0  0  0
 13 18  2  0  0  0  0
 14 22  1  0  0  0  0
 15 23  1  0  0  0  0
 16 17  2  0  0  0  0
 16 24  1  0  0  0  0
 17 26  1  0  0  0  0
 18 28  1  0  0  0  0
 19 23  1  0  0  0  0
 19 27  1  0  0  0  0
 19 29  2  0  0  0  0
 20 28  1  0  0  0  0
 21 28  1  0  0  0  0
 22 23  1  6  0  0  0
 24 25  2  0  0  0  0
 25 26  1  0  0  0  0
 26 27  1  0  0  0  0
  1 30  1  0  0  0  0
  2 31  1  0  0  0  0
  3 32  1  0  0  0  0
  4 33  1  0  0  0  0
  5 34  1  0  0  0  0
  6 35  1  0  0  0  0
  7 36  1  0  0  0  0
  8 37  1  0  0  0  0
  9 38  1  0  0  0  0
 10 39  1  0  0  0  0
 11 40  1  0  0  0  0
 12 41  1  0  0  0  0
 13 42  1  0  0  0  0
 20 43  1  0  0  0  0
 20 44  1  0  0  0  0
 20 45  1  0  0  0  0
 21 46  1  0  0  0  0
 21 47  1  0  0  0  0
 21 48  1  0  0  0  0
 22 49  1  0  0  0  0
 22 50  1  0  0  0  0
 23 51  1  0  0  0  0
 27 52  1  0  0  0  0
M  END
> <clash_score>
0

> <docking_score>
-7.5734453201293945

> <overlap_score>
0.8581092357635498

$$$$
BENZO_170_1
  -OEChem-08232013443D

 52 55  0     1  0  0  0  0  0999 V2000
    3.9160    2.0630   19.5520 C   0  0  0  0  0  0  0  0  0  0  0  0
    4.2750    1.7050   20.8490 C   0  0  0  0  0  0  0  0  0  0  0  0
   10.3511    4.4175   23.4183 C   0  0  0  0  0  0  0  0  0  0  0  0
   10.1749    3.0340   23.4326 C   0  0  0  0  0  0  0  0  0  0  0  0
    9.0720   -1.1280   24.8640 C   0  0  0  0  0  0  0  0  0  0  0  0
    9.7200   -2.2600   22.8630 C   0  0  0  0  0  0  0  0  0  0  0  0
    4.6890    1.6810   18.4640 C   0  0  0  0  0  0  0  0  0  0  0  0
    5.4210    0.9600   21.0930 C   0  0  0  0  0  0  0  0  0  0  0  0
    8.9960   -2.3380   25.5320 C   0  0  0  0  0  0  0  0  0  0  0  0
    9.6730   -3.4710   23.5300 C   0  0  0  0  0  0  0  0  0  0  0  0
   11.5416    4.9641   22.9388 C   0  0  0  0  0  0  0  0  0  0  0  0
   12.3796    2.7434   22.4881 C   0  0  0  0  0  0  0  0  0  0  0  0
    9.3350   -1.0880   23.5010 C   0  0  0  0  0  0  0  0  0  0  0  0
   11.1891    2.1969   22.9675 C   0  0  0  0  0  0  0  0  0  0  0  0
    5.8300    0.9190   18.6970 C   0  0  0  0  0  0  0  0  0  0  0  0
    6.1790    0.5730   19.9990 C   0  0  0  0  0  0  0  0  0  0  0  0
    9.3070   -3.5340   24.8780 C   0  0  0  0  0  0  0  0  0  0  0  0
   12.5558    4.1270   22.4738 C   0  0  0  0  0  0  0  0  0  0  0  0
    9.0420    0.3700   21.5280 C   0  0  0  0  0  0  0  0  0  0  0  0
    8.0148   -5.2164   26.1419 C   0  0  0  0  0  0  0  0  0  0  0  0
   10.4390   -5.5857   25.6570 C   0  0  0  0  0  0  0  0  0  0  0  0
   10.9980    0.6985   22.9845 C   0  0  0  0  0  0  0  0  0  0  0  0
    9.4560    0.1560   22.8130 C   0  0  1  0  0  0  0  0  0  0  0  0
    6.7580    0.3810   17.8350 N   0  0  0  0  0  0  0  0  0  0  0  0
    7.6390   -0.2680   18.5410 N   0  0  0  0  0  0  0  0  0  0  0  0
    7.3170   -0.1610   19.8550 N   0  0  0  0  0  0  0  0  0  0  0  0
    8.1890   -0.7180   20.8700 N   0  0  0  0  0  0  0  0  0  0  0  0
    9.2556   -4.7554   25.5514 N   0  0  0  0  0  0  0  0  0  0  0  0
    9.2690    1.4140   20.9380 O   0  0  0  0  0  0  0  0  0  0  0  0
   14.0247    4.8018   21.8834 Cl  0  0  0  0  0  0  0  0  0  0  0  0
    3.0136    2.6526   19.3908 H   0  0  0  0  0  0  0  0  0  0  0  0
    3.6480    2.0140   21.6821 H   0  0  0  0  0  0  0  0  0  0  0  0
    9.5612    5.0691   23.7807 H   0  0  0  0  0  0  0  0  0  0  0  0
    9.2441    2.6169   23.8081 H   0  0  0  0  0  0  0  0  0  0  0  0
    8.9214   -0.1986   25.4206 H   0  0  0  0  0  0  0  0  0  0  0  0
   10.0622   -2.2326   21.8251 H   0  0  0  0  0  0  0  0  0  0  0  0
    4.4042    1.9741   17.4524 H   0  0  0  0  0  0  0  0  0  0  0  0
    5.7089    0.6919   22.1150 H   0  0  0  0  0  0  0  0  0  0  0  0
    8.6882   -2.3542   26.5803 H   0  0  0  0  0  0  0  0  0  0  0  0
    9.9258   -4.3896   22.9914 H   0  0  0  0  0  0  0  0  0  0  0  0
   11.6651    6.0443   22.9339 H   0  0  0  0  0  0  0  0  0  0  0  0
   13.1671    2.0865   22.1261 H   0  0  0  0  0  0  0  0  0  0  0  0
    8.1775   -6.1919   26.6236 H   0  0  0  0  0  0  0  0  0  0  0  0
    7.6740   -4.4889   26.8933 H   0  0  0  0  0  0  0  0  0  0  0  0
    7.2508   -5.3181   25.3570 H   0  0  0  0  0  0  0  0  0  0  0  0
   10.1974   -6.4996   26.2196 H   0  0  0  0  0  0  0  0  0  0  0  0
   10.7877   -5.8568   24.6496 H   0  0  0  0  0  0  0  0  0  0  0  0
   11.2305   -5.0307   26.1819 H   0  0  0  0  0  0  0  0  0  0  0  0
   11.6403    0.2667   22.2043 H   0  0  0  0  0  0  0  0  0  0  0  0
   11.3821    0.2882   23.9279 H   0  0  0  0  0  0  0  0  0  0  0  0
    8.9221    0.9705   23.4866 H   0  0  0  0  0  0  0  0  0  0  0  0
    8.2712   -1.5583   21.1209 H   0  0  0  0  0  0  0  0  0  0  0  0
  1  2  1  0  0  0  0
  1  7  2  0  0  0  0
  2  8  2  0  0  0  0
  3  4  2  0  0  0  0
  3 11  1  0  0  0  0
  4 14  1  0  0  0  0
  5  9  2  0  0  0  0
  5 13  1  0  0  0  0
  6 10  1  0  0  0  0
  6 13  2  0  0  0  0
  7 15  1  0  0  0  0
  8 16  1  0  0  0  0
  9 17  1  0  0  0  0
 10 17  2  0  0  0  0
 11 18  2  0  0  0  0
 12 14  2  0  0  0  0
 12 18  1  0  0  0  0
 13 23  1  0  0  0  0
 14 22  1  0  0  0  0
 15 16  2  0  0  0  0
 15 24  1  0  0  0  0
 16 26  1  0  0  0  0
 17 28  1  0  0  0  0
 18 30  1  0  0  0  0
 19 23  1  0  0  0  0
 19 27  1  0  0  0  0
 19 29  2  0  0  0  0
 20 28  1  0  0  0  0
 21 28  1  0  0  0  0
 22 23  1  1  0  0  0
 24 25  2  0  0  0  0
 25 26  1  0  0  0  0
 26 27  1  0  0  0  0
  1 31  1  0  0  0  0
  2 32  1  0  0  0  0
  3 33  1  0  0  0  0
  4 34  1  0  0  0  0
  5 35  1  0  0  0  0
  6 36  1  0  0  0  0
  7 37  1  0  0  0  0
  8 38  1  0  0  0  0
  9 39  1  0  0  0  0
 10 40  1  0  0  0  0
 11 41  1  0  0  0  0
 12 42  1  0  0  0  0
 20 43  1  0  0  0  0
 20 44  1  0  0  0  0
 20 45  1  0  0  0  0
 21 46  1  0  0  0  0
 21 47  1  0  0  0  0
 21 48  1  0  0  0  0
 22 49  1  0  0  0  0
 22 50  1  0  0  0  0
 23 51  1  0  0  0  0
 27 52  1  0  0  0  0
M  END
> <clash_score>
0

> <docking_score>
-10.956400871276855

> <overlap_score>
0.9272748231887817

$$$$
BENZO_170_2
  -OEChem-08232013443D

 52 55  0     1  0  0  0  0  0999 V2000
    3.9160    2.0630   19.5520 C   0  0  0  0  0  0  0  0  0  0  0  0
    4.2750    1.7050   20.8490 C   0  0  0  0  0  0  0  0  0  0  0  0
    9.6814    4.7377   22.2699 C   0  0  0  0  0  0  0  0  0  0  0  0
    9.0418    3.5253   22.5276 C   0  0  0  0  0  0  0  0  0  0  0  0
    9.0720   -1.1280   24.8640 C   0  0  0  0  0  0  0  0  0  0  0  0
    9.7200   -2.2600   22.8630 C   0  0  0  0  0  0  0  0  0  0  0  0
    4.6890    1.6810   18.4640 C   0  0  0  0  0  0  0  0  0  0  0  0
    5.4210    0.9600   21.0930 C   0  0  0  0  0  0  0  0  0  0  0  0
    8.9960   -2.3380   25.5320 C   0  0  0  0  0  0  0  0  0  0  0  0
    9.6730   -3.4710   23.5300 C   0  0  0  0  0  0  0  0  0  0  0  0
   10.8316    5.0840   22.9789 C   0  0  0  0  0  0  0  0  0  0  0  0
   10.7025    3.0055   24.2036 C   0  0  0  0  0  0  0  0  0  0  0  0
    9.3350   -1.0880   23.5010 C   0  0  0  0  0  0  0  0  0  0  0  0
    9.5523    2.6591   23.4945 C   0  0  0  0  0  0  0  0  0  0  0  0
    5.8300    0.9190   18.6970 C   0  0  0  0  0  0  0  0  0  0  0  0
    6.1790    0.5730   19.9990 C   0  0  0  0  0  0  0  0  0  0  0  0
    9.3070   -3.5340   24.8780 C   0  0  0  0  0  0  0  0  0  0  0  0
   11.3422    4.2179   23.9458 C   0  0  0  0  0  0  0  0  0  0  0  0
    9.0420    0.3700   21.5280 C   0  0  0  0  0  0  0  0  0  0  0  0
    8.8766   -4.8075   26.9494 C   0  0  0  0  0  0  0  0  0  0  0  0
    9.5670   -5.9896   24.8578 C   0  0  0  0  0  0  0  0  0  0  0  0
    8.8584    1.3468   23.7740 C   0  0  0  0  0  0  0  0  0  0  0  0
    9.4560    0.1560   22.8130 C   0  0  2  0  0  0  0  0  0  0  0  0
    6.7580    0.3810   17.8350 N   0  0  0  0  0  0  0  0  0  0  0  0
    7.6390   -0.2680   18.5410 N   0  0  0  0  0  0  0  0  0  0  0  0
    7.3170   -0.1610   19.8550 N   0  0  0  0  0  0  0  0  0  0  0  0
    8.1890   -0.7180   20.8700 N   0  0  0  0  0  0  0  0  0  0  0  0
    9.2556   -4.7554   25.5514 N   0  0  0  0  0  0  0  0  0  0  0  0
    9.2690    1.4140   20.9380 O   0  0  0  0  0  0  0  0  0  0  0  0
   12.7607    4.6463   24.8210 Cl  0  0  0  0  0  0  0  0  0  0  0  0
    3.0136    2.6526   19.3908 H   0  0  0  0  0  0  0  0  0  0  0  0
    3.6480    2.0140   21.6821 H   0  0  0  0  0  0  0  0  0  0  0  0
    9.2834    5.4119   21.5170 H   0  0  0  0  0  0  0  0  0  0  0  0
    8.1460    3.2636   21.9704 H   0  0  0  0  0  0  0  0  0  0  0  0
    8.9214   -0.1986   25.4206 H   0  0  0  0  0  0  0  0  0  0  0  0
   10.0622   -2.2326   21.8251 H   0  0  0  0  0  0  0  0  0  0  0  0
    4.4042    1.9741   17.4524 H   0  0  0  0  0  0  0  0  0  0  0  0
    5.7089    0.6919   22.1150 H   0  0  0  0  0  0  0  0  0  0  0  0
    8.6882   -2.3542   26.5803 H   0  0  0  0  0  0  0  0  0  0  0  0
    9.9258   -4.3896   22.9914 H   0  0  0  0  0  0  0  0  0  0  0  0
   11.3195    6.0324   22.7676 H   0  0  0  0  0  0  0  0  0  0  0  0
   11.0970    2.3265   24.9561 H   0  0  0  0  0  0  0  0  0  0  0  0
    8.8956   -5.8512   27.2963 H   0  0  0  0  0  0  0  0  0  0  0  0
    9.5845   -4.2109   27.5435 H   0  0  0  0  0  0  0  0  0  0  0  0
    7.8621   -4.3997   27.0696 H   0  0  0  0  0  0  0  0  0  0  0  0
    9.4708   -6.8361   25.5536 H   0  0  0  0  0  0  0  0  0  0  0  0
    8.8693   -6.1242   24.0181 H   0  0  0  0  0  0  0  0  0  0  0  0
   10.5973   -5.9450   24.4750 H   0  0  0  0  0  0  0  0  0  0  0  0
    8.9548    1.1352   24.8480 H   0  0  0  0  0  0  0  0  0  0  0  0
    7.7793    1.4560   23.6018 H   0  0  0  0  0  0  0  0  0  0  0  0
   10.5986    0.4624   22.8633 H   0  0  0  0  0  0  0  0  0  0  0  0
    8.2712   -1.5583   21.1209 H   0  0  0  0  0  0  0  0  0  0  0  0
  1  2  1  0  0  0  0
  1  7  2  0  0  0  0
  2  8  2  0  0  0  0
  3  4  2  0  0  0  0
  3 11  1  0  0  0  0
  4 14  1  0  0  0  0
  5  9  2  0  0  0  0
  5 13  1  0  0  0  0
  6 10  1  0  0  0  0
  6 13  2  0  0  0  0
  7 15  1  0  0  0  0
  8 16  1  0  0  0  0
  9 17  1  0  0  0  0
 10 17  2  0  0  0  0
 11 18  2  0  0  0  0
 12 14  2  0  0  0  0
 12 18  1  0  0  0  0
 13 23  1  0  0  0  0
 14 22  1  0  0  0  0
 15 16  2  0  0  0  0
 15 24  1  0  0  0  0
 16 26  1  0  0  0  0
 17 28  1  0  0  0  0
 18 30  1  0  0  0  0
 19 23  1  0  0  0  0
 19 27  1  0  0  0  0
 19 29  2  0  0  0  0
 20 28  1  0  0  0  0
 21 28  1  0  0  0  0
 22 23  1  6  0  0  0
 24 25  2  0  0  0  0
 25 26  1  0  0  0  0
 26 27  1  0  0  0  0
  1 31  1  0  0  0  0
  2 32  1  0  0  0  0
  3 33  1  0  0  0  0
  4 34  1  0  0  0  0
  5 35  1  0  0  0  0
  6 36  1  0  0  0  0
  7 37  1  0  0  0  0
  8 38  1  0  0  0  0
  9 39  1  0  0  0  0
 10 40  1  0  0  0  0
 11 41  1  0  0  0  0
 12 42  1  0  0  0  0
 20 43  1  0  0  0  0
 20 44  1  0  0  0  0
 20 45  1  0  0  0  0
 21 46  1  0  0  0  0
 21 47  1  0  0  0  0
 21 48  1  0  0  0  0
 22 49  1  0  0  0  0
 22 50  1  0  0  0  0
 23 51  1  0  0  0  0
 27 52  1  0  0  0  0
M  END
> <clash_score>
0

> <docking_score>
-6.8398895263671875

> <overlap_score>
0.8584546446800232

$$$$
BENZO_171_2
  -OEChem-08232013443D

 52 55  0     1  0  0  0  0  0999 V2000
    3.9160    2.0630   19.5520 C   0  0  0  0  0  0  0  0  0  0  0  0
    4.2750    1.7050   20.8490 C   0  0  0  0  0  0  0  0  0  0  0  0
    9.0720   -1.1280   24.8640 C   0  0  0  0  0  0  0  0  0  0  0  0
    9.7200   -2.2600   22.8630 C   0  0  0  0  0  0  0  0  0  0  0  0
    4.6890    1.6810   18.4640 C   0  0  0  0  0  0  0  0  0  0  0  0
    5.4210    0.9600   21.0930 C   0  0  0  0  0  0  0  0  0  0  0  0
    8.9960   -2.3380   25.5320 C   0  0  0  0  0  0  0  0  0  0  0  0
    9.6730   -3.4710   23.5300 C   0  0  0  0  0  0  0  0  0  0  0  0
   10.8722    2.8605   23.0481 C   0  0  0  0  0  0  0  0  0  0  0  0
    9.0344    3.9253   23.6169 C   0  0  0  0  0  0  0  0  0  0  0  0
    9.3350   -1.0880   23.5010 C   0  0  0  0  0  0  0  0  0  0  0  0
    9.5523    2.6591   23.4945 C   0  0  0  0  0  0  0  0  0  0  0  0
    5.8300    0.9190   18.6970 C   0  0  0  0  0  0  0  0  0  0  0  0
    6.1790    0.5730   19.9990 C   0  0  0  0  0  0  0  0  0  0  0  0
    9.3070   -3.5340   24.8780 C   0  0  0  0  0  0  0  0  0  0  0  0
    9.0420    0.3700   21.5280 C   0  0  0  0  0  0  0  0  0  0  0  0
    9.9673    6.2162   23.2165 C   0  0  0  0  0  0  0  0  0  0  0  0
    8.8766   -4.8075   26.9494 C   0  0  0  0  0  0  0  0  0  0  0  0
    9.5670   -5.9896   24.8578 C   0  0  0  0  0  0  0  0  0  0  0  0
    8.8584    1.3468   23.7740 C   0  0  0  0  0  0  0  0  0  0  0  0
    9.4560    0.1560   22.8130 C   0  0  2  0  0  0  0  0  0  0  0  0
   11.1739    4.1528   22.8970 N   0  0  0  0  0  0  0  0  0  0  0  0
    6.7580    0.3810   17.8350 N   0  0  0  0  0  0  0  0  0  0  0  0
    7.6390   -0.2680   18.5410 N   0  0  0  0  0  0  0  0  0  0  0  0
   10.0363    4.7750   23.2503 N   0  0  0  0  0  0  0  0  0  0  0  0
    7.3170   -0.1610   19.8550 N   0  0  0  0  0  0  0  0  0  0  0  0
    8.1890   -0.7180   20.8700 N   0  0  0  0  0  0  0  0  0  0  0  0
    9.2556   -4.7554   25.5514 N   0  0  0  0  0  0  0  0  0  0  0  0
    9.2690    1.4140   20.9380 O   0  0  0  0  0  0  0  0  0  0  0  0
    3.0136    2.6526   19.3908 H   0  0  0  0  0  0  0  0  0  0  0  0
    3.6480    2.0140   21.6821 H   0  0  0  0  0  0  0  0  0  0  0  0
    8.9214   -0.1986   25.4206 H   0  0  0  0  0  0  0  0  0  0  0  0
   10.0622   -2.2326   21.8251 H   0  0  0  0  0  0  0  0  0  0  0  0
    4.4042    1.9741   17.4524 H   0  0  0  0  0  0  0  0  0  0  0  0
    5.7089    0.6919   22.1150 H   0  0  0  0  0  0  0  0  0  0  0  0
    8.6882   -2.3542   26.5803 H   0  0  0  0  0  0  0  0  0  0  0  0
    9.9258   -4.3896   22.9914 H   0  0  0  0  0  0  0  0  0  0  0  0
   11.6282    2.1210   22.8251 H   0  0  0  0  0  0  0  0  0  0  0  0
    8.0619    4.2851   23.9247 H   0  0  0  0  0  0  0  0  0  0  0  0
   10.2790    6.5919   24.1946 H   0  0  0  0  0  0  0  0  0  0  0  0
   10.6299    6.5942   22.4329 H   0  0  0  0  0  0  0  0  0  0  0  0
    8.9411    6.5238   22.9968 H   0  0  0  0  0  0  0  0  0  0  0  0
    8.8956   -5.8512   27.2963 H   0  0  0  0  0  0  0  0  0  0  0  0
    9.5845   -4.2109   27.5435 H   0  0  0  0  0  0  0  0  0  0  0  0
    7.8621   -4.3997   27.0696 H   0  0  0  0  0  0  0  0  0  0  0  0
    9.4708   -6.8361   25.5536 H   0  0  0  0  0  0  0  0  0  0  0  0
    8.8693   -6.1242   24.0181 H   0  0  0  0  0  0  0  0  0  0  0  0
   10.5973   -5.9450   24.4750 H   0  0  0  0  0  0  0  0  0  0  0  0
    8.9548    1.1352   24.8480 H   0  0  0  0  0  0  0  0  0  0  0  0
    7.7793    1.4560   23.6018 H   0  0  0  0  0  0  0  0  0  0  0  0
   10.5986    0.4624   22.8633 H   0  0  0  0  0  0  0  0  0  0  0  0
    8.2712   -1.5583   21.1209 H   0  0  0  0  0  0  0  0  0  0  0  0
  1  2  1  0  0  0  0
  1  5  2  0  0  0  0
  2  6  2  0  0  0  0
  3  7  2  0  0  0  0
  3 11  1  0  0  0  0
  4  8  1  0  0  0  0
  4 11  2  0  0  0  0
  5 13  1  0  0  0  0
  6 14  1  0  0  0  0
  7 15  1  0  0  0  0
  8 15  2  0  0  0  0
  9 12  1  0  0  0  0
  9 22  2  0  0  0  0
 10 12  2  0  0  0  0
 10 25  1  0  0  0  0
 11 21  1  0  0  0  0
 12 20  1  0  0  0  0
 13 14  2  0  0  0  0
 13 23  1  0  0  0  0
 14 26  1  0  0  0  0
 15 28  1  0  0  0  0
 16 21  1  0  0  0  0
 16 27  1  0  0  0  0
 16 29  2  0  0  0  0
 17 25  1  0  0  0  0
 18 28  1  0  0  0  0
 19 28  1  0  0  0  0
 20 21  1  6  0  0  0
 22 25  1  0  0  0  0
 23 24  2  0  0  0  0
 24 26  1  0  0  0  0
 26 27  1  0  0  0  0
  1 30  1  0  0  0  0
  2 31  1  0  0  0  0
  3 32  1  0  0  0  0
  4 33  1  0  0  0  0
  5 34  1  0  0  0  0
  6 35  1  0  0  0  0
  7 36  1  0  0  0  0
  8 37  1  0  0  0  0
  9 38  1  0  0  0  0
 10 39  1  0  0  0  0
 17 40  1  0  0  0  0
 17 41  1  0  0  0  0
 17 42  1  0  0  0  0
 18 43  1  0  0  0  0
 18 44  1  0  0  0  0
 18 45  1  0  0  0  0
 19 46  1  0  0  0  0
 19 47  1  0  0  0  0
 19 48  1  0  0  0  0
 20 49  1  0  0  0  0
 20 50  1  0  0  0  0
 21 51  1  0  0  0  0
 27 52  1  0  0  0  0
M  END
> <clash_score>
0

> <docking_score>
-9.085891723632812

> <overlap_score>
0.867890477180481

$$$$
BENZO_171_1
  -OEChem-08232013443D

 52 55  0     1  0  0  0  0  0999 V2000
    3.9160    2.0630   19.5520 C   0  0  0  0  0  0  0  0  0  0  0  0
    4.2750    1.7050   20.8490 C   0  0  0  0  0  0  0  0  0  0  0  0
    9.0720   -1.1280   24.8640 C   0  0  0  0  0  0  0  0  0  0  0  0
    9.7200   -2.2600   22.8630 C   0  0  0  0  0  0  0  0  0  0  0  0
    4.6890    1.6810   18.4640 C   0  0  0  0  0  0  0  0  0  0  0  0
    5.4210    0.9600   21.0930 C   0  0  0  0  0  0  0  0  0  0  0  0
    8.9960   -2.3380   25.5320 C   0  0  0  0  0  0  0  0  0  0  0  0
    9.6730   -3.4710   23.5300 C   0  0  0  0  0  0  0  0  0  0  0  0
   10.2850    3.1879   23.3945 C   0  0  0  0  0  0  0  0  0  0  0  0
   12.2874    2.8981   22.5336 C   0  0  0  0  0  0  0  0  0  0  0  0
    9.3350   -1.0880   23.5010 C   0  0  0  0  0  0  0  0  0  0  0  0
   11.1891    2.1969   22.9675 C   0  0  0  0  0  0  0  0  0  0  0  0
    5.8300    0.9190   18.6970 C   0  0  0  0  0  0  0  0  0  0  0  0
    6.1790    0.5730   19.9990 C   0  0  0  0  0  0  0  0  0  0  0  0
    9.3070   -3.5340   24.8780 C   0  0  0  0  0  0  0  0  0  0  0  0
    9.0420    0.3700   21.5280 C   0  0  0  0  0  0  0  0  0  0  0  0
   12.8361    5.3400   22.4104 C   0  0  0  0  0  0  0  0  0  0  0  0
    8.0148   -5.2164   26.1419 C   0  0  0  0  0  0  0  0  0  0  0  0
   10.4390   -5.5857   25.6570 C   0  0  0  0  0  0  0  0  0  0  0  0
   10.9980    0.6985   22.9845 C   0  0  0  0  0  0  0  0  0  0  0  0
    9.4560    0.1560   22.8130 C   0  0  1  0  0  0  0  0  0  0  0  0
   10.7672    4.4245   23.2454 N   0  0  0  0  0  0  0  0  0  0  0  0
    6.7580    0.3810   17.8350 N   0  0  0  0  0  0  0  0  0  0  0  0
    7.6390   -0.2680   18.5410 N   0  0  0  0  0  0  0  0  0  0  0  0
   11.9863    4.2152   22.7200 N   0  0  0  0  0  0  0  0  0  0  0  0
    7.3170   -0.1610   19.8550 N   0  0  0  0  0  0  0  0  0  0  0  0
    8.1890   -0.7180   20.8700 N   0  0  0  0  0  0  0  0  0  0  0  0
    9.2556   -4.7554   25.5514 N   0  0  0  0  0  0  0  0  0  0  0  0
    9.2690    1.4140   20.9380 O   0  0  0  0  0  0  0  0  0  0  0  0
    3.0136    2.6526   19.3908 H   0  0  0  0  0  0  0  0  0  0  0  0
    3.6480    2.0140   21.6821 H   0  0  0  0  0  0  0  0  0  0  0  0
    8.9214   -0.1986   25.4206 H   0  0  0  0  0  0  0  0  0  0  0  0
   10.0622   -2.2326   21.8251 H   0  0  0  0  0  0  0  0  0  0  0  0
    4.4042    1.9741   17.4524 H   0  0  0  0  0  0  0  0  0  0  0  0
    5.7089    0.6919   22.1150 H   0  0  0  0  0  0  0  0  0  0  0  0
    8.6882   -2.3542   26.5803 H   0  0  0  0  0  0  0  0  0  0  0  0
    9.9258   -4.3896   22.9914 H   0  0  0  0  0  0  0  0  0  0  0  0
    9.2947    3.0629   23.8091 H   0  0  0  0  0  0  0  0  0  0  0  0
   13.2346    2.5800   22.1195 H   0  0  0  0  0  0  0  0  0  0  0  0
   12.6295    5.6456   21.3814 H   0  0  0  0  0  0  0  0  0  0  0  0
   12.6226    6.1591   23.1027 H   0  0  0  0  0  0  0  0  0  0  0  0
   13.8829    5.0428   22.5193 H   0  0  0  0  0  0  0  0  0  0  0  0
    8.1775   -6.1919   26.6236 H   0  0  0  0  0  0  0  0  0  0  0  0
    7.6740   -4.4889   26.8933 H   0  0  0  0  0  0  0  0  0  0  0  0
    7.2508   -5.3181   25.3570 H   0  0  0  0  0  0  0  0  0  0  0  0
   10.1974   -6.4996   26.2196 H   0  0  0  0  0  0  0  0  0  0  0  0
   10.7877   -5.8568   24.6496 H   0  0  0  0  0  0  0  0  0  0  0  0
   11.2305   -5.0307   26.1819 H   0  0  0  0  0  0  0  0  0  0  0  0
   11.6403    0.2667   22.2043 H   0  0  0  0  0  0  0  0  0  0  0  0
   11.3821    0.2882   23.9279 H   0  0  0  0  0  0  0  0  0  0  0  0
    8.9221    0.9705   23.4866 H   0  0  0  0  0  0  0  0  0  0  0  0
    8.2712   -1.5583   21.1209 H   0  0  0  0  0  0  0  0  0  0  0  0
  1  2  1  0  0  0  0
  1  5  2  0  0  0  0
  2  6  2  0  0  0  0
  3  7  2  0  0  0  0
  3 11  1  0  0  0  0
  4  8  1  0  0  0  0
  4 11  2  0  0  0  0
  5 13  1  0  0  0  0
  6 14  1  0  0  0  0
  7 15  1  0  0  0  0
  8 15  2  0  0  0  0
  9 12  1  0  0  0  0
  9 22  2  0  0  0  0
 10 12  2  0  0  0  0
 10 25  1  0  0  0  0
 11 21  1  0  0  0  0
 12 20  1  0  0  0  0
 13 14  2  0  0  0  0
 13 23  1  0  0  0  0
 14 26  1  0  0  0  0
 15 28  1  0  0  0  0
 16 21  1  0  0  0  0
 16 27  1  0  0  0  0
 16 29  2  0  0  0  0
 17 25  1  0  0  0  0
 18 28  1  0  0  0  0
 19 28  1  0  0  0  0
 20 21  1  1  0  0  0
 22 25  1  0  0  0  0
 23 24  2  0  0  0  0
 24 26  1  0  0  0  0
 26 27  1  0  0  0  0
  1 30  1  0  0  0  0
  2 31  1  0  0  0  0
  3 32  1  0  0  0  0
  4 33  1  0  0  0  0
  5 34  1  0  0  0  0
  6 35  1  0  0  0  0
  7 36  1  0  0  0  0
  8 37  1  0  0  0  0
  9 38  1  0  0  0  0
 10 39  1  0  0  0  0
 17 40  1  0  0  0  0
 17 41  1  0  0  0  0
 17 42  1  0  0  0  0
 18 43  1  0  0  0  0
 18 44  1  0  0  0  0
 18 45  1  0  0  0  0
 19 46  1  0  0  0  0
 19 47  1  0  0  0  0
 19 48  1  0  0  0  0
 20 49  1  0  0  0  0
 20 50  1  0  0  0  0
 21 51  1  0  0  0  0
 27 52  1  0  0  0  0
M  END
> <clash_score>
0

> <docking_score>
-10.587042808532715

> <overlap_score>
0.9231189489364624

$$$$
BENZO_172_1
  -OEChem-08232013443D

 51 54  0     1  0  0  0  0  0999 V2000
    3.9160    2.0630   19.5520 C   0  0  0  0  0  0  0  0  0  0  0  0
    4.2750    1.7050   20.8490 C   0  0  0  0  0  0  0  0  0  0  0  0
    9.0720   -1.1280   24.8640 C   0  0  0  0  0  0  0  0  0  0  0  0
    9.7200   -2.2600   22.8630 C   0  0  0  0  0  0  0  0  0  0  0  0
    4.6890    1.6810   18.4640 C   0  0  0  0  0  0  0  0  0  0  0  0
    5.4210    0.9600   21.0930 C   0  0  0  0  0  0  0  0  0  0  0  0
    8.9960   -2.3380   25.5320 C   0  0  0  0  0  0  0  0  0  0  0  0
    9.6730   -3.4710   23.5300 C   0  0  0  0  0  0  0  0  0  0  0  0
   12.0646    2.8761   22.0718 C   0  0  0  0  0  0  0  0  0  0  0  0
   12.0506    4.2394   22.2689 C   0  0  0  0  0  0  0  0  0  0  0  0
   10.5394    3.0670   23.8153 C   0  0  0  0  0  0  0  0  0  0  0  0
    9.3350   -1.0880   23.5010 C   0  0  0  0  0  0  0  0  0  0  0  0
   11.1891    2.1969   22.9675 C   0  0  0  0  0  0  0  0  0  0  0  0
    5.8300    0.9190   18.6970 C   0  0  0  0  0  0  0  0  0  0  0  0
    6.1790    0.5730   19.9990 C   0  0  0  0  0  0  0  0  0  0  0  0
    9.3070   -3.5340   24.8780 C   0  0  0  0  0  0  0  0  0  0  0  0
    8.4227   -5.1089   26.6141 C   0  0  0  0  0  0  0  0  0  0  0  0
    9.0420    0.3700   21.5280 C   0  0  0  0  0  0  0  0  0  0  0  0
    8.4173   -7.5520   25.9532 C   0  0  0  0  0  0  0  0  0  0  0  0
   10.9980    0.6985   22.9845 C   0  0  0  0  0  0  0  0  0  0  0  0
    8.6900   -6.5411   27.0525 C   0  0  0  0  0  0  0  0  0  0  0  0
    9.4560    0.1560   22.8130 C   0  0  1  0  0  0  0  0  0  0  0  0
    6.7580    0.3810   17.8350 N   0  0  0  0  0  0  0  0  0  0  0  0
    7.6390   -0.2680   18.5410 N   0  0  0  0  0  0  0  0  0  0  0  0
    7.3170   -0.1610   19.8550 N   0  0  0  0  0  0  0  0  0  0  0  0
    9.2546   -4.7423   25.5437 N   0  0  0  0  0  0  0  0  0  0  0  0
    8.1890   -0.7180   20.8700 N   0  0  0  0  0  0  0  0  0  0  0  0
    7.5768   -4.4085   27.1603 O   0  0  0  0  0  0  0  0  0  0  0  0
    9.2690    1.4140   20.9380 O   0  0  0  0  0  0  0  0  0  0  0  0
   10.9853    4.6955   23.5296 S   0  0  0  0  0  0  0  0  0  0  0  0
    3.0136    2.6526   19.3908 H   0  0  0  0  0  0  0  0  0  0  0  0
    3.6480    2.0140   21.6821 H   0  0  0  0  0  0  0  0  0  0  0  0
    8.9202   -0.1986   25.4206 H   0  0  0  0  0  0  0  0  0  0  0  0
   10.0631   -2.2319   21.8252 H   0  0  0  0  0  0  0  0  0  0  0  0
    4.4042    1.9741   17.4524 H   0  0  0  0  0  0  0  0  0  0  0  0
    5.7089    0.6919   22.1150 H   0  0  0  0  0  0  0  0  0  0  0  0
    8.6898   -2.3534   26.5810 H   0  0  0  0  0  0  0  0  0  0  0  0
    9.9254   -4.3899   22.9914 H   0  0  0  0  0  0  0  0  0  0  0  0
   12.6757    2.3931   21.3198 H   0  0  0  0  0  0  0  0  0  0  0  0
   12.6155    4.9893   21.7334 H   0  0  0  0  0  0  0  0  0  0  0  0
    9.8247    2.8285   24.5908 H   0  0  0  0  0  0  0  0  0  0  0  0
    7.3765   -7.4970   25.6177 H   0  0  0  0  0  0  0  0  0  0  0  0
    8.6071   -8.5677   26.3139 H   0  0  0  0  0  0  0  0  0  0  0  0
    9.0598   -7.3717   25.0851 H   0  0  0  0  0  0  0  0  0  0  0  0
   11.6403    0.2667   22.2043 H   0  0  0  0  0  0  0  0  0  0  0  0
   11.3821    0.2882   23.9279 H   0  0  0  0  0  0  0  0  0  0  0  0
    9.7367   -6.6182   27.3685 H   0  0  0  0  0  0  0  0  0  0  0  0
    8.0565   -6.7633   27.9189 H   0  0  0  0  0  0  0  0  0  0  0  0
    8.9221    0.9705   23.4866 H   0  0  0  0  0  0  0  0  0  0  0  0
    9.9034   -5.4689   25.2194 H   0  0  0  0  0  0  0  0  0  0  0  0
    8.2712   -1.5583   21.1209 H   0  0  0  0  0  0  0  0  0  0  0  0
  1  2  1  0  0  0  0
  1  5  2  0  0  0  0
  2  6  2  0  0  0  0
  3  7  2  0  0  0  0
  3 12  1  0  0  0  0
  4  8  1  0  0  0  0
  4 12  2  0  0  0  0
  5 14  1  0  0  0  0
  6 15  1  0  0  0  0
  7 16  1  0  0  0  0
  8 16  2  0  0  0  0
  9 10  2  0  0  0  0
  9 13  1  0  0  0  0
 10 30  1  0  0  0  0
 11 13  2  0  0  0  0
 11 30  1  0  0  0  0
 12 22  1  0  0  0  0
 13 20  1  0  0  0  0
 14 15  2  0  0  0  0
 14 23  1  0  0  0  0
 15 25  1  0  0  0  0
 16 26  1  0  0  0  0
 17 21  1  0  0  0  0
 17 26  1  0  0  0  0
 17 28  2  0  0  0  0
 18 22  1  0  0  0  0
 18 27  1  0  0  0  0
 18 29  2  0  0  0  0
 19 21  1  0  0  0  0
 20 22  1  1  0  0  0
 23 24  2  0  0  0  0
 24 25  1  0  0  0  0
 25 27  1  0  0  0  0
  1 31  1  0  0  0  0
  2 32  1  0  0  0  0
  3 33  1  0  0  0  0
  4 34  1  0  0  0  0
  5 35  1  0  0  0  0
  6 36  1  0  0  0  0
  7 37  1  0  0  0  0
  8 38  1  0  0  0  0
  9 39  1  0  0  0  0
 10 40  1  0  0  0  0
 11 41  1  0  0  0  0
 19 42  1  0  0  0  0
 19 43  1  0  0  0  0
 19 44  1  0  0  0  0
 20 45  1  0  0  0  0
 20 46  1  0  0  0  0
 21 47  1  0  0  0  0
 21 48  1  0  0  0  0
 22 49  1  0  0  0  0
 26 50  1  0  0  0  0
 27 51  1  0  0  0  0
M  END
> <clash_score>
0.6426265378714453

> <docking_score>
-8.2940673828125

> <overlap_score>
0.9187832474708557

$$$$
BENZO_173_2
  -OEChem-08232013443D

 54 57  0     1  0  0  0  0  0999 V2000
   10.8333    5.0828   22.9771 C   0  0  0  0  0  0  0  0  0  0  0  0
   11.3431    4.2172   23.9447 C   0  0  0  0  0  0  0  0  0  0  0  0
    9.6829    4.7367   22.2682 C   0  0  0  0  0  0  0  0  0  0  0  0
    3.9160    2.0630   19.5520 C   0  0  0  0  0  0  0  0  0  0  0  0
    4.2750    1.7050   20.8490 C   0  0  0  0  0  0  0  0  0  0  0  0
   10.7027    3.0054   24.2034 C   0  0  0  0  0  0  0  0  0  0  0  0
    9.0424    3.5248   22.5269 C   0  0  0  0  0  0  0  0  0  0  0  0
    9.0720   -1.1280   24.8640 C   0  0  0  0  0  0  0  0  0  0  0  0
    9.7200   -2.2600   22.8630 C   0  0  0  0  0  0  0  0  0  0  0  0
    4.6890    1.6810   18.4640 C   0  0  0  0  0  0  0  0  0  0  0  0
    5.4210    0.9600   21.0930 C   0  0  0  0  0  0  0  0  0  0  0  0
    8.9960   -2.3380   25.5320 C   0  0  0  0  0  0  0  0  0  0  0  0
    9.6730   -3.4710   23.5300 C   0  0  0  0  0  0  0  0  0  0  0  0
    9.5523    2.6591   23.4945 C   0  0  0  0  0  0  0  0  0  0  0  0
    9.3350   -1.0880   23.5010 C   0  0  0  0  0  0  0  0  0  0  0  0
    5.8300    0.9190   18.6970 C   0  0  0  0  0  0  0  0  0  0  0  0
    6.1790    0.5730   19.9990 C   0  0  0  0  0  0  0  0  0  0  0  0
    9.3070   -3.5340   24.8780 C   0  0  0  0  0  0  0  0  0  0  0  0
    8.4227   -5.1089   26.6141 C   0  0  0  0  0  0  0  0  0  0  0  0
    9.0420    0.3700   21.5280 C   0  0  0  0  0  0  0  0  0  0  0  0
    8.4173   -7.5520   25.9532 C   0  0  0  0  0  0  0  0  0  0  0  0
    8.8584    1.3468   23.7740 C   0  0  0  0  0  0  0  0  0  0  0  0
    8.6900   -6.5411   27.0525 C   0  0  0  0  0  0  0  0  0  0  0  0
    9.4560    0.1560   22.8130 C   0  0  2  0  0  0  0  0  0  0  0  0
    6.7580    0.3810   17.8350 N   0  0  0  0  0  0  0  0  0  0  0  0
    7.6390   -0.2680   18.5410 N   0  0  0  0  0  0  0  0  0  0  0  0
    7.3170   -0.1610   19.8550 N   0  0  0  0  0  0  0  0  0  0  0  0
    9.2546   -4.7423   25.5437 N   0  0  0  0  0  0  0  0  0  0  0  0
    8.1890   -0.7180   20.8700 N   0  0  0  0  0  0  0  0  0  0  0  0
    7.5768   -4.4085   27.1603 O   0  0  0  0  0  0  0  0  0  0  0  0
    9.2690    1.4140   20.9380 O   0  0  0  0  0  0  0  0  0  0  0  0
   11.3313    6.0270   22.7767 H   0  0  0  0  0  0  0  0  0  0  0  0
   12.2382    4.4870   24.4976 H   0  0  0  0  0  0  0  0  0  0  0  0
    9.2850    5.4109   21.5155 H   0  0  0  0  0  0  0  0  0  0  0  0
    3.0136    2.6526   19.3908 H   0  0  0  0  0  0  0  0  0  0  0  0
    3.6480    2.0140   21.6821 H   0  0  0  0  0  0  0  0  0  0  0  0
   11.1072    2.3370   24.9590 H   0  0  0  0  0  0  0  0  0  0  0  0
    8.1468    3.2634   21.9695 H   0  0  0  0  0  0  0  0  0  0  0  0
    8.9202   -0.1986   25.4206 H   0  0  0  0  0  0  0  0  0  0  0  0
   10.0631   -2.2319   21.8252 H   0  0  0  0  0  0  0  0  0  0  0  0
    4.4042    1.9741   17.4524 H   0  0  0  0  0  0  0  0  0  0  0  0
    5.7089    0.6919   22.1150 H   0  0  0  0  0  0  0  0  0  0  0  0
    8.6898   -2.3534   26.5810 H   0  0  0  0  0  0  0  0  0  0  0  0
    9.9254   -4.3899   22.9914 H   0  0  0  0  0  0  0  0  0  0  0  0
    7.3765   -7.4970   25.6177 H   0  0  0  0  0  0  0  0  0  0  0  0
    8.6071   -8.5677   26.3139 H   0  0  0  0  0  0  0  0  0  0  0  0
    9.0598   -7.3717   25.0851 H   0  0  0  0  0  0  0  0  0  0  0  0
    8.9548    1.1352   24.8480 H   0  0  0  0  0  0  0  0  0  0  0  0
    7.7793    1.4560   23.6018 H   0  0  0  0  0  0  0  0  0  0  0  0
    9.7367   -6.6182   27.3685 H   0  0  0  0  0  0  0  0  0  0  0  0
    8.0565   -6.7633   27.9189 H   0  0  0  0  0  0  0  0  0  0  0  0
   10.5986    0.4624   22.8633 H   0  0  0  0  0  0  0  0  0  0  0  0
    9.9034   -5.4689   25.2194 H   0  0  0  0  0  0  0  0  0  0  0  0
    8.2712   -1.5583   21.1209 H   0  0  0  0  0  0  0  0  0  0  0  0
  1  2  1  0  0  0  0
  1  3  2  0  0  0  0
  2  6  2  0  0  0  0
  3  7  1  0  0  0  0
  4  5  1  0  0  0  0
  4 10  2  0  0  0  0
  5 11  2  0  0  0  0
  6 14  1  0  0  0  0
  7 14  2  0  0  0  0
  8 12  2  0  0  0  0
  8 15  1  0  0  0  0
  9 13  1  0  0  0  0
  9 15  2  0  0  0  0
 10 16  1  0  0  0  0
 11 17  1  0  0  0  0
 12 18  1  0  0  0  0
 13 18  2  0  0  0  0
 14 22  1  0  0  0  0
 15 24  1  0  0  0  0
 16 17  2  0  0  0  0
 16 25  1  0  0  0  0
 17 27  1  0  0  0  0
 18 28  1  0  0  0  0
 19 23  1  0  0  0  0
 19 28  1  0  0  0  0
 19 30  2  0  0  0  0
 20 24  1  0  0  0  0
 20 29  1  0  0  0  0
 20 31  2  0  0  0  0
 21 23  1  0  0  0  0
 22 24  1  6  0  0  0
 25 26  2  0  0  0  0
 26 27  1  0  0  0  0
 27 29  1  0  0  0  0
  1 32  1  0  0  0  0
  2 33  1  0  0  0  0
  3 34  1  0  0  0  0
  4 35  1  0  0  0  0
  5 36  1  0  0  0  0
  6 37  1  0  0  0  0
  7 38  1  0  0  0  0
  8 39  1  0  0  0  0
  9 40  1  0  0  0  0
 10 41  1  0  0  0  0
 11 42  1  0  0  0  0
 12 43  1  0  0  0  0
 13 44  1  0  0  0  0
 21 45  1  0  0  0  0
 21 46  1  0  0  0  0
 21 47  1  0  0  0  0
 22 48  1  0  0  0  0
 22 49  1  0  0  0  0
 23 50  1  0  0  0  0
 23 51  1  0  0  0  0
 24 52  1  0  0  0  0
 28 53  1  0  0  0  0
 29 54  1  0  0  0  0
M  END
> <clash_score>
0.6426265378714453

> <docking_score>
-6.2184295654296875

> <overlap_score>
0.8555611968040466

$$$$
BENZO_173_1
  -OEChem-08232013443D

 54 57  0     1  0  0  0  0  0999 V2000
   11.5406    4.9642   22.9363 C   0  0  0  0  0  0  0  0  0  0  0  0
   12.5552    4.1270   22.4723 C   0  0  0  0  0  0  0  0  0  0  0  0
   10.3502    4.4177   23.4160 C   0  0  0  0  0  0  0  0  0  0  0  0
    3.9160    2.0630   19.5520 C   0  0  0  0  0  0  0  0  0  0  0  0
    4.2750    1.7050   20.8490 C   0  0  0  0  0  0  0  0  0  0  0  0
   12.3795    2.7434   22.4879 C   0  0  0  0  0  0  0  0  0  0  0  0
   10.1745    3.0341   23.4316 C   0  0  0  0  0  0  0  0  0  0  0  0
    9.0720   -1.1280   24.8640 C   0  0  0  0  0  0  0  0  0  0  0  0
    9.7200   -2.2600   22.8630 C   0  0  0  0  0  0  0  0  0  0  0  0
    4.6890    1.6810   18.4640 C   0  0  0  0  0  0  0  0  0  0  0  0
    5.4210    0.9600   21.0930 C   0  0  0  0  0  0  0  0  0  0  0  0
    8.9960   -2.3380   25.5320 C   0  0  0  0  0  0  0  0  0  0  0  0
    9.6730   -3.4710   23.5300 C   0  0  0  0  0  0  0  0  0  0  0  0
   11.1891    2.1969   22.9675 C   0  0  0  0  0  0  0  0  0  0  0  0
    9.3350   -1.0880   23.5010 C   0  0  0  0  0  0  0  0  0  0  0  0
    5.8300    0.9190   18.6970 C   0  0  0  0  0  0  0  0  0  0  0  0
    6.1790    0.5730   19.9990 C   0  0  0  0  0  0  0  0  0  0  0  0
    9.3070   -3.5340   24.8780 C   0  0  0  0  0  0  0  0  0  0  0  0
    8.4227   -5.1089   26.6141 C   0  0  0  0  0  0  0  0  0  0  0  0
    9.0420    0.3700   21.5280 C   0  0  0  0  0  0  0  0  0  0  0  0
    8.4173   -7.5520   25.9532 C   0  0  0  0  0  0  0  0  0  0  0  0
   10.9980    0.6985   22.9845 C   0  0  0  0  0  0  0  0  0  0  0  0
    8.6900   -6.5411   27.0525 C   0  0  0  0  0  0  0  0  0  0  0  0
    9.4560    0.1560   22.8130 C   0  0  1  0  0  0  0  0  0  0  0  0
    6.7580    0.3810   17.8350 N   0  0  0  0  0  0  0  0  0  0  0  0
    7.6390   -0.2680   18.5410 N   0  0  0  0  0  0  0  0  0  0  0  0
    7.3170   -0.1610   19.8550 N   0  0  0  0  0  0  0  0  0  0  0  0
    9.2546   -4.7423   25.5437 N   0  0  0  0  0  0  0  0  0  0  0  0
    8.1890   -0.7180   20.8700 N   0  0  0  0  0  0  0  0  0  0  0  0
    7.5768   -4.4085   27.1603 O   0  0  0  0  0  0  0  0  0  0  0  0
    9.2690    1.4140   20.9380 O   0  0  0  0  0  0  0  0  0  0  0  0
   11.6782    6.0415   22.9253 H   0  0  0  0  0  0  0  0  0  0  0  0
   13.4826    4.5523   22.0998 H   0  0  0  0  0  0  0  0  0  0  0  0
    9.5605    5.0692   23.7783 H   0  0  0  0  0  0  0  0  0  0  0  0
    3.0136    2.6526   19.3908 H   0  0  0  0  0  0  0  0  0  0  0  0
    3.6480    2.0140   21.6821 H   0  0  0  0  0  0  0  0  0  0  0  0
   13.1754    2.0988   22.1242 H   0  0  0  0  0  0  0  0  0  0  0  0
    9.2436    2.6172   23.8070 H   0  0  0  0  0  0  0  0  0  0  0  0
    8.9202   -0.1986   25.4206 H   0  0  0  0  0  0  0  0  0  0  0  0
   10.0631   -2.2319   21.8252 H   0  0  0  0  0  0  0  0  0  0  0  0
    4.4042    1.9741   17.4524 H   0  0  0  0  0  0  0  0  0  0  0  0
    5.7089    0.6919   22.1150 H   0  0  0  0  0  0  0  0  0  0  0  0
    8.6898   -2.3534   26.5810 H   0  0  0  0  0  0  0  0  0  0  0  0
    9.9254   -4.3899   22.9914 H   0  0  0  0  0  0  0  0  0  0  0  0
    7.3765   -7.4970   25.6177 H   0  0  0  0  0  0  0  0  0  0  0  0
    8.6071   -8.5677   26.3139 H   0  0  0  0  0  0  0  0  0  0  0  0
    9.0598   -7.3717   25.0851 H   0  0  0  0  0  0  0  0  0  0  0  0
   11.6403    0.2667   22.2043 H   0  0  0  0  0  0  0  0  0  0  0  0
   11.3821    0.2882   23.9279 H   0  0  0  0  0  0  0  0  0  0  0  0
    9.7367   -6.6182   27.3685 H   0  0  0  0  0  0  0  0  0  0  0  0
    8.0565   -6.7633   27.9189 H   0  0  0  0  0  0  0  0  0  0  0  0
    8.9221    0.9705   23.4866 H   0  0  0  0  0  0  0  0  0  0  0  0
    9.9034   -5.4689   25.2194 H   0  0  0  0  0  0  0  0  0  0  0  0
    8.2712   -1.5583   21.1209 H   0  0  0  0  0  0  0  0  0  0  0  0
  1  2  1  0  0  0  0
  1  3  2  0  0  0  0
  2  6  2  0  0  0  0
  3  7  1  0  0  0  0
  4  5  1  0  0  0  0
  4 10  2  0  0  0  0
  5 11  2  0  0  0  0
  6 14  1  0  0  0  0
  7 14  2  0  0  0  0
  8 12  2  0  0  0  0
  8 15  1  0  0  0  0
  9 13  1  0  0  0  0
  9 15  2  0  0  0  0
 10 16  1  0  0  0  0
 11 17  1  0  0  0  0
 12 18  1  0  0  0  0
 13 18  2  0  0  0  0
 14 22  1  0  0  0  0
 15 24  1  0  0  0  0
 16 17  2  0  0  0  0
 16 25  1  0  0  0  0
 17 27  1  0  0  0  0
 18 28  1  0  0  0  0
 19 23  1  0  0  0  0
 19 28  1  0  0  0  0
 19 30  2  0  0  0  0
 20 24  1  0  0  0  0
 20 29  1  0  0  0  0
 20 31  2  0  0  0  0
 21 23  1  0  0  0  0
 22 24  1  1  0  0  0
 25 26  2  0  0  0  0
 26 27  1  0  0  0  0
 27 29  1  0  0  0  0
  1 32  1  0  0  0  0
  2 33  1  0  0  0  0
  3 34  1  0  0  0  0
  4 35  1  0  0  0  0
  5 36  1  0  0  0  0
  6 37  1  0  0  0  0
  7 38  1  0  0  0  0
  8 39  1  0  0  0  0
  9 40  1  0  0  0  0
 10 41  1  0  0  0  0
 11 42  1  0  0  0  0
 12 43  1  0  0  0  0
 13 44  1  0  0  0  0
 21 45  1  0  0  0  0
 21 46  1  0  0  0  0
 21 47  1  0  0  0  0
 22 48  1  0  0  0  0
 22 49  1  0  0  0  0
 23 50  1  0  0  0  0
 23 51  1  0  0  0  0
 24 52  1  0  0  0  0
 28 53  1  0  0  0  0
 29 54  1  0  0  0  0
M  END
> <clash_score>
0.6426265378714453

> <docking_score>
-9.011272430419922

> <overlap_score>
0.9300087094306946

$$$$
BENZO_172_2
  -OEChem-08232013443D

 51 54  0     1  0  0  0  0  0999 V2000
    3.9160    2.0630   19.5520 C   0  0  0  0  0  0  0  0  0  0  0  0
    4.2750    1.7050   20.8490 C   0  0  0  0  0  0  0  0  0  0  0  0
    9.0720   -1.1280   24.8640 C   0  0  0  0  0  0  0  0  0  0  0  0
    9.7200   -2.2600   22.8630 C   0  0  0  0  0  0  0  0  0  0  0  0
    4.6890    1.6810   18.4640 C   0  0  0  0  0  0  0  0  0  0  0  0
    5.4210    0.9600   21.0930 C   0  0  0  0  0  0  0  0  0  0  0  0
    8.9960   -2.3380   25.5320 C   0  0  0  0  0  0  0  0  0  0  0  0
    9.6730   -3.4710   23.5300 C   0  0  0  0  0  0  0  0  0  0  0  0
   10.9285    2.7711   23.1427 C   0  0  0  0  0  0  0  0  0  0  0  0
   11.3066    4.0806   22.9428 C   0  0  0  0  0  0  0  0  0  0  0  0
    8.9310    3.8875   23.5503 C   0  0  0  0  0  0  0  0  0  0  0  0
    9.3350   -1.0880   23.5010 C   0  0  0  0  0  0  0  0  0  0  0  0
    9.5523    2.6591   23.4945 C   0  0  0  0  0  0  0  0  0  0  0  0
    5.8300    0.9190   18.6970 C   0  0  0  0  0  0  0  0  0  0  0  0
    6.1790    0.5730   19.9990 C   0  0  0  0  0  0  0  0  0  0  0  0
    9.3070   -3.5340   24.8780 C   0  0  0  0  0  0  0  0  0  0  0  0
    8.4227   -5.1089   26.6141 C   0  0  0  0  0  0  0  0  0  0  0  0
    9.0420    0.3700   21.5280 C   0  0  0  0  0  0  0  0  0  0  0  0
    8.4173   -7.5520   25.9532 C   0  0  0  0  0  0  0  0  0  0  0  0
    8.8584    1.3468   23.7740 C   0  0  0  0  0  0  0  0  0  0  0  0
    8.6900   -6.5411   27.0525 C   0  0  0  0  0  0  0  0  0  0  0  0
    9.4560    0.1560   22.8130 C   0  0  2  0  0  0  0  0  0  0  0  0
    6.7580    0.3810   17.8350 N   0  0  0  0  0  0  0  0  0  0  0  0
    7.6390   -0.2680   18.5410 N   0  0  0  0  0  0  0  0  0  0  0  0
    7.3170   -0.1610   19.8550 N   0  0  0  0  0  0  0  0  0  0  0  0
    9.2546   -4.7423   25.5437 N   0  0  0  0  0  0  0  0  0  0  0  0
    8.1890   -0.7180   20.8700 N   0  0  0  0  0  0  0  0  0  0  0  0
    7.5768   -4.4085   27.1603 O   0  0  0  0  0  0  0  0  0  0  0  0
    9.2690    1.4140   20.9380 O   0  0  0  0  0  0  0  0  0  0  0  0
   10.0053    5.1683   23.1793 S   0  0  0  0  0  0  0  0  0  0  0  0
    3.0136    2.6526   19.3908 H   0  0  0  0  0  0  0  0  0  0  0  0
    3.6480    2.0140   21.6821 H   0  0  0  0  0  0  0  0  0  0  0  0
    8.9202   -0.1986   25.4206 H   0  0  0  0  0  0  0  0  0  0  0  0
   10.0631   -2.2319   21.8252 H   0  0  0  0  0  0  0  0  0  0  0  0
    4.4042    1.9741   17.4524 H   0  0  0  0  0  0  0  0  0  0  0  0
    5.7089    0.6919   22.1150 H   0  0  0  0  0  0  0  0  0  0  0  0
    8.6898   -2.3534   26.5810 H   0  0  0  0  0  0  0  0  0  0  0  0
    9.9254   -4.3899   22.9914 H   0  0  0  0  0  0  0  0  0  0  0  0
   11.6102    1.9362   23.0408 H   0  0  0  0  0  0  0  0  0  0  0  0
   12.2848    4.4506   22.6700 H   0  0  0  0  0  0  0  0  0  0  0  0
    7.8985    4.0985   23.7919 H   0  0  0  0  0  0  0  0  0  0  0  0
    7.3765   -7.4970   25.6177 H   0  0  0  0  0  0  0  0  0  0  0  0
    8.6071   -8.5677   26.3139 H   0  0  0  0  0  0  0  0  0  0  0  0
    9.0598   -7.3717   25.0851 H   0  0  0  0  0  0  0  0  0  0  0  0
    8.9548    1.1352   24.8480 H   0  0  0  0  0  0  0  0  0  0  0  0
    7.7793    1.4560   23.6018 H   0  0  0  0  0  0  0  0  0  0  0  0
    9.7367   -6.6182   27.3685 H   0  0  0  0  0  0  0  0  0  0  0  0
    8.0565   -6.7633   27.9189 H   0  0  0  0  0  0  0  0  0  0  0  0
   10.5986    0.4624   22.8633 H   0  0  0  0  0  0  0  0  0  0  0  0
    9.9034   -5.4689   25.2194 H   0  0  0  0  0  0  0  0  0  0  0  0
    8.2712   -1.5583   21.1209 H   0  0  0  0  0  0  0  0  0  0  0  0
  1  2  1  0  0  0  0
  1  5  2  0  0  0  0
  2  6  2  0  0  0  0
  3  7  2  0  0  0  0
  3 12  1  0  0  0  0
  4  8  1  0  0  0  0
  4 12  2  0  0  0  0
  5 14  1  0  0  0  0
  6 15  1  0  0  0  0
  7 16  1  0  0  0  0
  8 16  2  0  0  0  0
  9 10  2  0  0  0  0
  9 13  1  0  0  0  0
 10 30  1  0  0  0  0
 11 13  2  0  0  0  0
 11 30  1  0  0  0  0
 12 22  1  0  0  0  0
 13 20  1  0  0  0  0
 14 15  2  0  0  0  0
 14 23  1  0  0  0  0
 15 25  1  0  0  0  0
 16 26  1  0  0  0  0
 17 21  1  0  0  0  0
 17 26  1  0  0  0  0
 17 28  2  0  0  0  0
 18 22  1  0  0  0  0
 18 27  1  0  0  0  0
 18 29  2  0  0  0  0
 19 21  1  0  0  0  0
 20 22  1  6  0  0  0
 23 24  2  0  0  0  0
 24 25  1  0  0  0  0
 25 27  1  0  0  0  0
  1 31  1  0  0  0  0
  2 32  1  0  0  0  0
  3 33  1  0  0  0  0
  4 34  1  0  0  0  0
  5 35  1  0  0  0  0
  6 36  1  0  0  0  0
  7 37  1  0  0  0  0
  8 38  1  0  0  0  0
  9 39  1  0  0  0  0
 10 40  1  0  0  0  0
 11 41  1  0  0  0  0
 19 42  1  0  0  0  0
 19 43  1  0  0  0  0
 19 44  1  0  0  0  0
 20 45  1  0  0  0  0
 20 46  1  0  0  0  0
 21 47  1  0  0  0  0
 21 48  1  0  0  0  0
 22 49  1  0  0  0  0
 26 50  1  0  0  0  0
 27 51  1  0  0  0  0
M  END
> <clash_score>
0.6426265378714453

> <docking_score>
-7.432101249694824

> <overlap_score>
0.8706196546554565

$$$$
BENZO_174_2
  -OEChem-08232013443D

 54 57  0     1  0  0  0  0  0999 V2000
    3.9160    2.0630   19.5520 C   0  0  0  0  0  0  0  0  0  0  0  0
    4.2750    1.7050   20.8490 C   0  0  0  0  0  0  0  0  0  0  0  0
    9.6814    4.7377   22.2699 C   0  0  0  0  0  0  0  0  0  0  0  0
    9.0418    3.5253   22.5276 C   0  0  0  0  0  0  0  0  0  0  0  0
    9.0720   -1.1280   24.8640 C   0  0  0  0  0  0  0  0  0  0  0  0
    9.7200   -2.2600   22.8630 C   0  0  0  0  0  0  0  0  0  0  0  0
    4.6890    1.6810   18.4640 C   0  0  0  0  0  0  0  0  0  0  0  0
    5.4210    0.9600   21.0930 C   0  0  0  0  0  0  0  0  0  0  0  0
    8.9960   -2.3380   25.5320 C   0  0  0  0  0  0  0  0  0  0  0  0
    9.6730   -3.4710   23.5300 C   0  0  0  0  0  0  0  0  0  0  0  0
   10.8316    5.0840   22.9789 C   0  0  0  0  0  0  0  0  0  0  0  0
   10.7025    3.0055   24.2036 C   0  0  0  0  0  0  0  0  0  0  0  0
    9.3350   -1.0880   23.5010 C   0  0  0  0  0  0  0  0  0  0  0  0
    9.5523    2.6591   23.4945 C   0  0  0  0  0  0  0  0  0  0  0  0
    5.8300    0.9190   18.6970 C   0  0  0  0  0  0  0  0  0  0  0  0
    6.1790    0.5730   19.9990 C   0  0  0  0  0  0  0  0  0  0  0  0
    9.3070   -3.5340   24.8780 C   0  0  0  0  0  0  0  0  0  0  0  0
   11.3422    4.2179   23.9458 C   0  0  0  0  0  0  0  0  0  0  0  0
    8.4227   -5.1089   26.6141 C   0  0  0  0  0  0  0  0  0  0  0  0
    9.0420    0.3700   21.5280 C   0  0  0  0  0  0  0  0  0  0  0  0
    8.4173   -7.5520   25.9532 C   0  0  0  0  0  0  0  0  0  0  0  0
    8.8584    1.3468   23.7740 C   0  0  0  0  0  0  0  0  0  0  0  0
    8.6900   -6.5411   27.0525 C   0  0  0  0  0  0  0  0  0  0  0  0
    9.4560    0.1560   22.8130 C   0  0  2  0  0  0  0  0  0  0  0  0
    6.7580    0.3810   17.8350 N   0  0  0  0  0  0  0  0  0  0  0  0
    7.6390   -0.2680   18.5410 N   0  0  0  0  0  0  0  0  0  0  0  0
    7.3170   -0.1610   19.8550 N   0  0  0  0  0  0  0  0  0  0  0  0
    9.2546   -4.7423   25.5437 N   0  0  0  0  0  0  0  0  0  0  0  0
    8.1890   -0.7180   20.8700 N   0  0  0  0  0  0  0  0  0  0  0  0
    7.5768   -4.4085   27.1603 O   0  0  0  0  0  0  0  0  0  0  0  0
    9.2690    1.4140   20.9380 O   0  0  0  0  0  0  0  0  0  0  0  0
   12.7607    4.6463   24.8210 Cl  0  0  0  0  0  0  0  0  0  0  0  0
    3.0136    2.6526   19.3908 H   0  0  0  0  0  0  0  0  0  0  0  0
    3.6480    2.0140   21.6821 H   0  0  0  0  0  0  0  0  0  0  0  0
    9.2834    5.4119   21.5170 H   0  0  0  0  0  0  0  0  0  0  0  0
    8.1460    3.2636   21.9704 H   0  0  0  0  0  0  0  0  0  0  0  0
    8.9202   -0.1986   25.4206 H   0  0  0  0  0  0  0  0  0  0  0  0
   10.0631   -2.2319   21.8252 H   0  0  0  0  0  0  0  0  0  0  0  0
    4.4042    1.9741   17.4524 H   0  0  0  0  0  0  0  0  0  0  0  0
    5.7089    0.6919   22.1150 H   0  0  0  0  0  0  0  0  0  0  0  0
    8.6898   -2.3534   26.5810 H   0  0  0  0  0  0  0  0  0  0  0  0
    9.9254   -4.3899   22.9914 H   0  0  0  0  0  0  0  0  0  0  0  0
   11.3195    6.0324   22.7676 H   0  0  0  0  0  0  0  0  0  0  0  0
   11.0970    2.3265   24.9561 H   0  0  0  0  0  0  0  0  0  0  0  0
    7.3765   -7.4970   25.6177 H   0  0  0  0  0  0  0  0  0  0  0  0
    8.6071   -8.5677   26.3139 H   0  0  0  0  0  0  0  0  0  0  0  0
    9.0598   -7.3717   25.0851 H   0  0  0  0  0  0  0  0  0  0  0  0
    8.9548    1.1352   24.8480 H   0  0  0  0  0  0  0  0  0  0  0  0
    7.7793    1.4560   23.6018 H   0  0  0  0  0  0  0  0  0  0  0  0
    9.7367   -6.6182   27.3685 H   0  0  0  0  0  0  0  0  0  0  0  0
    8.0565   -6.7633   27.9189 H   0  0  0  0  0  0  0  0  0  0  0  0
   10.5986    0.4624   22.8633 H   0  0  0  0  0  0  0  0  0  0  0  0
    9.9034   -5.4689   25.2194 H   0  0  0  0  0  0  0  0  0  0  0  0
    8.2712   -1.5583   21.1209 H   0  0  0  0  0  0  0  0  0  0  0  0
  1  2  1  0  0  0  0
  1  7  2  0  0  0  0
  2  8  2  0  0  0  0
  3  4  2  0  0  0  0
  3 11  1  0  0  0  0
  4 14  1  0  0  0  0
  5  9  2  0  0  0  0
  5 13  1  0  0  0  0
  6 10  1  0  0  0  0
  6 13  2  0  0  0  0
  7 15  1  0  0  0  0
  8 16  1  0  0  0  0
  9 17  1  0  0  0  0
 10 17  2  0  0  0  0
 11 18  2  0  0  0  0
 12 14  2  0  0  0  0
 12 18  1  0  0  0  0
 13 24  1  0  0  0  0
 14 22  1  0  0  0  0
 15 16  2  0  0  0  0
 15 25  1  0  0  0  0
 16 27  1  0  0  0  0
 17 28  1  0  0  0  0
 18 32  1  0  0  0  0
 19 23  1  0  0  0  0
 19 28  1  0  0  0  0
 19 30  2  0  0  0  0
 20 24  1  0  0  0  0
 20 29  1  0  0  0  0
 20 31  2  0  0  0  0
 21 23  1  0  0  0  0
 22 24  1  6  0  0  0
 25 26  2  0  0  0  0
 26 27  1  0  0  0  0
 27 29  1  0  0  0  0
  1 33  1  0  0  0  0
  2 34  1  0  0  0  0
  3 35  1  0  0  0  0
  4 36  1  0  0  0  0
  5 37  1  0  0  0  0
  6 38  1  0  0  0  0
  7 39  1  0  0  0  0
  8 40  1  0  0  0  0
  9 41  1  0  0  0  0
 10 42  1  0  0  0  0
 11 43  1  0  0  0  0
 12 44  1  0  0  0  0
 21 45  1  0  0  0  0
 21 46  1  0  0  0  0
 21 47  1  0  0  0  0
 22 48  1  0  0  0  0
 22 49  1  0  0  0  0
 23 50  1  0  0  0  0
 23 51  1  0  0  0  0
 24 52  1  0  0  0  0
 28 53  1  0  0  0  0
 29 54  1  0  0  0  0
M  END
> <clash_score>
0.6426265378714453

> <docking_score>
-5.484872817993164

> <overlap_score>
0.8559088110923767

$$$$
BENZO_174_1
  -OEChem-08232013443D

 54 57  0     1  0  0  0  0  0999 V2000
    3.9160    2.0630   19.5520 C   0  0  0  0  0  0  0  0  0  0  0  0
    4.2750    1.7050   20.8490 C   0  0  0  0  0  0  0  0  0  0  0  0
   10.3511    4.4175   23.4183 C   0  0  0  0  0  0  0  0  0  0  0  0
   10.1749    3.0340   23.4326 C   0  0  0  0  0  0  0  0  0  0  0  0
    9.0720   -1.1280   24.8640 C   0  0  0  0  0  0  0  0  0  0  0  0
    9.7200   -2.2600   22.8630 C   0  0  0  0  0  0  0  0  0  0  0  0
    4.6890    1.6810   18.4640 C   0  0  0  0  0  0  0  0  0  0  0  0
    5.4210    0.9600   21.0930 C   0  0  0  0  0  0  0  0  0  0  0  0
    8.9960   -2.3380   25.5320 C   0  0  0  0  0  0  0  0  0  0  0  0
    9.6730   -3.4710   23.5300 C   0  0  0  0  0  0  0  0  0  0  0  0
   11.5416    4.9641   22.9388 C   0  0  0  0  0  0  0  0  0  0  0  0
   12.3796    2.7434   22.4881 C   0  0  0  0  0  0  0  0  0  0  0  0
    9.3350   -1.0880   23.5010 C   0  0  0  0  0  0  0  0  0  0  0  0
   11.1891    2.1969   22.9675 C   0  0  0  0  0  0  0  0  0  0  0  0
    5.8300    0.9190   18.6970 C   0  0  0  0  0  0  0  0  0  0  0  0
    6.1790    0.5730   19.9990 C   0  0  0  0  0  0  0  0  0  0  0  0
    9.3070   -3.5340   24.8780 C   0  0  0  0  0  0  0  0  0  0  0  0
   12.5558    4.1270   22.4738 C   0  0  0  0  0  0  0  0  0  0  0  0
    8.4227   -5.1089   26.6141 C   0  0  0  0  0  0  0  0  0  0  0  0
    9.0420    0.3700   21.5280 C   0  0  0  0  0  0  0  0  0  0  0  0
    8.4173   -7.5520   25.9532 C   0  0  0  0  0  0  0  0  0  0  0  0
   10.9980    0.6985   22.9845 C   0  0  0  0  0  0  0  0  0  0  0  0
    8.6900   -6.5411   27.0525 C   0  0  0  0  0  0  0  0  0  0  0  0
    9.4560    0.1560   22.8130 C   0  0  1  0  0  0  0  0  0  0  0  0
    6.7580    0.3810   17.8350 N   0  0  0  0  0  0  0  0  0  0  0  0
    7.6390   -0.2680   18.5410 N   0  0  0  0  0  0  0  0  0  0  0  0
    7.3170   -0.1610   19.8550 N   0  0  0  0  0  0  0  0  0  0  0  0
    9.2546   -4.7423   25.5437 N   0  0  0  0  0  0  0  0  0  0  0  0
    8.1890   -0.7180   20.8700 N   0  0  0  0  0  0  0  0  0  0  0  0
    7.5768   -4.4085   27.1603 O   0  0  0  0  0  0  0  0  0  0  0  0
    9.2690    1.4140   20.9380 O   0  0  0  0  0  0  0  0  0  0  0  0
   14.0247    4.8018   21.8834 Cl  0  0  0  0  0  0  0  0  0  0  0  0
    3.0136    2.6526   19.3908 H   0  0  0  0  0  0  0  0  0  0  0  0
    3.6480    2.0140   21.6821 H   0  0  0  0  0  0  0  0  0  0  0  0
    9.5612    5.0691   23.7807 H   0  0  0  0  0  0  0  0  0  0  0  0
    9.2441    2.6169   23.8081 H   0  0  0  0  0  0  0  0  0  0  0  0
    8.9202   -0.1986   25.4206 H   0  0  0  0  0  0  0  0  0  0  0  0
   10.0631   -2.2319   21.8252 H   0  0  0  0  0  0  0  0  0  0  0  0
    4.4042    1.9741   17.4524 H   0  0  0  0  0  0  0  0  0  0  0  0
    5.7089    0.6919   22.1150 H   0  0  0  0  0  0  0  0  0  0  0  0
    8.6898   -2.3534   26.5810 H   0  0  0  0  0  0  0  0  0  0  0  0
    9.9254   -4.3899   22.9914 H   0  0  0  0  0  0  0  0  0  0  0  0
   11.6651    6.0443   22.9339 H   0  0  0  0  0  0  0  0  0  0  0  0
   13.1671    2.0865   22.1261 H   0  0  0  0  0  0  0  0  0  0  0  0
    7.3765   -7.4970   25.6177 H   0  0  0  0  0  0  0  0  0  0  0  0
    8.6071   -8.5677   26.3139 H   0  0  0  0  0  0  0  0  0  0  0  0
    9.0598   -7.3717   25.0851 H   0  0  0  0  0  0  0  0  0  0  0  0
   11.6403    0.2667   22.2043 H   0  0  0  0  0  0  0  0  0  0  0  0
   11.3821    0.2882   23.9279 H   0  0  0  0  0  0  0  0  0  0  0  0
    9.7367   -6.6182   27.3685 H   0  0  0  0  0  0  0  0  0  0  0  0
    8.0565   -6.7633   27.9189 H   0  0  0  0  0  0  0  0  0  0  0  0
    8.9221    0.9705   23.4866 H   0  0  0  0  0  0  0  0  0  0  0  0
    9.9034   -5.4689   25.2194 H   0  0  0  0  0  0  0  0  0  0  0  0
    8.2712   -1.5583   21.1209 H   0  0  0  0  0  0  0  0  0  0  0  0
  1  2  1  0  0  0  0
  1  7  2  0  0  0  0
  2  8  2  0  0  0  0
  3  4  2  0  0  0  0
  3 11  1  0  0  0  0
  4 14  1  0  0  0  0
  5  9  2  0  0  0  0
  5 13  1  0  0  0  0
  6 10  1  0  0  0  0
  6 13  2  0  0  0  0
  7 15  1  0  0  0  0
  8 16  1  0  0  0  0
  9 17  1  0  0  0  0
 10 17  2  0  0  0  0
 11 18  2  0  0  0  0
 12 14  2  0  0  0  0
 12 18  1  0  0  0  0
 13 24  1  0  0  0  0
 14 22  1  0  0  0  0
 15 16  2  0  0  0  0
 15 25  1  0  0  0  0
 16 27  1  0  0  0  0
 17 28  1  0  0  0  0
 18 32  1  0  0  0  0
 19 23  1  0  0  0  0
 19 28  1  0  0  0  0
 19 30  2  0  0  0  0
 20 24  1  0  0  0  0
 20 29  1  0  0  0  0
 20 31  2  0  0  0  0
 21 23  1  0  0  0  0
 22 24  1  1  0  0  0
 25 26  2  0  0  0  0
 26 27  1  0  0  0  0
 27 29  1  0  0  0  0
  1 33  1  0  0  0  0
  2 34  1  0  0  0  0
  3 35  1  0  0  0  0
  4 36  1  0  0  0  0
  5 37  1  0  0  0  0
  6 38  1  0  0  0  0
  7 39  1  0  0  0  0
  8 40  1  0  0  0  0
  9 41  1  0  0  0  0
 10 42  1  0  0  0  0
 11 43  1  0  0  0  0
 12 44  1  0  0  0  0
 21 45  1  0  0  0  0
 21 46  1  0  0  0  0
 21 47  1  0  0  0  0
 22 48  1  0  0  0  0
 22 49  1  0  0  0  0
 23 50  1  0  0  0  0
 23 51  1  0  0  0  0
 24 52  1  0  0  0  0
 28 53  1  0  0  0  0
 29 54  1  0  0  0  0
M  END
> <clash_score>
0.6426265378714453

> <docking_score>
-9.280182838439941

> <overlap_score>
0.930821418762207

$$$$
BENZO_175_2
  -OEChem-08232013443D

 54 57  0     1  0  0  0  0  0999 V2000
    3.9160    2.0630   19.5520 C   0  0  0  0  0  0  0  0  0  0  0  0
    4.2750    1.7050   20.8490 C   0  0  0  0  0  0  0  0  0  0  0  0
    9.0720   -1.1280   24.8640 C   0  0  0  0  0  0  0  0  0  0  0  0
    9.7200   -2.2600   22.8630 C   0  0  0  0  0  0  0  0  0  0  0  0
    4.6890    1.6810   18.4640 C   0  0  0  0  0  0  0  0  0  0  0  0
    5.4210    0.9600   21.0930 C   0  0  0  0  0  0  0  0  0  0  0  0
    8.9960   -2.3380   25.5320 C   0  0  0  0  0  0  0  0  0  0  0  0
    9.6730   -3.4710   23.5300 C   0  0  0  0  0  0  0  0  0  0  0  0
   10.8722    2.8605   23.0481 C   0  0  0  0  0  0  0  0  0  0  0  0
    9.0344    3.9253   23.6169 C   0  0  0  0  0  0  0  0  0  0  0  0
    9.3350   -1.0880   23.5010 C   0  0  0  0  0  0  0  0  0  0  0  0
    9.5523    2.6591   23.4945 C   0  0  0  0  0  0  0  0  0  0  0  0
    5.8300    0.9190   18.6970 C   0  0  0  0  0  0  0  0  0  0  0  0
    6.1790    0.5730   19.9990 C   0  0  0  0  0  0  0  0  0  0  0  0
    9.3070   -3.5340   24.8780 C   0  0  0  0  0  0  0  0  0  0  0  0
    8.4227   -5.1089   26.6141 C   0  0  0  0  0  0  0  0  0  0  0  0
    9.0420    0.3700   21.5280 C   0  0  0  0  0  0  0  0  0  0  0  0
    8.4173   -7.5520   25.9532 C   0  0  0  0  0  0  0  0  0  0  0  0
    9.9673    6.2162   23.2165 C   0  0  0  0  0  0  0  0  0  0  0  0
    8.8584    1.3468   23.7740 C   0  0  0  0  0  0  0  0  0  0  0  0
    8.6900   -6.5411   27.0525 C   0  0  0  0  0  0  0  0  0  0  0  0
    9.4560    0.1560   22.8130 C   0  0  2  0  0  0  0  0  0  0  0  0
   11.1739    4.1528   22.8970 N   0  0  0  0  0  0  0  0  0  0  0  0
    6.7580    0.3810   17.8350 N   0  0  0  0  0  0  0  0  0  0  0  0
    7.6390   -0.2680   18.5410 N   0  0  0  0  0  0  0  0  0  0  0  0
   10.0363    4.7750   23.2503 N   0  0  0  0  0  0  0  0  0  0  0  0
    7.3170   -0.1610   19.8550 N   0  0  0  0  0  0  0  0  0  0  0  0
    9.2546   -4.7423   25.5437 N   0  0  0  0  0  0  0  0  0  0  0  0
    8.1890   -0.7180   20.8700 N   0  0  0  0  0  0  0  0  0  0  0  0
    7.5768   -4.4085   27.1603 O   0  0  0  0  0  0  0  0  0  0  0  0
    9.2690    1.4140   20.9380 O   0  0  0  0  0  0  0  0  0  0  0  0
    3.0136    2.6526   19.3908 H   0  0  0  0  0  0  0  0  0  0  0  0
    3.6480    2.0140   21.6821 H   0  0  0  0  0  0  0  0  0  0  0  0
    8.9202   -0.1986   25.4206 H   0  0  0  0  0  0  0  0  0  0  0  0
   10.0631   -2.2319   21.8252 H   0  0  0  0  0  0  0  0  0  0  0  0
    4.4042    1.9741   17.4524 H   0  0  0  0  0  0  0  0  0  0  0  0
    5.7089    0.6919   22.1150 H   0  0  0  0  0  0  0  0  0  0  0  0
    8.6898   -2.3534   26.5810 H   0  0  0  0  0  0  0  0  0  0  0  0
    9.9254   -4.3899   22.9914 H   0  0  0  0  0  0  0  0  0  0  0  0
   11.6282    2.1210   22.8251 H   0  0  0  0  0  0  0  0  0  0  0  0
    8.0619    4.2851   23.9247 H   0  0  0  0  0  0  0  0  0  0  0  0
    7.3765   -7.4970   25.6177 H   0  0  0  0  0  0  0  0  0  0  0  0
    8.6071   -8.5677   26.3139 H   0  0  0  0  0  0  0  0  0  0  0  0
    9.0598   -7.3717   25.0851 H   0  0  0  0  0  0  0  0  0  0  0  0
   10.2790    6.5919   24.1946 H   0  0  0  0  0  0  0  0  0  0  0  0
   10.6299    6.5942   22.4329 H   0  0  0  0  0  0  0  0  0  0  0  0
    8.9411    6.5238   22.9968 H   0  0  0  0  0  0  0  0  0  0  0  0
    8.9548    1.1352   24.8480 H   0  0  0  0  0  0  0  0  0  0  0  0
    7.7793    1.4560   23.6018 H   0  0  0  0  0  0  0  0  0  0  0  0
    9.7367   -6.6182   27.3685 H   0  0  0  0  0  0  0  0  0  0  0  0
    8.0565   -6.7633   27.9189 H   0  0  0  0  0  0  0  0  0  0  0  0
   10.5986    0.4624   22.8633 H   0  0  0  0  0  0  0  0  0  0  0  0
    9.9034   -5.4689   25.2194 H   0  0  0  0  0  0  0  0  0  0  0  0
    8.2712   -1.5583   21.1209 H   0  0  0  0  0  0  0  0  0  0  0  0
  1  2  1  0  0  0  0
  1  5  2  0  0  0  0
  2  6  2  0  0  0  0
  3  7  2  0  0  0  0
  3 11  1  0  0  0  0
  4  8  1  0  0  0  0
  4 11  2  0  0  0  0
  5 13  1  0  0  0  0
  6 14  1  0  0  0  0
  7 15  1  0  0  0  0
  8 15  2  0  0  0  0
  9 12  1  0  0  0  0
  9 23  2  0  0  0  0
 10 12  2  0  0  0  0
 10 26  1  0  0  0  0
 11 22  1  0  0  0  0
 12 20  1  0  0  0  0
 13 14  2  0  0  0  0
 13 24  1  0  0  0  0
 14 27  1  0  0  0  0
 15 28  1  0  0  0  0
 16 21  1  0  0  0  0
 16 28  1  0  0  0  0
 16 30  2  0  0  0  0
 17 22  1  0  0  0  0
 17 29  1  0  0  0  0
 17 31  2  0  0  0  0
 18 21  1  0  0  0  0
 19 26  1  0  0  0  0
 20 22  1  6  0  0  0
 23 26  1  0  0  0  0
 24 25  2  0  0  0  0
 25 27  1  0  0  0  0
 27 29  1  0  0  0  0
  1 32  1  0  0  0  0
  2 33  1  0  0  0  0
  3 34  1  0  0  0  0
  4 35  1  0  0  0  0
  5 36  1  0  0  0  0
  6 37  1  0  0  0  0
  7 38  1  0  0  0  0
  8 39  1  0  0  0  0
  9 40  1  0  0  0  0
 10 41  1  0  0  0  0
 18 42  1  0  0  0  0
 18 43  1  0  0  0  0
 18 44  1  0  0  0  0
 19 45  1  0  0  0  0
 19 46  1  0  0  0  0
 19 47  1  0  0  0  0
 20 48  1  0  0  0  0
 20 49  1  0  0  0  0
 21 50  1  0  0  0  0
 21 51  1  0  0  0  0
 22 52  1  0  0  0  0
 28 53  1  0  0  0  0
 29 54  1  0  0  0  0
M  END
> <clash_score>
0.6426265378714453

> <docking_score>
-7.730874061584473

> <overlap_score>
0.8653106689453125

$$$$
BENZO_175_1
  -OEChem-08232013443D

 54 57  0     1  0  0  0  0  0999 V2000
    3.9160    2.0630   19.5520 C   0  0  0  0  0  0  0  0  0  0  0  0
    4.2750    1.7050   20.8490 C   0  0  0  0  0  0  0  0  0  0  0  0
    9.0720   -1.1280   24.8640 C   0  0  0  0  0  0  0  0  0  0  0  0
    9.7200   -2.2600   22.8630 C   0  0  0  0  0  0  0  0  0  0  0  0
    4.6890    1.6810   18.4640 C   0  0  0  0  0  0  0  0  0  0  0  0
    5.4210    0.9600   21.0930 C   0  0  0  0  0  0  0  0  0  0  0  0
    8.9960   -2.3380   25.5320 C   0  0  0  0  0  0  0  0  0  0  0  0
    9.6730   -3.4710   23.5300 C   0  0  0  0  0  0  0  0  0  0  0  0
   10.2850    3.1879   23.3945 C   0  0  0  0  0  0  0  0  0  0  0  0
   12.2874    2.8981   22.5336 C   0  0  0  0  0  0  0  0  0  0  0  0
    9.3350   -1.0880   23.5010 C   0  0  0  0  0  0  0  0  0  0  0  0
   11.1891    2.1969   22.9675 C   0  0  0  0  0  0  0  0  0  0  0  0
    5.8300    0.9190   18.6970 C   0  0  0  0  0  0  0  0  0  0  0  0
    6.1790    0.5730   19.9990 C   0  0  0  0  0  0  0  0  0  0  0  0
    9.3070   -3.5340   24.8780 C   0  0  0  0  0  0  0  0  0  0  0  0
    8.4227   -5.1089   26.6141 C   0  0  0  0  0  0  0  0  0  0  0  0
    9.0420    0.3700   21.5280 C   0  0  0  0  0  0  0  0  0  0  0  0
    8.4173   -7.5520   25.9532 C   0  0  0  0  0  0  0  0  0  0  0  0
   12.8361    5.3400   22.4104 C   0  0  0  0  0  0  0  0  0  0  0  0
   10.9980    0.6985   22.9845 C   0  0  0  0  0  0  0  0  0  0  0  0
    8.6900   -6.5411   27.0525 C   0  0  0  0  0  0  0  0  0  0  0  0
    9.4560    0.1560   22.8130 C   0  0  1  0  0  0  0  0  0  0  0  0
   10.7672    4.4245   23.2454 N   0  0  0  0  0  0  0  0  0  0  0  0
    6.7580    0.3810   17.8350 N   0  0  0  0  0  0  0  0  0  0  0  0
    7.6390   -0.2680   18.5410 N   0  0  0  0  0  0  0  0  0  0  0  0
   11.9863    4.2152   22.7200 N   0  0  0  0  0  0  0  0  0  0  0  0
    7.3170   -0.1610   19.8550 N   0  0  0  0  0  0  0  0  0  0  0  0
    9.2546   -4.7423   25.5437 N   0  0  0  0  0  0  0  0  0  0  0  0
    8.1890   -0.7180   20.8700 N   0  0  0  0  0  0  0  0  0  0  0  0
    7.5768   -4.4085   27.1603 O   0  0  0  0  0  0  0  0  0  0  0  0
    9.2690    1.4140   20.9380 O   0  0  0  0  0  0  0  0  0  0  0  0
    3.0136    2.6526   19.3908 H   0  0  0  0  0  0  0  0  0  0  0  0
    3.6480    2.0140   21.6821 H   0  0  0  0  0  0  0  0  0  0  0  0
    8.9202   -0.1986   25.4206 H   0  0  0  0  0  0  0  0  0  0  0  0
   10.0631   -2.2319   21.8252 H   0  0  0  0  0  0  0  0  0  0  0  0
    4.4042    1.9741   17.4524 H   0  0  0  0  0  0  0  0  0  0  0  0
    5.7089    0.6919   22.1150 H   0  0  0  0  0  0  0  0  0  0  0  0
    8.6898   -2.3534   26.5810 H   0  0  0  0  0  0  0  0  0  0  0  0
    9.9254   -4.3899   22.9914 H   0  0  0  0  0  0  0  0  0  0  0  0
    9.2947    3.0629   23.8091 H   0  0  0  0  0  0  0  0  0  0  0  0
   13.2346    2.5800   22.1195 H   0  0  0  0  0  0  0  0  0  0  0  0
    7.3765   -7.4970   25.6177 H   0  0  0  0  0  0  0  0  0  0  0  0
    8.6071   -8.5677   26.3139 H   0  0  0  0  0  0  0  0  0  0  0  0
    9.0598   -7.3717   25.0851 H   0  0  0  0  0  0  0  0  0  0  0  0
   12.6295    5.6456   21.3814 H   0  0  0  0  0  0  0  0  0  0  0  0
   12.6226    6.1591   23.1027 H   0  0  0  0  0  0  0  0  0  0  0  0
   13.8829    5.0428   22.5193 H   0  0  0  0  0  0  0  0  0  0  0  0
   11.6403    0.2667   22.2043 H   0  0  0  0  0  0  0  0  0  0  0  0
   11.3821    0.2882   23.9279 H   0  0  0  0  0  0  0  0  0  0  0  0
    9.7367   -6.6182   27.3685 H   0  0  0  0  0  0  0  0  0  0  0  0
    8.0565   -6.7633   27.9189 H   0  0  0  0  0  0  0  0  0  0  0  0
    8.9221    0.9705   23.4866 H   0  0  0  0  0  0  0  0  0  0  0  0
    9.9034   -5.4689   25.2194 H   0  0  0  0  0  0  0  0  0  0  0  0
    8.2712   -1.5583   21.1209 H   0  0  0  0  0  0  0  0  0  0  0  0
  1  2  1  0  0  0  0
  1  5  2  0  0  0  0
  2  6  2  0  0  0  0
  3  7  2  0  0  0  0
  3 11  1  0  0  0  0
  4  8  1  0  0  0  0
  4 11  2  0  0  0  0
  5 13  1  0  0  0  0
  6 14  1  0  0  0  0
  7 15  1  0  0  0  0
  8 15  2  0  0  0  0
  9 12  1  0  0  0  0
  9 23  2  0  0  0  0
 10 12  2  0  0  0  0
 10 26  1  0  0  0  0
 11 22  1  0  0  0  0
 12 20  1  0  0  0  0
 13 14  2  0  0  0  0
 13 24  1  0  0  0  0
 14 27  1  0  0  0  0
 15 28  1  0  0  0  0
 16 21  1  0  0  0  0
 16 28  1  0  0  0  0
 16 30  2  0  0  0  0
 17 22  1  0  0  0  0
 17 29  1  0  0  0  0
 17 31  2  0  0  0  0
 18 21  1  0  0  0  0
 19 26  1  0  0  0  0
 20 22  1  1  0  0  0
 23 26  1  0  0  0  0
 24 25  2  0  0  0  0
 25 27  1  0  0  0  0
 27 29  1  0  0  0  0
  1 32  1  0  0  0  0
  2 33  1  0  0  0  0
  3 34  1  0  0  0  0
  4 35  1  0  0  0  0
  5 36  1  0  0  0  0
  6 37  1  0  0  0  0
  7 38  1  0  0  0  0
  8 39  1  0  0  0  0
  9 40  1  0  0  0  0
 10 41  1  0  0  0  0
 18 42  1  0  0  0  0
 18 43  1  0  0  0  0
 18 44  1  0  0  0  0
 19 45  1  0  0  0  0
 19 46  1  0  0  0  0
 19 47  1  0  0  0  0
 20 48  1  0  0  0  0
 20 49  1  0  0  0  0
 21 50  1  0  0  0  0
 21 51  1  0  0  0  0
 22 52  1  0  0  0  0
 28 53  1  0  0  0  0
 29 54  1  0  0  0  0
M  END
> <clash_score>
0.6426265378714453

> <docking_score>
-8.91082763671875

> <overlap_score>
0.9266831278800964

$$$$
BENZO_177_1
  -OEChem-08232013443D

 59 63  0     1  0  0  0  0  0999 V2000
   10.8376    5.0659   22.8578 C   0  0  0  0  0  0  0  0  0  0  0  0
   11.3489    4.2229   23.8444 C   0  0  0  0  0  0  0  0  0  0  0  0
    9.6822    4.7067   22.1636 C   0  0  0  0  0  0  0  0  0  0  0  0
    3.9160    2.0630   19.5520 C   0  0  0  0  0  0  0  0  0  0  0  0
    4.2750    1.7050   20.8490 C   0  0  0  0  0  0  0  0  0  0  0  0
   10.7049    3.0206   24.1368 C   0  0  0  0  0  0  0  0  0  0  0  0
    9.0382    3.5045   22.4561 C   0  0  0  0  0  0  0  0  0  0  0  0
    9.0720   -1.1280   24.8640 C   0  0  0  0  0  0  0  0  0  0  0  0
    9.7200   -2.2600   22.8630 C   0  0  0  0  0  0  0  0  0  0  0  0
    4.6890    1.6810   18.4640 C   0  0  0  0  0  0  0  0  0  0  0  0
    5.4210    0.9600   21.0930 C   0  0  0  0  0  0  0  0  0  0  0  0
    8.9960   -2.3380   25.5320 C   0  0  0  0  0  0  0  0  0  0  0  0
    9.6730   -3.4710   23.5300 C   0  0  0  0  0  0  0  0  0  0  0  0
    9.5496    2.6614   23.4427 C   0  0  0  0  0  0  0  0  0  0  0  0
    9.3350   -1.0880   23.5010 C   0  0  0  0  0  0  0  0  0  0  0  0
    5.8300    0.9190   18.6970 C   0  0  0  0  0  0  0  0  0  0  0  0
    6.1790    0.5730   19.9990 C   0  0  0  0  0  0  0  0  0  0  0  0
    9.3070   -3.5340   24.8780 C   0  0  0  0  0  0  0  0  0  0  0  0
    9.0420    0.3700   21.5280 C   0  0  0  0  0  0  0  0  0  0  0  0
    7.2237   -6.6201   26.3005 C   0  0  0  0  0  0  0  0  0  0  0  0
    7.4295   -5.3104   27.0650 C   0  0  0  0  0  0  0  0  0  0  0  0
    7.7218   -6.5099   24.8576 C   0  0  0  0  0  0  0  0  0  0  0  0
    8.8783   -4.8360   26.9547 C   0  0  0  0  0  0  0  0  0  0  0  0
    9.1653   -6.0007   24.7991 C   0  0  0  0  0  0  0  0  0  0  0  0
    8.8518    1.3594   23.7587 C   0  0  0  0  0  0  0  0  0  0  0  0
    9.4560    0.1560   22.8130 C   0  0  1  0  0  0  0  0  0  0  0  0
    6.7580    0.3810   17.8350 N   0  0  0  0  0  0  0  0  0  0  0  0
    7.6390   -0.2680   18.5410 N   0  0  0  0  0  0  0  0  0  0  0  0
    7.3170   -0.1610   19.8550 N   0  0  0  0  0  0  0  0  0  0  0  0
    9.2563   -4.7385   25.5420 N   0  0  0  0  0  0  0  0  0  0  0  0
    8.1890   -0.7180   20.8700 N   0  0  0  0  0  0  0  0  0  0  0  0
    9.2690    1.4140   20.9380 O   0  0  0  0  0  0  0  0  0  0  0  0
   11.3383    6.0026   22.6311 H   0  0  0  0  0  0  0  0  0  0  0  0
   12.2479    4.5029   24.3857 H   0  0  0  0  0  0  0  0  0  0  0  0
    9.2832    5.3633   21.3962 H   0  0  0  0  0  0  0  0  0  0  0  0
    3.0136    2.6526   19.3908 H   0  0  0  0  0  0  0  0  0  0  0  0
    3.6480    2.0140   21.6821 H   0  0  0  0  0  0  0  0  0  0  0  0
   11.1107    2.3699   24.9070 H   0  0  0  0  0  0  0  0  0  0  0  0
    8.1387    3.2328   21.9100 H   0  0  0  0  0  0  0  0  0  0  0  0
    8.9214   -0.1986   25.4206 H   0  0  0  0  0  0  0  0  0  0  0  0
   10.0622   -2.2326   21.8251 H   0  0  0  0  0  0  0  0  0  0  0  0
    4.4042    1.9741   17.4524 H   0  0  0  0  0  0  0  0  0  0  0  0
    5.7089    0.6919   22.1150 H   0  0  0  0  0  0  0  0  0  0  0  0
    8.6882   -2.3542   26.5803 H   0  0  0  0  0  0  0  0  0  0  0  0
    9.9258   -4.3896   22.9914 H   0  0  0  0  0  0  0  0  0  0  0  0
    7.7561   -7.4351   26.8143 H   0  0  0  0  0  0  0  0  0  0  0  0
    6.1574   -6.8886   26.3051 H   0  0  0  0  0  0  0  0  0  0  0  0
    6.7603   -4.5438   26.6651 H   0  0  0  0  0  0  0  0  0  0  0  0
    7.1686   -5.4557   28.1153 H   0  0  0  0  0  0  0  0  0  0  0  0
    7.6596   -7.4899   24.3731 H   0  0  0  0  0  0  0  0  0  0  0  0
    7.0707   -5.8316   24.2940 H   0  0  0  0  0  0  0  0  0  0  0  0
    8.9682   -3.8625   27.4435 H   0  0  0  0  0  0  0  0  0  0  0  0
    9.5389   -5.5394   27.4694 H   0  0  0  0  0  0  0  0  0  0  0  0
    9.8375   -6.7414   25.2339 H   0  0  0  0  0  0  0  0  0  0  0  0
    9.4414   -5.8513   23.7549 H   0  0  0  0  0  0  0  0  0  0  0  0
    8.9481    1.1774   24.8382 H   0  0  0  0  0  0  0  0  0  0  0  0
    7.7730    1.4670   23.5839 H   0  0  0  0  0  0  0  0  0  0  0  0
   10.5990    0.4745   22.8590 H   0  0  0  0  0  0  0  0  0  0  0  0
    8.2487   -1.5564   21.0972 H   0  0  0  0  0  0  0  0  0  0  0  0
  1  2  1  0  0  0  0
  1  3  2  0  0  0  0
  2  6  2  0  0  0  0
  3  7  1  0  0  0  0
  4  5  1  0  0  0  0
  4 10  2  0  0  0  0
  5 11  2  0  0  0  0
  6 14  1  0  0  0  0
  7 14  2  0  0  0  0
  8 12  2  0  0  0  0
  8 15  1  0  0  0  0
  9 13  1  0  0  0  0
  9 15  2  0  0  0  0
 10 16  1  0  0  0  0
 11 17  1  0  0  0  0
 12 18  1  0  0  0  0
 13 18  2  0  0  0  0
 14 25  1  0  0  0  0
 15 26  1  0  0  0  0
 16 17  2  0  0  0  0
 16 27  1  0  0  0  0
 17 29  1  0  0  0  0
 18 30  1  0  0  0  0
 19 26  1  1  0  0  0
 19 31  1  0  0  0  0
 19 32  2  0  0  0  0
 20 21  1  0  0  0  0
 20 22  1  0  0  0  0
 21 23  1  0  0  0  0
 22 24  1  0  0  0  0
 23 30  1  0  0  0  0
 24 30  1  0  0  0  0
 25 26  1  0  0  0  0
 27 28  2  0  0  0  0
 28 29  1  0  0  0  0
 29 31  1  0  0  0  0
  1 33  1  0  0  0  0
  2 34  1  0  0  0  0
  3 35  1  0  0  0  0
  4 36  1  0  0  0  0
  5 37  1  0  0  0  0
  6 38  1  0  0  0  0
  7 39  1  0  0  0  0
  8 40  1  0  0  0  0
  9 41  1  0  0  0  0
 10 42  1  0  0  0  0
 11 43  1  0  0  0  0
 12 44  1  0  0  0  0
 13 45  1  0  0  0  0
 20 46  1  0  0  0  0
 20 47  1  0  0  0  0
 21 48  1  0  0  0  0
 21 49  1  0  0  0  0
 22 50  1  0  0  0  0
 22 51  1  0  0  0  0
 23 52  1  0  0  0  0
 23 53  1  0  0  0  0
 24 54  1  0  0  0  0
 24 55  1  0  0  0  0
 25 56  1  0  0  0  0
 25 57  1  0  0  0  0
 26 58  1  0  0  0  0
 31 59  1  0  0  0  0
M  END
> <clash_score>
0.6129039234413879

> <docking_score>
-6.7470502853393555

> <overlap_score>
0.8740067481994629

$$$$
BENZO_176_1
  -OEChem-08232013443D

 56 60  0     1  0  0  0  0  0999 V2000
    3.9160    2.0630   19.5520 C   0  0  0  0  0  0  0  0  0  0  0  0
    4.2750    1.7050   20.8490 C   0  0  0  0  0  0  0  0  0  0  0  0
    9.0720   -1.1280   24.8640 C   0  0  0  0  0  0  0  0  0  0  0  0
    9.7200   -2.2600   22.8630 C   0  0  0  0  0  0  0  0  0  0  0  0
    4.6890    1.6810   18.4640 C   0  0  0  0  0  0  0  0  0  0  0  0
    5.4210    0.9600   21.0930 C   0  0  0  0  0  0  0  0  0  0  0  0
    8.9960   -2.3380   25.5320 C   0  0  0  0  0  0  0  0  0  0  0  0
    9.6730   -3.4710   23.5300 C   0  0  0  0  0  0  0  0  0  0  0  0
   10.9259    2.7594   23.0875 C   0  0  0  0  0  0  0  0  0  0  0  0
   11.3079    4.0616   22.8512 C   0  0  0  0  0  0  0  0  0  0  0  0
    8.9320    3.8927   23.4646 C   0  0  0  0  0  0  0  0  0  0  0  0
    9.3350   -1.0880   23.5010 C   0  0  0  0  0  0  0  0  0  0  0  0
    9.5496    2.6614   23.4427 C   0  0  0  0  0  0  0  0  0  0  0  0
    5.8300    0.9190   18.6970 C   0  0  0  0  0  0  0  0  0  0  0  0
    6.1790    0.5730   19.9990 C   0  0  0  0  0  0  0  0  0  0  0  0
    9.3070   -3.5340   24.8780 C   0  0  0  0  0  0  0  0  0  0  0  0
    9.0420    0.3700   21.5280 C   0  0  0  0  0  0  0  0  0  0  0  0
    7.2237   -6.6201   26.3005 C   0  0  0  0  0  0  0  0  0  0  0  0
    7.4295   -5.3104   27.0650 C   0  0  0  0  0  0  0  0  0  0  0  0
    7.7218   -6.5099   24.8576 C   0  0  0  0  0  0  0  0  0  0  0  0
    8.8783   -4.8360   26.9547 C   0  0  0  0  0  0  0  0  0  0  0  0
    9.1653   -6.0007   24.7991 C   0  0  0  0  0  0  0  0  0  0  0  0
    8.8518    1.3594   23.7587 C   0  0  0  0  0  0  0  0  0  0  0  0
    9.4560    0.1560   22.8130 C   0  0  1  0  0  0  0  0  0  0  0  0
    6.7580    0.3810   17.8350 N   0  0  0  0  0  0  0  0  0  0  0  0
    7.6390   -0.2680   18.5410 N   0  0  0  0  0  0  0  0  0  0  0  0
    7.3170   -0.1610   19.8550 N   0  0  0  0  0  0  0  0  0  0  0  0
    9.2563   -4.7385   25.5420 N   0  0  0  0  0  0  0  0  0  0  0  0
    8.1890   -0.7180   20.8700 N   0  0  0  0  0  0  0  0  0  0  0  0
    9.2690    1.4140   20.9380 O   0  0  0  0  0  0  0  0  0  0  0  0
   10.0100    5.1594   23.0577 S   0  0  0  0  0  0  0  0  0  0  0  0
    3.0136    2.6526   19.3908 H   0  0  0  0  0  0  0  0  0  0  0  0
    3.6480    2.0140   21.6821 H   0  0  0  0  0  0  0  0  0  0  0  0
    8.9214   -0.1986   25.4206 H   0  0  0  0  0  0  0  0  0  0  0  0
   10.0622   -2.2326   21.8251 H   0  0  0  0  0  0  0  0  0  0  0  0
    4.4042    1.9741   17.4524 H   0  0  0  0  0  0  0  0  0  0  0  0
    5.7089    0.6919   22.1150 H   0  0  0  0  0  0  0  0  0  0  0  0
    8.6882   -2.3542   26.5803 H   0  0  0  0  0  0  0  0  0  0  0  0
    9.9258   -4.3896   22.9914 H   0  0  0  0  0  0  0  0  0  0  0  0
   11.6051    1.9199   23.0085 H   0  0  0  0  0  0  0  0  0  0  0  0
   12.2871    4.4210   22.5679 H   0  0  0  0  0  0  0  0  0  0  0  0
    7.9002    4.1134   23.7006 H   0  0  0  0  0  0  0  0  0  0  0  0
    7.7561   -7.4351   26.8143 H   0  0  0  0  0  0  0  0  0  0  0  0
    6.1574   -6.8886   26.3051 H   0  0  0  0  0  0  0  0  0  0  0  0
    6.7603   -4.5438   26.6651 H   0  0  0  0  0  0  0  0  0  0  0  0
    7.1686   -5.4557   28.1153 H   0  0  0  0  0  0  0  0  0  0  0  0
    7.6596   -7.4899   24.3731 H   0  0  0  0  0  0  0  0  0  0  0  0
    7.0707   -5.8316   24.2940 H   0  0  0  0  0  0  0  0  0  0  0  0
    8.9682   -3.8625   27.4435 H   0  0  0  0  0  0  0  0  0  0  0  0
    9.5389   -5.5394   27.4694 H   0  0  0  0  0  0  0  0  0  0  0  0
    9.8375   -6.7414   25.2339 H   0  0  0  0  0  0  0  0  0  0  0  0
    9.4414   -5.8513   23.7549 H   0  0  0  0  0  0  0  0  0  0  0  0
    8.9481    1.1774   24.8382 H   0  0  0  0  0  0  0  0  0  0  0  0
    7.7730    1.4670   23.5839 H   0  0  0  0  0  0  0  0  0  0  0  0
   10.5990    0.4745   22.8590 H   0  0  0  0  0  0  0  0  0  0  0  0
    8.2487   -1.5564   21.0972 H   0  0  0  0  0  0  0  0  0  0  0  0
  1  2  1  0  0  0  0
  1  5  2  0  0  0  0
  2  6  2  0  0  0  0
  3  7  2  0  0  0  0
  3 12  1  0  0  0  0
  4  8  1  0  0  0  0
  4 12  2  0  0  0  0
  5 14  1  0  0  0  0
  6 15  1  0  0  0  0
  7 16  1  0  0  0  0
  8 16  2  0  0  0  0
  9 10  2  0  0  0  0
  9 13  1  0  0  0  0
 10 31  1  0  0  0  0
 11 13  2  0  0  0  0
 11 31  1  0  0  0  0
 12 24  1  0  0  0  0
 13 23  1  0  0  0  0
 14 15  2  0  0  0  0
 14 25  1  0  0  0  0
 15 27  1  0  0  0  0
 16 28  1  0  0  0  0
 17 24  1  1  0  0  0
 17 29  1  0  0  0  0
 17 30  2  0  0  0  0
 18 19  1  0  0  0  0
 18 20  1  0  0  0  0
 19 21  1  0  0  0  0
 20 22  1  0  0  0  0
 21 28  1  0  0  0  0
 22 28  1  0  0  0  0
 23 24  1  0  0  0  0
 25 26  2  0  0  0  0
 26 27  1  0  0  0  0
 27 29  1  0  0  0  0
  1 32  1  0  0  0  0
  2 33  1  0  0  0  0
  3 34  1  0  0  0  0
  4 35  1  0  0  0  0
  5 36  1  0  0  0  0
  6 37  1  0  0  0  0
  7 38  1  0  0  0  0
  8 39  1  0  0  0  0
  9 40  1  0  0  0  0
 10 41  1  0  0  0  0
 11 42  1  0  0  0  0
 18 43  1  0  0  0  0
 18 44  1  0  0  0  0
 19 45  1  0  0  0  0
 19 46  1  0  0  0  0
 20 47  1  0  0  0  0
 20 48  1  0  0  0  0
 21 49  1  0  0  0  0
 21 50  1  0  0  0  0
 22 51  1  0  0  0  0
 22 52  1  0  0  0  0
 23 53  1  0  0  0  0
 23 54  1  0  0  0  0
 24 55  1  0  0  0  0
 29 56  1  0  0  0  0
M  END
> <clash_score>
0

> <docking_score>
-7.787841796875

> <overlap_score>
0.8882747292518616

$$$$
BENZO_176_2
  -OEChem-08232013443D

 56 60  0     1  0  0  0  0  0999 V2000
    3.9160    2.0630   19.5520 C   0  0  0  0  0  0  0  0  0  0  0  0
    4.2750    1.7050   20.8490 C   0  0  0  0  0  0  0  0  0  0  0  0
    9.0720   -1.1280   24.8640 C   0  0  0  0  0  0  0  0  0  0  0  0
    9.7200   -2.2600   22.8630 C   0  0  0  0  0  0  0  0  0  0  0  0
    4.6890    1.6810   18.4640 C   0  0  0  0  0  0  0  0  0  0  0  0
    5.4210    0.9600   21.0930 C   0  0  0  0  0  0  0  0  0  0  0  0
    8.9960   -2.3380   25.5320 C   0  0  0  0  0  0  0  0  0  0  0  0
    9.6730   -3.4710   23.5300 C   0  0  0  0  0  0  0  0  0  0  0  0
   12.0511    2.8846   22.0402 C   0  0  0  0  0  0  0  0  0  0  0  0
   12.0243    4.2502   22.2187 C   0  0  0  0  0  0  0  0  0  0  0  0
   10.5154    3.0857   23.7732 C   0  0  0  0  0  0  0  0  0  0  0  0
    9.3350   -1.0880   23.5010 C   0  0  0  0  0  0  0  0  0  0  0  0
   11.1769    2.2099   22.9406 C   0  0  0  0  0  0  0  0  0  0  0  0
    5.8300    0.9190   18.6970 C   0  0  0  0  0  0  0  0  0  0  0  0
    6.1790    0.5730   19.9990 C   0  0  0  0  0  0  0  0  0  0  0  0
    9.3070   -3.5340   24.8780 C   0  0  0  0  0  0  0  0  0  0  0  0
    9.0420    0.3700   21.5280 C   0  0  0  0  0  0  0  0  0  0  0  0
    7.3637   -6.1365   27.1885 C   0  0  0  0  0  0  0  0  0  0  0  0
    8.1962   -4.9739   27.7340 C   0  0  0  0  0  0  0  0  0  0  0  0
    7.1943   -6.0395   25.6706 C   0  0  0  0  0  0  0  0  0  0  0  0
    9.5197   -4.8493   26.9795 C   0  0  0  0  0  0  0  0  0  0  0  0
    8.5443   -5.8838   24.9636 C   0  0  0  0  0  0  0  0  0  0  0  0
   10.9988    0.7103   22.9770 C   0  0  0  0  0  0  0  0  0  0  0  0
    9.4560    0.1560   22.8130 C   0  0  2  0  0  0  0  0  0  0  0  0
    6.7580    0.3810   17.8350 N   0  0  0  0  0  0  0  0  0  0  0  0
    7.6390   -0.2680   18.5410 N   0  0  0  0  0  0  0  0  0  0  0  0
    7.3170   -0.1610   19.8550 N   0  0  0  0  0  0  0  0  0  0  0  0
    9.2563   -4.7385   25.5420 N   0  0  0  0  0  0  0  0  0  0  0  0
    8.1890   -0.7180   20.8700 N   0  0  0  0  0  0  0  0  0  0  0  0
    9.2690    1.4140   20.9380 O   0  0  0  0  0  0  0  0  0  0  0  0
   10.9486    4.7140   23.4677 S   0  0  0  0  0  0  0  0  0  0  0  0
    3.0136    2.6526   19.3908 H   0  0  0  0  0  0  0  0  0  0  0  0
    3.6481    2.0140   21.6821 H   0  0  0  0  0  0  0  0  0  0  0  0
    8.9214   -0.1986   25.4206 H   0  0  0  0  0  0  0  0  0  0  0  0
   10.0622   -2.2326   21.8251 H   0  0  0  0  0  0  0  0  0  0  0  0
    4.4042    1.9741   17.4524 H   0  0  0  0  0  0  0  0  0  0  0  0
    5.7089    0.6919   22.1150 H   0  0  0  0  0  0  0  0  0  0  0  0
    8.6882   -2.3542   26.5803 H   0  0  0  0  0  0  0  0  0  0  0  0
    9.9258   -4.3896   22.9914 H   0  0  0  0  0  0  0  0  0  0  0  0
   12.6704    2.3968   21.2980 H   0  0  0  0  0  0  0  0  0  0  0  0
   12.5855    4.9978   21.6759 H   0  0  0  0  0  0  0  0  0  0  0  0
    9.7987    2.8515   24.5482 H   0  0  0  0  0  0  0  0  0  0  0  0
    7.8484   -7.0905   27.4464 H   0  0  0  0  0  0  0  0  0  0  0  0
    6.3761   -6.1442   27.6721 H   0  0  0  0  0  0  0  0  0  0  0  0
    7.6308   -4.0428   27.6404 H   0  0  0  0  0  0  0  0  0  0  0  0
    8.3917   -5.1316   28.7967 H   0  0  0  0  0  0  0  0  0  0  0  0
    6.6889   -6.9376   25.3006 H   0  0  0  0  0  0  0  0  0  0  0  0
    6.5516   -5.1860   25.4256 H   0  0  0  0  0  0  0  0  0  0  0  0
   10.0494   -3.9643   27.3413 H   0  0  0  0  0  0  0  0  0  0  0  0
   10.1432   -5.7258   27.1775 H   0  0  0  0  0  0  0  0  0  0  0  0
    9.1338   -6.7931   25.0863 H   0  0  0  0  0  0  0  0  0  0  0  0
    8.3657   -5.7262   23.8995 H   0  0  0  0  0  0  0  0  0  0  0  0
   11.6488    0.2736   22.2061 H   0  0  0  0  0  0  0  0  0  0  0  0
   11.3815    0.3162   23.9278 H   0  0  0  0  0  0  0  0  0  0  0  0
    8.9230    0.9815   23.4801 H   0  0  0  0  0  0  0  0  0  0  0  0
    8.2487   -1.5564   21.0972 H   0  0  0  0  0  0  0  0  0  0  0  0
  1  2  1  0  0  0  0
  1  5  2  0  0  0  0
  2  6  2  0  0  0  0
  3  7  2  0  0  0  0
  3 12  1  0  0  0  0
  4  8  1  0  0  0  0
  4 12  2  0  0  0  0
  5 14  1  0  0  0  0
  6 15  1  0  0  0  0
  7 16  1  0  0  0  0
  8 16  2  0  0  0  0
  9 10  2  0  0  0  0
  9 13  1  0  0  0  0
 10 31  1  0  0  0  0
 11 13  2  0  0  0  0
 11 31  1  0  0  0  0
 12 24  1  0  0  0  0
 13 23  1  0  0  0  0
 14 15  2  0  0  0  0
 14 25  1  0  0  0  0
 15 27  1  0  0  0  0
 16 28  1  0  0  0  0
 17 24  1  6  0  0  0
 17 29  1  0  0  0  0
 17 30  2  0  0  0  0
 18 19  1  0  0  0  0
 18 20  1  0  0  0  0
 19 21  1  0  0  0  0
 20 22  1  0  0  0  0
 21 28  1  0  0  0  0
 22 28  1  0  0  0  0
 23 24  1  0  0  0  0
 25 26  2  0  0  0  0
 26 27  1  0  0  0  0
 27 29  1  0  0  0  0
  1 32  1  0  0  0  0
  2 33  1  0  0  0  0
  3 34  1  0  0  0  0
  4 35  1  0  0  0  0
  5 36  1  0  0  0  0
  6 37  1  0  0  0  0
  7 38  1  0  0  0  0
  8 39  1  0  0  0  0
  9 40  1  0  0  0  0
 10 41  1  0  0  0  0
 11 42  1  0  0  0  0
 18 43  1  0  0  0  0
 18 44  1  0  0  0  0
 19 45  1  0  0  0  0
 19 46  1  0  0  0  0
 20 47  1  0  0  0  0
 20 48  1  0  0  0  0
 21 49  1  0  0  0  0
 21 50  1  0  0  0  0
 22 51  1  0  0  0  0
 22 52  1  0  0  0  0
 23 53  1  0  0  0  0
 23 54  1  0  0  0  0
 24 55  1  0  0  0  0
 29 56  1  0  0  0  0
M  END
> <clash_score>
0

> <docking_score>
-8.937446594238281

> <overlap_score>
0.9290028214454651

$$$$
BENZO_177_2
  -OEChem-08232013443D

 59 63  0     1  0  0  0  0  0999 V2000
   11.5046    4.9795   22.8735 C   0  0  0  0  0  0  0  0  0  0  0  0
   12.5260    4.1452   22.4195 C   0  0  0  0  0  0  0  0  0  0  0  0
   10.3193    4.4290   23.3612 C   0  0  0  0  0  0  0  0  0  0  0  0
    3.9160    2.0630   19.5520 C   0  0  0  0  0  0  0  0  0  0  0  0
    4.2750    1.7050   20.8490 C   0  0  0  0  0  0  0  0  0  0  0  0
   12.3622    2.7604   22.4530 C   0  0  0  0  0  0  0  0  0  0  0  0
   10.1555    3.0442   23.3947 C   0  0  0  0  0  0  0  0  0  0  0  0
    9.0720   -1.1280   24.8640 C   0  0  0  0  0  0  0  0  0  0  0  0
    9.7200   -2.2600   22.8630 C   0  0  0  0  0  0  0  0  0  0  0  0
    4.6890    1.6810   18.4640 C   0  0  0  0  0  0  0  0  0  0  0  0
    5.4210    0.9600   21.0930 C   0  0  0  0  0  0  0  0  0  0  0  0
    8.9960   -2.3380   25.5320 C   0  0  0  0  0  0  0  0  0  0  0  0
    9.6730   -3.4710   23.5300 C   0  0  0  0  0  0  0  0  0  0  0  0
   11.1769    2.2099   22.9406 C   0  0  0  0  0  0  0  0  0  0  0  0
    9.3350   -1.0880   23.5010 C   0  0  0  0  0  0  0  0  0  0  0  0
    5.8300    0.9190   18.6970 C   0  0  0  0  0  0  0  0  0  0  0  0
    6.1790    0.5730   19.9990 C   0  0  0  0  0  0  0  0  0  0  0  0
    9.3070   -3.5340   24.8780 C   0  0  0  0  0  0  0  0  0  0  0  0
    9.0420    0.3700   21.5280 C   0  0  0  0  0  0  0  0  0  0  0  0
    7.3637   -6.1365   27.1885 C   0  0  0  0  0  0  0  0  0  0  0  0
    8.1962   -4.9739   27.7340 C   0  0  0  0  0  0  0  0  0  0  0  0
    7.1943   -6.0395   25.6706 C   0  0  0  0  0  0  0  0  0  0  0  0
    9.5197   -4.8493   26.9795 C   0  0  0  0  0  0  0  0  0  0  0  0
    8.5443   -5.8838   24.9636 C   0  0  0  0  0  0  0  0  0  0  0  0
   10.9988    0.7103   22.9770 C   0  0  0  0  0  0  0  0  0  0  0  0
    9.4560    0.1560   22.8130 C   0  0  2  0  0  0  0  0  0  0  0  0
    6.7580    0.3810   17.8350 N   0  0  0  0  0  0  0  0  0  0  0  0
    7.6390   -0.2680   18.5410 N   0  0  0  0  0  0  0  0  0  0  0  0
    7.3170   -0.1610   19.8550 N   0  0  0  0  0  0  0  0  0  0  0  0
    9.2563   -4.7385   25.5420 N   0  0  0  0  0  0  0  0  0  0  0  0
    8.1890   -0.7180   20.8700 N   0  0  0  0  0  0  0  0  0  0  0  0
    9.2690    1.4140   20.9380 O   0  0  0  0  0  0  0  0  0  0  0  0
   11.6328    6.0578   22.8486 H   0  0  0  0  0  0  0  0  0  0  0  0
   13.4494    4.5737   22.0407 H   0  0  0  0  0  0  0  0  0  0  0  0
    9.5243    5.0783   23.7158 H   0  0  0  0  0  0  0  0  0  0  0  0
    3.0136    2.6526   19.3908 H   0  0  0  0  0  0  0  0  0  0  0  0
    3.6481    2.0140   21.6821 H   0  0  0  0  0  0  0  0  0  0  0  0
   13.1634    2.1181   22.0969 H   0  0  0  0  0  0  0  0  0  0  0  0
    9.2286    2.6243   23.7763 H   0  0  0  0  0  0  0  0  0  0  0  0
    8.9214   -0.1986   25.4206 H   0  0  0  0  0  0  0  0  0  0  0  0
   10.0622   -2.2326   21.8251 H   0  0  0  0  0  0  0  0  0  0  0  0
    4.4042    1.9741   17.4524 H   0  0  0  0  0  0  0  0  0  0  0  0
    5.7089    0.6919   22.1150 H   0  0  0  0  0  0  0  0  0  0  0  0
    8.6882   -2.3542   26.5803 H   0  0  0  0  0  0  0  0  0  0  0  0
    9.9258   -4.3896   22.9914 H   0  0  0  0  0  0  0  0  0  0  0  0
    7.8484   -7.0905   27.4464 H   0  0  0  0  0  0  0  0  0  0  0  0
    6.3761   -6.1442   27.6721 H   0  0  0  0  0  0  0  0  0  0  0  0
    7.6308   -4.0428   27.6404 H   0  0  0  0  0  0  0  0  0  0  0  0
    8.3917   -5.1316   28.7967 H   0  0  0  0  0  0  0  0  0  0  0  0
    6.6889   -6.9376   25.3006 H   0  0  0  0  0  0  0  0  0  0  0  0
    6.5516   -5.1860   25.4256 H   0  0  0  0  0  0  0  0  0  0  0  0
   10.0494   -3.9643   27.3413 H   0  0  0  0  0  0  0  0  0  0  0  0
   10.1432   -5.7258   27.1775 H   0  0  0  0  0  0  0  0  0  0  0  0
    9.1338   -6.7931   25.0863 H   0  0  0  0  0  0  0  0  0  0  0  0
    8.3657   -5.7262   23.8995 H   0  0  0  0  0  0  0  0  0  0  0  0
   11.6488    0.2736   22.2061 H   0  0  0  0  0  0  0  0  0  0  0  0
   11.3815    0.3162   23.9278 H   0  0  0  0  0  0  0  0  0  0  0  0
    8.9230    0.9815   23.4801 H   0  0  0  0  0  0  0  0  0  0  0  0
    8.2487   -1.5564   21.0972 H   0  0  0  0  0  0  0  0  0  0  0  0
  1  2  1  0  0  0  0
  1  3  2  0  0  0  0
  2  6  2  0  0  0  0
  3  7  1  0  0  0  0
  4  5  1  0  0  0  0
  4 10  2  0  0  0  0
  5 11  2  0  0  0  0
  6 14  1  0  0  0  0
  7 14  2  0  0  0  0
  8 12  2  0  0  0  0
  8 15  1  0  0  0  0
  9 13  1  0  0  0  0
  9 15  2  0  0  0  0
 10 16  1  0  0  0  0
 11 17  1  0  0  0  0
 12 18  1  0  0  0  0
 13 18  2  0  0  0  0
 14 25  1  0  0  0  0
 15 26  1  0  0  0  0
 16 17  2  0  0  0  0
 16 27  1  0  0  0  0
 17 29  1  0  0  0  0
 18 30  1  0  0  0  0
 19 26  1  6  0  0  0
 19 31  1  0  0  0  0
 19 32  2  0  0  0  0
 20 21  1  0  0  0  0
 20 22  1  0  0  0  0
 21 23  1  0  0  0  0
 22 24  1  0  0  0  0
 23 30  1  0  0  0  0
 24 30  1  0  0  0  0
 25 26  1  0  0  0  0
 27 28  2  0  0  0  0
 28 29  1  0  0  0  0
 29 31  1  0  0  0  0
  1 33  1  0  0  0  0
  2 34  1  0  0  0  0
  3 35  1  0  0  0  0
  4 36  1  0  0  0  0
  5 37  1  0  0  0  0
  6 38  1  0  0  0  0
  7 39  1  0  0  0  0
  8 40  1  0  0  0  0
  9 41  1  0  0  0  0
 10 42  1  0  0  0  0
 11 43  1  0  0  0  0
 12 44  1  0  0  0  0
 13 45  1  0  0  0  0
 20 46  1  0  0  0  0
 20 47  1  0  0  0  0
 21 48  1  0  0  0  0
 21 49  1  0  0  0  0
 22 50  1  0  0  0  0
 22 51  1  0  0  0  0
 23 52  1  0  0  0  0
 23 53  1  0  0  0  0
 24 54  1  0  0  0  0
 24 55  1  0  0  0  0
 25 56  1  0  0  0  0
 25 57  1  0  0  0  0
 26 58  1  0  0  0  0
 31 59  1  0  0  0  0
M  END
> <clash_score>
0

> <docking_score>
-9.584135055541992

> <overlap_score>
0.9399406909942627

$$$$
BENZO_178_1
  -OEChem-08232013443D

 59 63  0     1  0  0  0  0  0999 V2000
    3.9160    2.0630   19.5520 C   0  0  0  0  0  0  0  0  0  0  0  0
    4.2750    1.7050   20.8490 C   0  0  0  0  0  0  0  0  0  0  0  0
    9.6807    4.7078   22.1653 C   0  0  0  0  0  0  0  0  0  0  0  0
    9.0376    3.5049   22.4568 C   0  0  0  0  0  0  0  0  0  0  0  0
    9.0720   -1.1280   24.8640 C   0  0  0  0  0  0  0  0  0  0  0  0
    9.7200   -2.2600   22.8630 C   0  0  0  0  0  0  0  0  0  0  0  0
    4.6890    1.6810   18.4640 C   0  0  0  0  0  0  0  0  0  0  0  0
    5.4210    0.9600   21.0930 C   0  0  0  0  0  0  0  0  0  0  0  0
    8.9960   -2.3380   25.5320 C   0  0  0  0  0  0  0  0  0  0  0  0
    9.6730   -3.4710   23.5300 C   0  0  0  0  0  0  0  0  0  0  0  0
   10.8360    5.0671   22.8595 C   0  0  0  0  0  0  0  0  0  0  0  0
   10.7048    3.0207   24.1370 C   0  0  0  0  0  0  0  0  0  0  0  0
    9.3350   -1.0880   23.5010 C   0  0  0  0  0  0  0  0  0  0  0  0
    9.5496    2.6614   23.4427 C   0  0  0  0  0  0  0  0  0  0  0  0
    5.8300    0.9190   18.6970 C   0  0  0  0  0  0  0  0  0  0  0  0
    6.1790    0.5730   19.9990 C   0  0  0  0  0  0  0  0  0  0  0  0
    9.3070   -3.5340   24.8780 C   0  0  0  0  0  0  0  0  0  0  0  0
   11.3480    4.2236   23.8454 C   0  0  0  0  0  0  0  0  0  0  0  0
    9.0420    0.3700   21.5280 C   0  0  0  0  0  0  0  0  0  0  0  0
    7.2237   -6.6201   26.3005 C   0  0  0  0  0  0  0  0  0  0  0  0
    7.4295   -5.3104   27.0650 C   0  0  0  0  0  0  0  0  0  0  0  0
    7.7218   -6.5099   24.8576 C   0  0  0  0  0  0  0  0  0  0  0  0
    8.8783   -4.8360   26.9547 C   0  0  0  0  0  0  0  0  0  0  0  0
    9.1653   -6.0007   24.7991 C   0  0  0  0  0  0  0  0  0  0  0  0
    8.8518    1.3594   23.7587 C   0  0  0  0  0  0  0  0  0  0  0  0
    9.4560    0.1560   22.8130 C   0  0  1  0  0  0  0  0  0  0  0  0
    6.7580    0.3810   17.8350 N   0  0  0  0  0  0  0  0  0  0  0  0
    7.6390   -0.2680   18.5410 N   0  0  0  0  0  0  0  0  0  0  0  0
    7.3170   -0.1610   19.8550 N   0  0  0  0  0  0  0  0  0  0  0  0
    9.2563   -4.7385   25.5420 N   0  0  0  0  0  0  0  0  0  0  0  0
    8.1890   -0.7180   20.8700 N   0  0  0  0  0  0  0  0  0  0  0  0
    9.2690    1.4140   20.9380 O   0  0  0  0  0  0  0  0  0  0  0  0
   12.7727    4.6681   24.7024 Cl  0  0  0  0  0  0  0  0  0  0  0  0
    3.0136    2.6526   19.3908 H   0  0  0  0  0  0  0  0  0  0  0  0
    3.6480    2.0140   21.6821 H   0  0  0  0  0  0  0  0  0  0  0  0
    9.2816    5.3644   21.3976 H   0  0  0  0  0  0  0  0  0  0  0  0
    8.1379    3.2330   21.9109 H   0  0  0  0  0  0  0  0  0  0  0  0
    8.9214   -0.1986   25.4206 H   0  0  0  0  0  0  0  0  0  0  0  0
   10.0622   -2.2326   21.8251 H   0  0  0  0  0  0  0  0  0  0  0  0
    4.4042    1.9741   17.4524 H   0  0  0  0  0  0  0  0  0  0  0  0
    5.7089    0.6919   22.1150 H   0  0  0  0  0  0  0  0  0  0  0  0
    8.6882   -2.3542   26.5803 H   0  0  0  0  0  0  0  0  0  0  0  0
    9.9258   -4.3896   22.9914 H   0  0  0  0  0  0  0  0  0  0  0  0
   11.3266    6.0079   22.6219 H   0  0  0  0  0  0  0  0  0  0  0  0
   11.1003    2.3593   24.9044 H   0  0  0  0  0  0  0  0  0  0  0  0
    7.7561   -7.4351   26.8143 H   0  0  0  0  0  0  0  0  0  0  0  0
    6.1574   -6.8886   26.3051 H   0  0  0  0  0  0  0  0  0  0  0  0
    6.7603   -4.5438   26.6651 H   0  0  0  0  0  0  0  0  0  0  0  0
    7.1686   -5.4557   28.1153 H   0  0  0  0  0  0  0  0  0  0  0  0
    7.6596   -7.4899   24.3731 H   0  0  0  0  0  0  0  0  0  0  0  0
    7.0707   -5.8316   24.2940 H   0  0  0  0  0  0  0  0  0  0  0  0
    8.9682   -3.8625   27.4435 H   0  0  0  0  0  0  0  0  0  0  0  0
    9.5389   -5.5394   27.4694 H   0  0  0  0  0  0  0  0  0  0  0  0
    9.8375   -6.7414   25.2339 H   0  0  0  0  0  0  0  0  0  0  0  0
    9.4414   -5.8513   23.7549 H   0  0  0  0  0  0  0  0  0  0  0  0
    8.9481    1.1774   24.8382 H   0  0  0  0  0  0  0  0  0  0  0  0
    7.7730    1.4670   23.5839 H   0  0  0  0  0  0  0  0  0  0  0  0
   10.5990    0.4745   22.8590 H   0  0  0  0  0  0  0  0  0  0  0  0
    8.2487   -1.5564   21.0972 H   0  0  0  0  0  0  0  0  0  0  0  0
  1  2  1  0  0  0  0
  1  7  2  0  0  0  0
  2  8  2  0  0  0  0
  3  4  2  0  0  0  0
  3 11  1  0  0  0  0
  4 14  1  0  0  0  0
  5  9  2  0  0  0  0
  5 13  1  0  0  0  0
  6 10  1  0  0  0  0
  6 13  2  0  0  0  0
  7 15  1  0  0  0  0
  8 16  1  0  0  0  0
  9 17  1  0  0  0  0
 10 17  2  0  0  0  0
 11 18  2  0  0  0  0
 12 14  2  0  0  0  0
 12 18  1  0  0  0  0
 13 26  1  0  0  0  0
 14 25  1  0  0  0  0
 15 16  2  0  0  0  0
 15 27  1  0  0  0  0
 16 29  1  0  0  0  0
 17 30  1  0  0  0  0
 18 33  1  0  0  0  0
 19 26  1  1  0  0  0
 19 31  1  0  0  0  0
 19 32  2  0  0  0  0
 20 21  1  0  0  0  0
 20 22  1  0  0  0  0
 21 23  1  0  0  0  0
 22 24  1  0  0  0  0
 23 30  1  0  0  0  0
 24 30  1  0  0  0  0
 25 26  1  0  0  0  0
 27 28  2  0  0  0  0
 28 29  1  0  0  0  0
 29 31  1  0  0  0  0
  1 34  1  0  0  0  0
  2 35  1  0  0  0  0
  3 36  1  0  0  0  0
  4 37  1  0  0  0  0
  5 38  1  0  0  0  0
  6 39  1  0  0  0  0
  7 40  1  0  0  0  0
  8 41  1  0  0  0  0
  9 42  1  0  0  0  0
 10 43  1  0  0  0  0
 11 44  1  0  0  0  0
 12 45  1  0  0  0  0
 20 46  1  0  0  0  0
 20 47  1  0  0  0  0
 21 48  1  0  0  0  0
 21 49  1  0  0  0  0
 22 50  1  0  0  0  0
 22 51  1  0  0  0  0
 23 52  1  0  0  0  0
 23 53  1  0  0  0  0
 24 54  1  0  0  0  0
 24 55  1  0  0  0  0
 25 56  1  0  0  0  0
 25 57  1  0  0  0  0
 26 58  1  0  0  0  0
 31 59  1  0  0  0  0
M  END
> <clash_score>
0.61230358556668

> <docking_score>
-6.060553550720215

> <overlap_score>
0.874560534954071

$$$$
BENZO_178_2
  -OEChem-08232013443D

 59 63  0     1  0  0  0  0  0999 V2000
    3.9160    2.0630   19.5520 C   0  0  0  0  0  0  0  0  0  0  0  0
    4.2750    1.7050   20.8490 C   0  0  0  0  0  0  0  0  0  0  0  0
   10.3202    4.4289   23.3635 C   0  0  0  0  0  0  0  0  0  0  0  0
   10.1559    3.0442   23.3958 C   0  0  0  0  0  0  0  0  0  0  0  0
    9.0720   -1.1280   24.8640 C   0  0  0  0  0  0  0  0  0  0  0  0
    9.7200   -2.2600   22.8630 C   0  0  0  0  0  0  0  0  0  0  0  0
    4.6890    1.6810   18.4640 C   0  0  0  0  0  0  0  0  0  0  0  0
    5.4210    0.9600   21.0930 C   0  0  0  0  0  0  0  0  0  0  0  0
    8.9960   -2.3380   25.5320 C   0  0  0  0  0  0  0  0  0  0  0  0
    9.6730   -3.4710   23.5300 C   0  0  0  0  0  0  0  0  0  0  0  0
   11.5055    4.9795   22.8761 C   0  0  0  0  0  0  0  0  0  0  0  0
   12.3623    2.7604   22.4532 C   0  0  0  0  0  0  0  0  0  0  0  0
    9.3350   -1.0880   23.5010 C   0  0  0  0  0  0  0  0  0  0  0  0
   11.1769    2.2099   22.9406 C   0  0  0  0  0  0  0  0  0  0  0  0
    5.8300    0.9190   18.6970 C   0  0  0  0  0  0  0  0  0  0  0  0
    6.1790    0.5730   19.9990 C   0  0  0  0  0  0  0  0  0  0  0  0
    9.3070   -3.5340   24.8780 C   0  0  0  0  0  0  0  0  0  0  0  0
   12.5266    4.1452   22.4210 C   0  0  0  0  0  0  0  0  0  0  0  0
    9.0420    0.3700   21.5280 C   0  0  0  0  0  0  0  0  0  0  0  0
    7.3637   -6.1365   27.1885 C   0  0  0  0  0  0  0  0  0  0  0  0
    8.1962   -4.9739   27.7340 C   0  0  0  0  0  0  0  0  0  0  0  0
    7.1943   -6.0395   25.6706 C   0  0  0  0  0  0  0  0  0  0  0  0
    9.5197   -4.8493   26.9795 C   0  0  0  0  0  0  0  0  0  0  0  0
    8.5443   -5.8838   24.9636 C   0  0  0  0  0  0  0  0  0  0  0  0
   10.9988    0.7103   22.9770 C   0  0  0  0  0  0  0  0  0  0  0  0
    9.4560    0.1560   22.8130 C   0  0  2  0  0  0  0  0  0  0  0  0
    6.7580    0.3810   17.8350 N   0  0  0  0  0  0  0  0  0  0  0  0
    7.6390   -0.2680   18.5410 N   0  0  0  0  0  0  0  0  0  0  0  0
    7.3170   -0.1610   19.8550 N   0  0  0  0  0  0  0  0  0  0  0  0
    9.2563   -4.7385   25.5420 N   0  0  0  0  0  0  0  0  0  0  0  0
    8.1890   -0.7180   20.8700 N   0  0  0  0  0  0  0  0  0  0  0  0
    9.2690    1.4140   20.9380 O   0  0  0  0  0  0  0  0  0  0  0  0
   13.9892    4.8250   21.8208 Cl  0  0  0  0  0  0  0  0  0  0  0  0
    3.0136    2.6526   19.3908 H   0  0  0  0  0  0  0  0  0  0  0  0
    3.6481    2.0140   21.6821 H   0  0  0  0  0  0  0  0  0  0  0  0
    9.5249    5.0782   23.7182 H   0  0  0  0  0  0  0  0  0  0  0  0
    9.2290    2.6239   23.7773 H   0  0  0  0  0  0  0  0  0  0  0  0
    8.9214   -0.1986   25.4206 H   0  0  0  0  0  0  0  0  0  0  0  0
   10.0622   -2.2326   21.8251 H   0  0  0  0  0  0  0  0  0  0  0  0
    4.4042    1.9741   17.4524 H   0  0  0  0  0  0  0  0  0  0  0  0
    5.7089    0.6919   22.1150 H   0  0  0  0  0  0  0  0  0  0  0  0
    8.6882   -2.3542   26.5803 H   0  0  0  0  0  0  0  0  0  0  0  0
    9.9258   -4.3896   22.9914 H   0  0  0  0  0  0  0  0  0  0  0  0
   11.6198    6.0605   22.8572 H   0  0  0  0  0  0  0  0  0  0  0  0
   13.1552    2.1057   22.0990 H   0  0  0  0  0  0  0  0  0  0  0  0
    7.8484   -7.0905   27.4464 H   0  0  0  0  0  0  0  0  0  0  0  0
    6.3761   -6.1442   27.6721 H   0  0  0  0  0  0  0  0  0  0  0  0
    7.6308   -4.0428   27.6404 H   0  0  0  0  0  0  0  0  0  0  0  0
    8.3917   -5.1316   28.7967 H   0  0  0  0  0  0  0  0  0  0  0  0
    6.6889   -6.9376   25.3006 H   0  0  0  0  0  0  0  0  0  0  0  0
    6.5516   -5.1860   25.4256 H   0  0  0  0  0  0  0  0  0  0  0  0
   10.0494   -3.9643   27.3413 H   0  0  0  0  0  0  0  0  0  0  0  0
   10.1432   -5.7258   27.1775 H   0  0  0  0  0  0  0  0  0  0  0  0
    9.1338   -6.7931   25.0863 H   0  0  0  0  0  0  0  0  0  0  0  0
    8.3657   -5.7262   23.8995 H   0  0  0  0  0  0  0  0  0  0  0  0
   11.6488    0.2736   22.2061 H   0  0  0  0  0  0  0  0  0  0  0  0
   11.3815    0.3162   23.9278 H   0  0  0  0  0  0  0  0  0  0  0  0
    8.9230    0.9815   23.4801 H   0  0  0  0  0  0  0  0  0  0  0  0
    8.2487   -1.5564   21.0972 H   0  0  0  0  0  0  0  0  0  0  0  0
  1  2  1  0  0  0  0
  1  7  2  0  0  0  0
  2  8  2  0  0  0  0
  3  4  2  0  0  0  0
  3 11  1  0  0  0  0
  4 14  1  0  0  0  0
  5  9  2  0  0  0  0
  5 13  1  0  0  0  0
  6 10  1  0  0  0  0
  6 13  2  0  0  0  0
  7 15  1  0  0  0  0
  8 16  1  0  0  0  0
  9 17  1  0  0  0  0
 10 17  2  0  0  0  0
 11 18  2  0  0  0  0
 12 14  2  0  0  0  0
 12 18  1  0  0  0  0
 13 26  1  0  0  0  0
 14 25  1  0  0  0  0
 15 16  2  0  0  0  0
 15 27  1  0  0  0  0
 16 29  1  0  0  0  0
 17 30  1  0  0  0  0
 18 33  1  0  0  0  0
 19 26  1  6  0  0  0
 19 31  1  0  0  0  0
 19 32  2  0  0  0  0
 20 21  1  0  0  0  0
 20 22  1  0  0  0  0
 21 23  1  0  0  0  0
 22 24  1  0  0  0  0
 23 30  1  0  0  0  0
 24 30  1  0  0  0  0
 25 26  1  0  0  0  0
 27 28  2  0  0  0  0
 28 29  1  0  0  0  0
 29 31  1  0  0  0  0
  1 34  1  0  0  0  0
  2 35  1  0  0  0  0
  3 36  1  0  0  0  0
  4 37  1  0  0  0  0
  5 38  1  0  0  0  0
  6 39  1  0  0  0  0
  7 40  1  0  0  0  0
  8 41  1  0  0  0  0
  9 42  1  0  0  0  0
 10 43  1  0  0  0  0
 11 44  1  0  0  0  0
 12 45  1  0  0  0  0
 20 46  1  0  0  0  0
 20 47  1  0  0  0  0
 21 48  1  0  0  0  0
 21 49  1  0  0  0  0
 22 50  1  0  0  0  0
 22 51  1  0  0  0  0
 23 52  1  0  0  0  0
 23 53  1  0  0  0  0
 24 54  1  0  0  0  0
 24 55  1  0  0  0  0
 25 56  1  0  0  0  0
 25 57  1  0  0  0  0
 26 58  1  0  0  0  0
 31 59  1  0  0  0  0
M  END
> <clash_score>
0

> <docking_score>
-9.878072738647461

> <overlap_score>
0.9406134486198425

$$$$
BENZO_179_2
  -OEChem-08232013443D

 59 63  0     1  0  0  0  0  0999 V2000
    3.9160    2.0630   19.5520 C   0  0  0  0  0  0  0  0  0  0  0  0
    4.2750    1.7050   20.8490 C   0  0  0  0  0  0  0  0  0  0  0  0
    9.0720   -1.1280   24.8640 C   0  0  0  0  0  0  0  0  0  0  0  0
    9.7200   -2.2600   22.8630 C   0  0  0  0  0  0  0  0  0  0  0  0
    4.6890    1.6810   18.4640 C   0  0  0  0  0  0  0  0  0  0  0  0
    5.4210    0.9600   21.0930 C   0  0  0  0  0  0  0  0  0  0  0  0
    8.9960   -2.3380   25.5320 C   0  0  0  0  0  0  0  0  0  0  0  0
    9.6730   -3.4710   23.5300 C   0  0  0  0  0  0  0  0  0  0  0  0
   10.8679    2.8459   22.9847 C   0  0  0  0  0  0  0  0  0  0  0  0
    9.0373    3.9324   23.5357 C   0  0  0  0  0  0  0  0  0  0  0  0
    9.3350   -1.0880   23.5010 C   0  0  0  0  0  0  0  0  0  0  0  0
    9.5496    2.6614   23.4427 C   0  0  0  0  0  0  0  0  0  0  0  0
    5.8300    0.9190   18.6970 C   0  0  0  0  0  0  0  0  0  0  0  0
    6.1790    0.5730   19.9990 C   0  0  0  0  0  0  0  0  0  0  0  0
    9.3070   -3.5340   24.8780 C   0  0  0  0  0  0  0  0  0  0  0  0
    9.0420    0.3700   21.5280 C   0  0  0  0  0  0  0  0  0  0  0  0
    7.3637   -6.1365   27.1885 C   0  0  0  0  0  0  0  0  0  0  0  0
    8.1962   -4.9739   27.7340 C   0  0  0  0  0  0  0  0  0  0  0  0
    7.1943   -6.0395   25.6706 C   0  0  0  0  0  0  0  0  0  0  0  0
    9.5197   -4.8493   26.9795 C   0  0  0  0  0  0  0  0  0  0  0  0
    8.5443   -5.8838   24.9636 C   0  0  0  0  0  0  0  0  0  0  0  0
    9.9774    6.2085   23.0728 C   0  0  0  0  0  0  0  0  0  0  0  0
    8.8518    1.3594   23.7587 C   0  0  0  0  0  0  0  0  0  0  0  0
    9.4560    0.1560   22.8130 C   0  0  2  0  0  0  0  0  0  0  0  0
   11.1740    4.1328   22.7995 N   0  0  0  0  0  0  0  0  0  0  0  0
    6.7580    0.3810   17.8350 N   0  0  0  0  0  0  0  0  0  0  0  0
    7.6390   -0.2680   18.5410 N   0  0  0  0  0  0  0  0  0  0  0  0
   10.0408    4.7684   23.1427 N   0  0  0  0  0  0  0  0  0  0  0  0
    7.3170   -0.1610   19.8550 N   0  0  0  0  0  0  0  0  0  0  0  0
    9.2563   -4.7385   25.5420 N   0  0  0  0  0  0  0  0  0  0  0  0
    8.1890   -0.7180   20.8700 N   0  0  0  0  0  0  0  0  0  0  0  0
    9.2690    1.4140   20.9380 O   0  0  0  0  0  0  0  0  0  0  0  0
    3.0136    2.6526   19.3908 H   0  0  0  0  0  0  0  0  0  0  0  0
    3.6480    2.0140   21.6821 H   0  0  0  0  0  0  0  0  0  0  0  0
    8.9214   -0.1986   25.4206 H   0  0  0  0  0  0  0  0  0  0  0  0
   10.0622   -2.2326   21.8251 H   0  0  0  0  0  0  0  0  0  0  0  0
    4.4042    1.9741   17.4524 H   0  0  0  0  0  0  0  0  0  0  0  0
    5.7089    0.6919   22.1150 H   0  0  0  0  0  0  0  0  0  0  0  0
    8.6882   -2.3542   26.5803 H   0  0  0  0  0  0  0  0  0  0  0  0
    9.9258   -4.3896   22.9914 H   0  0  0  0  0  0  0  0  0  0  0  0
   11.6198    2.0979   22.7767 H   0  0  0  0  0  0  0  0  0  0  0  0
    8.0679    4.3039   23.8392 H   0  0  0  0  0  0  0  0  0  0  0  0
    7.8484   -7.0905   27.4464 H   0  0  0  0  0  0  0  0  0  0  0  0
    6.3761   -6.1442   27.6721 H   0  0  0  0  0  0  0  0  0  0  0  0
    7.6308   -4.0428   27.6404 H   0  0  0  0  0  0  0  0  0  0  0  0
    8.3917   -5.1316   28.7967 H   0  0  0  0  0  0  0  0  0  0  0  0
    6.6889   -6.9376   25.3006 H   0  0  0  0  0  0  0  0  0  0  0  0
    6.5516   -5.1860   25.4256 H   0  0  0  0  0  0  0  0  0  0  0  0
   10.0494   -3.9643   27.3413 H   0  0  0  0  0  0  0  0  0  0  0  0
   10.1432   -5.7258   27.1775 H   0  0  0  0  0  0  0  0  0  0  0  0
    9.1338   -6.7931   25.0863 H   0  0  0  0  0  0  0  0  0  0  0  0
    8.3657   -5.7262   23.8995 H   0  0  0  0  0  0  0  0  0  0  0  0
   10.2956    6.6075   24.0395 H   0  0  0  0  0  0  0  0  0  0  0  0
   10.6374    6.5638   22.2766 H   0  0  0  0  0  0  0  0  0  0  0  0
    8.9513    6.5147   22.8506 H   0  0  0  0  0  0  0  0  0  0  0  0
    8.9481    1.1774   24.8382 H   0  0  0  0  0  0  0  0  0  0  0  0
    7.7730    1.4670   23.5839 H   0  0  0  0  0  0  0  0  0  0  0  0
   10.5990    0.4745   22.8590 H   0  0  0  0  0  0  0  0  0  0  0  0
    8.2487   -1.5564   21.0972 H   0  0  0  0  0  0  0  0  0  0  0  0
  1  2  1  0  0  0  0
  1  5  2  0  0  0  0
  2  6  2  0  0  0  0
  3  7  2  0  0  0  0
  3 11  1  0  0  0  0
  4  8  1  0  0  0  0
  4 11  2  0  0  0  0
  5 13  1  0  0  0  0
  6 14  1  0  0  0  0
  7 15  1  0  0  0  0
  8 15  2  0  0  0  0
  9 12  1  0  0  0  0
  9 25  2  0  0  0  0
 10 12  2  0  0  0  0
 10 28  1  0  0  0  0
 11 24  1  0  0  0  0
 12 23  1  0  0  0  0
 13 14  2  0  0  0  0
 13 26  1  0  0  0  0
 14 29  1  0  0  0  0
 15 30  1  0  0  0  0
 16 24  1  0  0  0  0
 16 31  1  0  0  0  0
 16 32  2  0  0  0  0
 17 18  1  0  0  0  0
 17 19  1  0  0  0  0
 18 20  1  0  0  0  0
 19 21  1  0  0  0  0
 20 30  1  0  0  0  0
 21 30  1  0  0  0  0
 22 28  1  0  0  0  0
 23 24  1  6  0  0  0
 25 28  1  0  0  0  0
 26 27  2  0  0  0  0
 27 29  1  0  0  0  0
 29 31  1  0  0  0  0
  1 33  1  0  0  0  0
  2 34  1  0  0  0  0
  3 35  1  0  0  0  0
  4 36  1  0  0  0  0
  5 37  1  0  0  0  0
  6 38  1  0  0  0  0
  7 39  1  0  0  0  0
  8 40  1  0  0  0  0
  9 41  1  0  0  0  0
 10 42  1  0  0  0  0
 17 43  1  0  0  0  0
 17 44  1  0  0  0  0
 18 45  1  0  0  0  0
 18 46  1  0  0  0  0
 19 47  1  0  0  0  0
 19 48  1  0  0  0  0
 20 49  1  0  0  0  0
 20 50  1  0  0  0  0
 21 51  1  0  0  0  0
 21 52  1  0  0  0  0
 22 53  1  0  0  0  0
 22 54  1  0  0  0  0
 22 55  1  0  0  0  0
 23 56  1  0  0  0  0
 23 57  1  0  0  0  0
 24 58  1  0  0  0  0
 31 59  1  0  0  0  0
M  END
> <clash_score>
0

> <docking_score>
-8.215686798095703

> <overlap_score>
0.8774827718734741

$$$$
BENZO_180_1
  -OEChem-08232013443D

 44 47  0     1  0  0  0  0  0999 V2000
    3.9160    2.0630   19.5520 C   0  0  0  0  0  0  0  0  0  0  0  0
    4.2750    1.7050   20.8490 C   0  0  0  0  0  0  0  0  0  0  0  0
    8.9960   -2.3380   25.5320 C   0  0  0  0  0  0  0  0  0  0  0  0
    9.6730   -3.4710   23.5300 C   0  0  0  0  0  0  0  0  0  0  0  0
    9.0720   -1.1280   24.8640 C   0  0  0  0  0  0  0  0  0  0  0  0
    9.7200   -2.2600   22.8630 C   0  0  0  0  0  0  0  0  0  0  0  0
    4.6890    1.6810   18.4640 C   0  0  0  0  0  0  0  0  0  0  0  0
    5.4210    0.9600   21.0930 C   0  0  0  0  0  0  0  0  0  0  0  0
   12.0646    2.8761   22.0718 C   0  0  0  0  0  0  0  0  0  0  0  0
   12.0506    4.2394   22.2689 C   0  0  0  0  0  0  0  0  0  0  0  0
   10.5394    3.0670   23.8153 C   0  0  0  0  0  0  0  0  0  0  0  0
    9.3070   -3.5340   24.8780 C   0  0  0  0  0  0  0  0  0  0  0  0
    9.3350   -1.0880   23.5010 C   0  0  0  0  0  0  0  0  0  0  0  0
   11.1891    2.1969   22.9675 C   0  0  0  0  0  0  0  0  0  0  0  0
    5.8300    0.9190   18.6970 C   0  0  0  0  0  0  0  0  0  0  0  0
    6.1790    0.5730   19.9990 C   0  0  0  0  0  0  0  0  0  0  0  0
    9.0420    0.3700   21.5280 C   0  0  0  0  0  0  0  0  0  0  0  0
    9.2507   -4.8268   25.5895 C   0  0  0  0  0  0  0  0  0  0  0  0
   10.9980    0.6985   22.9845 C   0  0  0  0  0  0  0  0  0  0  0  0
    9.4560    0.1560   22.8130 C   0  0  1  0  0  0  0  0  0  0  0  0
    6.7580    0.3810   17.8350 N   0  0  0  0  0  0  0  0  0  0  0  0
    7.6390   -0.2680   18.5410 N   0  0  0  0  0  0  0  0  0  0  0  0
    7.3170   -0.1610   19.8550 N   0  0  0  0  0  0  0  0  0  0  0  0
    8.1890   -0.7180   20.8700 N   0  0  0  0  0  0  0  0  0  0  0  0
    9.2690    1.4140   20.9380 O   0  0  0  0  0  0  0  0  0  0  0  0
   10.9853    4.6955   23.5296 S   0  0  0  0  0  0  0  0  0  0  0  0
    3.0136    2.6526   19.3908 H   0  0  0  0  0  0  0  0  0  0  0  0
    3.6480    2.0140   21.6821 H   0  0  0  0  0  0  0  0  0  0  0  0
    8.6904   -2.3557   26.5808 H   0  0  0  0  0  0  0  0  0  0  0  0
    9.9249   -4.3911   22.9935 H   0  0  0  0  0  0  0  0  0  0  0  0
    8.9209   -0.1987   25.4207 H   0  0  0  0  0  0  0  0  0  0  0  0
   10.0640   -2.2315   21.8255 H   0  0  0  0  0  0  0  0  0  0  0  0
    4.4042    1.9741   17.4524 H   0  0  0  0  0  0  0  0  0  0  0  0
    5.7089    0.6919   22.1150 H   0  0  0  0  0  0  0  0  0  0  0  0
   12.6757    2.3931   21.3198 H   0  0  0  0  0  0  0  0  0  0  0  0
   12.6155    4.9893   21.7334 H   0  0  0  0  0  0  0  0  0  0  0  0
    9.8247    2.8285   24.5908 H   0  0  0  0  0  0  0  0  0  0  0  0
    8.2506   -5.2684   25.5009 H   0  0  0  0  0  0  0  0  0  0  0  0
    9.9820   -5.5375   25.1832 H   0  0  0  0  0  0  0  0  0  0  0  0
    9.4843   -4.7055   26.6554 H   0  0  0  0  0  0  0  0  0  0  0  0
   11.6403    0.2667   22.2043 H   0  0  0  0  0  0  0  0  0  0  0  0
   11.3821    0.2882   23.9279 H   0  0  0  0  0  0  0  0  0  0  0  0
    8.9221    0.9705   23.4866 H   0  0  0  0  0  0  0  0  0  0  0  0
    8.2712   -1.5583   21.1209 H   0  0  0  0  0  0  0  0  0  0  0  0
  1  2  1  0  0  0  0
  1  7  2  0  0  0  0
  2  8  2  0  0  0  0
  3  5  2  0  0  0  0
  3 12  1  0  0  0  0
  4  6  1  0  0  0  0
  4 12  2  0  0  0  0
  5 13  1  0  0  0  0
  6 13  2  0  0  0  0
  7 15  1  0  0  0  0
  8 16  1  0  0  0  0
  9 10  2  0  0  0  0
  9 14  1  0  0  0  0
 10 26  1  0  0  0  0
 11 14  2  0  0  0  0
 11 26  1  0  0  0  0
 12 18  1  0  0  0  0
 13 20  1  0  0  0  0
 14 19  1  0  0  0  0
 15 16  2  0  0  0  0
 15 21  1  0  0  0  0
 16 23  1  0  0  0  0
 17 20  1  0  0  0  0
 17 24  1  0  0  0  0
 17 25  2  0  0  0  0
 19 20  1  1  0  0  0
 21 22  2  0  0  0  0
 22 23  1  0  0  0  0
 23 24  1  0  0  0  0
  1 27  1  0  0  0  0
  2 28  1  0  0  0  0
  3 29  1  0  0  0  0
  4 30  1  0  0  0  0
  5 31  1  0  0  0  0
  6 32  1  0  0  0  0
  7 33  1  0  0  0  0
  8 34  1  0  0  0  0
  9 35  1  0  0  0  0
 10 36  1  0  0  0  0
 11 37  1  0  0  0  0
 18 38  1  0  0  0  0
 18 39  1  0  0  0  0
 18 40  1  0  0  0  0
 19 41  1  0  0  0  0
 19 42  1  0  0  0  0
 20 43  1  0  0  0  0
 24 44  1  0  0  0  0
M  END
> <clash_score>
0

> <docking_score>
-9.31198501586914

> <overlap_score>
0.8763087391853333

$$$$
BENZO_179_1
  -OEChem-08232013443D

 59 63  0     1  0  0  0  0  0999 V2000
    3.9160    2.0630   19.5520 C   0  0  0  0  0  0  0  0  0  0  0  0
    4.2750    1.7050   20.8490 C   0  0  0  0  0  0  0  0  0  0  0  0
    9.0720   -1.1280   24.8640 C   0  0  0  0  0  0  0  0  0  0  0  0
    9.7200   -2.2600   22.8630 C   0  0  0  0  0  0  0  0  0  0  0  0
    4.6890    1.6810   18.4640 C   0  0  0  0  0  0  0  0  0  0  0  0
    5.4210    0.9600   21.0930 C   0  0  0  0  0  0  0  0  0  0  0  0
    8.9960   -2.3380   25.5320 C   0  0  0  0  0  0  0  0  0  0  0  0
    9.6730   -3.4710   23.5300 C   0  0  0  0  0  0  0  0  0  0  0  0
   10.2646    3.1985   23.3556 C   0  0  0  0  0  0  0  0  0  0  0  0
   12.2689    2.9150   22.4968 C   0  0  0  0  0  0  0  0  0  0  0  0
    9.3350   -1.0880   23.5010 C   0  0  0  0  0  0  0  0  0  0  0  0
   11.1769    2.2099   22.9406 C   0  0  0  0  0  0  0  0  0  0  0  0
    5.8300    0.9190   18.6970 C   0  0  0  0  0  0  0  0  0  0  0  0
    6.1790    0.5730   19.9990 C   0  0  0  0  0  0  0  0  0  0  0  0
    9.3070   -3.5340   24.8780 C   0  0  0  0  0  0  0  0  0  0  0  0
    9.0420    0.3700   21.5280 C   0  0  0  0  0  0  0  0  0  0  0  0
    7.3637   -6.1365   27.1885 C   0  0  0  0  0  0  0  0  0  0  0  0
    8.1962   -4.9739   27.7340 C   0  0  0  0  0  0  0  0  0  0  0  0
    7.1943   -6.0395   25.6706 C   0  0  0  0  0  0  0  0  0  0  0  0
    9.5197   -4.8493   26.9795 C   0  0  0  0  0  0  0  0  0  0  0  0
    8.5443   -5.8838   24.9636 C   0  0  0  0  0  0  0  0  0  0  0  0
   12.7964    5.3597   22.3418 C   0  0  0  0  0  0  0  0  0  0  0  0
   10.9988    0.7103   22.9770 C   0  0  0  0  0  0  0  0  0  0  0  0
    9.4560    0.1560   22.8130 C   0  0  1  0  0  0  0  0  0  0  0  0
   10.7361    4.4372   23.1902 N   0  0  0  0  0  0  0  0  0  0  0  0
    6.7580    0.3810   17.8350 N   0  0  0  0  0  0  0  0  0  0  0  0
    7.6390   -0.2680   18.5410 N   0  0  0  0  0  0  0  0  0  0  0  0
   11.9566    4.2317   22.6666 N   0  0  0  0  0  0  0  0  0  0  0  0
    7.3170   -0.1610   19.8550 N   0  0  0  0  0  0  0  0  0  0  0  0
    9.2563   -4.7385   25.5420 N   0  0  0  0  0  0  0  0  0  0  0  0
    8.1890   -0.7180   20.8700 N   0  0  0  0  0  0  0  0  0  0  0  0
    9.2690    1.4140   20.9380 O   0  0  0  0  0  0  0  0  0  0  0  0
    3.0136    2.6526   19.3908 H   0  0  0  0  0  0  0  0  0  0  0  0
    3.6481    2.0140   21.6821 H   0  0  0  0  0  0  0  0  0  0  0  0
    8.9214   -0.1986   25.4206 H   0  0  0  0  0  0  0  0  0  0  0  0
   10.0622   -2.2326   21.8251 H   0  0  0  0  0  0  0  0  0  0  0  0
    4.4042    1.9741   17.4524 H   0  0  0  0  0  0  0  0  0  0  0  0
    5.7089    0.6919   22.1150 H   0  0  0  0  0  0  0  0  0  0  0  0
    8.6882   -2.3542   26.5803 H   0  0  0  0  0  0  0  0  0  0  0  0
    9.9258   -4.3896   22.9914 H   0  0  0  0  0  0  0  0  0  0  0  0
    9.2758    3.0704   23.7727 H   0  0  0  0  0  0  0  0  0  0  0  0
   13.2185    2.5997   22.0860 H   0  0  0  0  0  0  0  0  0  0  0  0
    7.8484   -7.0905   27.4464 H   0  0  0  0  0  0  0  0  0  0  0  0
    6.3761   -6.1442   27.6721 H   0  0  0  0  0  0  0  0  0  0  0  0
    7.6308   -4.0428   27.6404 H   0  0  0  0  0  0  0  0  0  0  0  0
    8.3917   -5.1316   28.7967 H   0  0  0  0  0  0  0  0  0  0  0  0
    6.6889   -6.9376   25.3006 H   0  0  0  0  0  0  0  0  0  0  0  0
    6.5516   -5.1860   25.4256 H   0  0  0  0  0  0  0  0  0  0  0  0
   10.0494   -3.9643   27.3413 H   0  0  0  0  0  0  0  0  0  0  0  0
   10.1432   -5.7258   27.1775 H   0  0  0  0  0  0  0  0  0  0  0  0
    9.1338   -6.7931   25.0863 H   0  0  0  0  0  0  0  0  0  0  0  0
    8.3657   -5.7262   23.8995 H   0  0  0  0  0  0  0  0  0  0  0  0
   12.5864    5.6503   21.3091 H   0  0  0  0  0  0  0  0  0  0  0  0
   12.5763    6.1858   23.0237 H   0  0  0  0  0  0  0  0  0  0  0  0
   13.8458    5.0729   22.4536 H   0  0  0  0  0  0  0  0  0  0  0  0
   11.6488    0.2736   22.2061 H   0  0  0  0  0  0  0  0  0  0  0  0
   11.3815    0.3162   23.9278 H   0  0  0  0  0  0  0  0  0  0  0  0
    8.9230    0.9815   23.4801 H   0  0  0  0  0  0  0  0  0  0  0  0
    8.2487   -1.5564   21.0972 H   0  0  0  0  0  0  0  0  0  0  0  0
  1  2  1  0  0  0  0
  1  5  2  0  0  0  0
  2  6  2  0  0  0  0
  3  7  2  0  0  0  0
  3 11  1  0  0  0  0
  4  8  1  0  0  0  0
  4 11  2  0  0  0  0
  5 13  1  0  0  0  0
  6 14  1  0  0  0  0
  7 15  1  0  0  0  0
  8 15  2  0  0  0  0
  9 12  1  0  0  0  0
  9 25  2  0  0  0  0
 10 12  2  0  0  0  0
 10 28  1  0  0  0  0
 11 24  1  0  0  0  0
 12 23  1  0  0  0  0
 13 14  2  0  0  0  0
 13 26  1  0  0  0  0
 14 29  1  0  0  0  0
 15 30  1  0  0  0  0
 16 24  1  0  0  0  0
 16 31  1  0  0  0  0
 16 32  2  0  0  0  0
 17 18  1  0  0  0  0
 17 19  1  0  0  0  0
 18 20  1  0  0  0  0
 19 21  1  0  0  0  0
 20 30  1  0  0  0  0
 21 30  1  0  0  0  0
 22 28  1  0  0  0  0
 23 24  1  1  0  0  0
 25 28  1  0  0  0  0
 26 27  2  0  0  0  0
 27 29  1  0  0  0  0
 29 31  1  0  0  0  0
  1 33  1  0  0  0  0
  2 34  1  0  0  0  0
  3 35  1  0  0  0  0
  4 36  1  0  0  0  0
  5 37  1  0  0  0  0
  6 38  1  0  0  0  0
  7 39  1  0  0  0  0
  8 40  1  0  0  0  0
  9 41  1  0  0  0  0
 10 42  1  0  0  0  0
 17 43  1  0  0  0  0
 17 44  1  0  0  0  0
 18 45  1  0  0  0  0
 18 46  1  0  0  0  0
 19 47  1  0  0  0  0
 19 48  1  0  0  0  0
 20 49  1  0  0  0  0
 20 50  1  0  0  0  0
 21 51  1  0  0  0  0
 21 52  1  0  0  0  0
 22 53  1  0  0  0  0
 22 54  1  0  0  0  0
 22 55  1  0  0  0  0
 23 56  1  0  0  0  0
 23 57  1  0  0  0  0
 24 58  1  0  0  0  0
 31 59  1  0  0  0  0
M  END
> <clash_score>
0

> <docking_score>
-9.516200065612793

> <overlap_score>
0.9366329908370972

$$$$
BENZO_181_1
  -OEChem-08232013443D

 47 50  0     1  0  0  0  0  0999 V2000
   11.5406    4.9642   22.9363 C   0  0  0  0  0  0  0  0  0  0  0  0
   12.5552    4.1270   22.4723 C   0  0  0  0  0  0  0  0  0  0  0  0
   10.3502    4.4177   23.4160 C   0  0  0  0  0  0  0  0  0  0  0  0
    3.9160    2.0630   19.5520 C   0  0  0  0  0  0  0  0  0  0  0  0
    4.2750    1.7050   20.8490 C   0  0  0  0  0  0  0  0  0  0  0  0
   12.3795    2.7434   22.4879 C   0  0  0  0  0  0  0  0  0  0  0  0
   10.1745    3.0341   23.4316 C   0  0  0  0  0  0  0  0  0  0  0  0
    8.9960   -2.3380   25.5320 C   0  0  0  0  0  0  0  0  0  0  0  0
    9.6730   -3.4710   23.5300 C   0  0  0  0  0  0  0  0  0  0  0  0
    9.0720   -1.1280   24.8640 C   0  0  0  0  0  0  0  0  0  0  0  0
    9.7200   -2.2600   22.8630 C   0  0  0  0  0  0  0  0  0  0  0  0
    4.6890    1.6810   18.4640 C   0  0  0  0  0  0  0  0  0  0  0  0
    5.4210    0.9600   21.0930 C   0  0  0  0  0  0  0  0  0  0  0  0
    9.3070   -3.5340   24.8780 C   0  0  0  0  0  0  0  0  0  0  0  0
   11.1891    2.1969   22.9675 C   0  0  0  0  0  0  0  0  0  0  0  0
    9.3350   -1.0880   23.5010 C   0  0  0  0  0  0  0  0  0  0  0  0
    5.8300    0.9190   18.6970 C   0  0  0  0  0  0  0  0  0  0  0  0
    6.1790    0.5730   19.9990 C   0  0  0  0  0  0  0  0  0  0  0  0
    9.0420    0.3700   21.5280 C   0  0  0  0  0  0  0  0  0  0  0  0
    9.2507   -4.8268   25.5895 C   0  0  0  0  0  0  0  0  0  0  0  0
   10.9980    0.6985   22.9845 C   0  0  0  0  0  0  0  0  0  0  0  0
    9.4560    0.1560   22.8130 C   0  0  1  0  0  0  0  0  0  0  0  0
    6.7580    0.3810   17.8350 N   0  0  0  0  0  0  0  0  0  0  0  0
    7.6390   -0.2680   18.5410 N   0  0  0  0  0  0  0  0  0  0  0  0
    7.3170   -0.1610   19.8550 N   0  0  0  0  0  0  0  0  0  0  0  0
    8.1890   -0.7180   20.8700 N   0  0  0  0  0  0  0  0  0  0  0  0
    9.2690    1.4140   20.9380 O   0  0  0  0  0  0  0  0  0  0  0  0
   11.6782    6.0415   22.9253 H   0  0  0  0  0  0  0  0  0  0  0  0
   13.4826    4.5523   22.0998 H   0  0  0  0  0  0  0  0  0  0  0  0
    9.5605    5.0692   23.7783 H   0  0  0  0  0  0  0  0  0  0  0  0
    3.0136    2.6526   19.3908 H   0  0  0  0  0  0  0  0  0  0  0  0
    3.6480    2.0140   21.6821 H   0  0  0  0  0  0  0  0  0  0  0  0
   13.1754    2.0988   22.1242 H   0  0  0  0  0  0  0  0  0  0  0  0
    9.2436    2.6172   23.8070 H   0  0  0  0  0  0  0  0  0  0  0  0
    8.6904   -2.3557   26.5808 H   0  0  0  0  0  0  0  0  0  0  0  0
    9.9249   -4.3911   22.9935 H   0  0  0  0  0  0  0  0  0  0  0  0
    8.9209   -0.1987   25.4207 H   0  0  0  0  0  0  0  0  0  0  0  0
   10.0640   -2.2315   21.8255 H   0  0  0  0  0  0  0  0  0  0  0  0
    4.4042    1.9741   17.4524 H   0  0  0  0  0  0  0  0  0  0  0  0
    5.7089    0.6919   22.1150 H   0  0  0  0  0  0  0  0  0  0  0  0
    8.2506   -5.2684   25.5009 H   0  0  0  0  0  0  0  0  0  0  0  0
    9.9820   -5.5375   25.1832 H   0  0  0  0  0  0  0  0  0  0  0  0
    9.4843   -4.7055   26.6554 H   0  0  0  0  0  0  0  0  0  0  0  0
   11.6403    0.2667   22.2043 H   0  0  0  0  0  0  0  0  0  0  0  0
   11.3821    0.2882   23.9279 H   0  0  0  0  0  0  0  0  0  0  0  0
    8.9221    0.9705   23.4866 H   0  0  0  0  0  0  0  0  0  0  0  0
    8.2712   -1.5583   21.1209 H   0  0  0  0  0  0  0  0  0  0  0  0
  1  2  1  0  0  0  0
  1  3  2  0  0  0  0
  2  6  2  0  0  0  0
  3  7  1  0  0  0  0
  4  5  1  0  0  0  0
  4 12  2  0  0  0  0
  5 13  2  0  0  0  0
  6 15  1  0  0  0  0
  7 15  2  0  0  0  0
  8 10  2  0  0  0  0
  8 14  1  0  0  0  0
  9 11  1  0  0  0  0
  9 14  2  0  0  0  0
 10 16  1  0  0  0  0
 11 16  2  0  0  0  0
 12 17  1  0  0  0  0
 13 18  1  0  0  0  0
 14 20  1  0  0  0  0
 15 21  1  0  0  0  0
 16 22  1  0  0  0  0
 17 18  2  0  0  0  0
 17 23  1  0  0  0  0
 18 25  1  0  0  0  0
 19 22  1  0  0  0  0
 19 26  1  0  0  0  0
 19 27  2  0  0  0  0
 21 22  1  1  0  0  0
 23 24  2  0  0  0  0
 24 25  1  0  0  0  0
 25 26  1  0  0  0  0
  1 28  1  0  0  0  0
  2 29  1  0  0  0  0
  3 30  1  0  0  0  0
  4 31  1  0  0  0  0
  5 32  1  0  0  0  0
  6 33  1  0  0  0  0
  7 34  1  0  0  0  0
  8 35  1  0  0  0  0
  9 36  1  0  0  0  0
 10 37  1  0  0  0  0
 11 38  1  0  0  0  0
 12 39  1  0  0  0  0
 13 40  1  0  0  0  0
 20 41  1  0  0  0  0
 20 42  1  0  0  0  0
 20 43  1  0  0  0  0
 21 44  1  0  0  0  0
 21 45  1  0  0  0  0
 22 46  1  0  0  0  0
 26 47  1  0  0  0  0
M  END
> <clash_score>
0

> <docking_score>
-10.029191017150879

> <overlap_score>
0.8877100348472595

$$$$
BENZO_181_2
  -OEChem-08232013443D

 47 50  0     1  0  0  0  0  0999 V2000
   10.8333    5.0828   22.9771 C   0  0  0  0  0  0  0  0  0  0  0  0
   11.3431    4.2172   23.9447 C   0  0  0  0  0  0  0  0  0  0  0  0
    9.6829    4.7367   22.2682 C   0  0  0  0  0  0  0  0  0  0  0  0
    3.9160    2.0630   19.5520 C   0  0  0  0  0  0  0  0  0  0  0  0
    4.2750    1.7050   20.8490 C   0  0  0  0  0  0  0  0  0  0  0  0
   10.7027    3.0054   24.2034 C   0  0  0  0  0  0  0  0  0  0  0  0
    9.0424    3.5248   22.5269 C   0  0  0  0  0  0  0  0  0  0  0  0
    8.9960   -2.3380   25.5320 C   0  0  0  0  0  0  0  0  0  0  0  0
    9.6730   -3.4710   23.5300 C   0  0  0  0  0  0  0  0  0  0  0  0
    9.0720   -1.1280   24.8640 C   0  0  0  0  0  0  0  0  0  0  0  0
    9.7200   -2.2600   22.8630 C   0  0  0  0  0  0  0  0  0  0  0  0
    4.6890    1.6810   18.4640 C   0  0  0  0  0  0  0  0  0  0  0  0
    5.4210    0.9600   21.0930 C   0  0  0  0  0  0  0  0  0  0  0  0
    9.3070   -3.5340   24.8780 C   0  0  0  0  0  0  0  0  0  0  0  0
    9.5523    2.6591   23.4945 C   0  0  0  0  0  0  0  0  0  0  0  0
    9.3350   -1.0880   23.5010 C   0  0  0  0  0  0  0  0  0  0  0  0
    5.8300    0.9190   18.6970 C   0  0  0  0  0  0  0  0  0  0  0  0
    6.1790    0.5730   19.9990 C   0  0  0  0  0  0  0  0  0  0  0  0
    9.0420    0.3700   21.5280 C   0  0  0  0  0  0  0  0  0  0  0  0
    9.2507   -4.8268   25.5895 C   0  0  0  0  0  0  0  0  0  0  0  0
    8.8584    1.3468   23.7740 C   0  0  0  0  0  0  0  0  0  0  0  0
    9.4560    0.1560   22.8130 C   0  0  2  0  0  0  0  0  0  0  0  0
    6.7580    0.3810   17.8350 N   0  0  0  0  0  0  0  0  0  0  0  0
    7.6390   -0.2680   18.5410 N   0  0  0  0  0  0  0  0  0  0  0  0
    7.3170   -0.1610   19.8550 N   0  0  0  0  0  0  0  0  0  0  0  0
    8.1890   -0.7180   20.8700 N   0  0  0  0  0  0  0  0  0  0  0  0
    9.2690    1.4140   20.9380 O   0  0  0  0  0  0  0  0  0  0  0  0
   11.3313    6.0270   22.7767 H   0  0  0  0  0  0  0  0  0  0  0  0
   12.2382    4.4870   24.4976 H   0  0  0  0  0  0  0  0  0  0  0  0
    9.2850    5.4109   21.5155 H   0  0  0  0  0  0  0  0  0  0  0  0
    3.0136    2.6526   19.3908 H   0  0  0  0  0  0  0  0  0  0  0  0
    3.6480    2.0140   21.6821 H   0  0  0  0  0  0  0  0  0  0  0  0
   11.1072    2.3370   24.9590 H   0  0  0  0  0  0  0  0  0  0  0  0
    8.1468    3.2634   21.9695 H   0  0  0  0  0  0  0  0  0  0  0  0
    8.6904   -2.3557   26.5808 H   0  0  0  0  0  0  0  0  0  0  0  0
    9.9249   -4.3911   22.9935 H   0  0  0  0  0  0  0  0  0  0  0  0
    8.9209   -0.1987   25.4207 H   0  0  0  0  0  0  0  0  0  0  0  0
   10.0640   -2.2315   21.8255 H   0  0  0  0  0  0  0  0  0  0  0  0
    4.4042    1.9741   17.4524 H   0  0  0  0  0  0  0  0  0  0  0  0
    5.7089    0.6919   22.1150 H   0  0  0  0  0  0  0  0  0  0  0  0
    8.2506   -5.2684   25.5009 H   0  0  0  0  0  0  0  0  0  0  0  0
    9.9820   -5.5375   25.1832 H   0  0  0  0  0  0  0  0  0  0  0  0
    9.4843   -4.7055   26.6554 H   0  0  0  0  0  0  0  0  0  0  0  0
    8.9548    1.1352   24.8480 H   0  0  0  0  0  0  0  0  0  0  0  0
    7.7793    1.4560   23.6018 H   0  0  0  0  0  0  0  0  0  0  0  0
   10.5986    0.4624   22.8633 H   0  0  0  0  0  0  0  0  0  0  0  0
    8.2712   -1.5583   21.1209 H   0  0  0  0  0  0  0  0  0  0  0  0
  1  2  1  0  0  0  0
  1  3  2  0  0  0  0
  2  6  2  0  0  0  0
  3  7  1  0  0  0  0
  4  5  1  0  0  0  0
  4 12  2  0  0  0  0
  5 13  2  0  0  0  0
  6 15  1  0  0  0  0
  7 15  2  0  0  0  0
  8 10  2  0  0  0  0
  8 14  1  0  0  0  0
  9 11  1  0  0  0  0
  9 14  2  0  0  0  0
 10 16  1  0  0  0  0
 11 16  2  0  0  0  0
 12 17  1  0  0  0  0
 13 18  1  0  0  0  0
 14 20  1  0  0  0  0
 15 21  1  0  0  0  0
 16 22  1  0  0  0  0
 17 18  2  0  0  0  0
 17 23  1  0  0  0  0
 18 25  1  0  0  0  0
 19 22  1  0  0  0  0
 19 26  1  0  0  0  0
 19 27  2  0  0  0  0
 21 22  1  6  0  0  0
 23 24  2  0  0  0  0
 24 25  1  0  0  0  0
 25 26  1  0  0  0  0
  1 28  1  0  0  0  0
  2 29  1  0  0  0  0
  3 30  1  0  0  0  0
  4 31  1  0  0  0  0
  5 32  1  0  0  0  0
  6 33  1  0  0  0  0
  7 34  1  0  0  0  0
  8 35  1  0  0  0  0
  9 36  1  0  0  0  0
 10 37  1  0  0  0  0
 11 38  1  0  0  0  0
 12 39  1  0  0  0  0
 13 40  1  0  0  0  0
 20 41  1  0  0  0  0
 20 42  1  0  0  0  0
 20 43  1  0  0  0  0
 21 44  1  0  0  0  0
 21 45  1  0  0  0  0
 22 46  1  0  0  0  0
 26 47  1  0  0  0  0
M  END
> <clash_score>
0

> <docking_score>
-7.236350059509277

> <overlap_score>
0.8127632737159729

$$$$
BENZO_180_2
  -OEChem-08232013443D

 44 47  0     1  0  0  0  0  0999 V2000
    3.9160    2.0630   19.5520 C   0  0  0  0  0  0  0  0  0  0  0  0
    4.2750    1.7050   20.8490 C   0  0  0  0  0  0  0  0  0  0  0  0
    8.9960   -2.3380   25.5320 C   0  0  0  0  0  0  0  0  0  0  0  0
    9.6730   -3.4710   23.5300 C   0  0  0  0  0  0  0  0  0  0  0  0
    9.0720   -1.1280   24.8640 C   0  0  0  0  0  0  0  0  0  0  0  0
    9.7200   -2.2600   22.8630 C   0  0  0  0  0  0  0  0  0  0  0  0
    4.6890    1.6810   18.4640 C   0  0  0  0  0  0  0  0  0  0  0  0
    5.4210    0.9600   21.0930 C   0  0  0  0  0  0  0  0  0  0  0  0
   10.9285    2.7711   23.1427 C   0  0  0  0  0  0  0  0  0  0  0  0
   11.3066    4.0806   22.9428 C   0  0  0  0  0  0  0  0  0  0  0  0
    8.9310    3.8875   23.5503 C   0  0  0  0  0  0  0  0  0  0  0  0
    9.3070   -3.5340   24.8780 C   0  0  0  0  0  0  0  0  0  0  0  0
    9.3350   -1.0880   23.5010 C   0  0  0  0  0  0  0  0  0  0  0  0
    9.5523    2.6591   23.4945 C   0  0  0  0  0  0  0  0  0  0  0  0
    5.8300    0.9190   18.6970 C   0  0  0  0  0  0  0  0  0  0  0  0
    6.1790    0.5730   19.9990 C   0  0  0  0  0  0  0  0  0  0  0  0
    9.0420    0.3700   21.5280 C   0  0  0  0  0  0  0  0  0  0  0  0
    9.2507   -4.8268   25.5895 C   0  0  0  0  0  0  0  0  0  0  0  0
    8.8584    1.3468   23.7740 C   0  0  0  0  0  0  0  0  0  0  0  0
    9.4560    0.1560   22.8130 C   0  0  2  0  0  0  0  0  0  0  0  0
    6.7580    0.3810   17.8350 N   0  0  0  0  0  0  0  0  0  0  0  0
    7.6390   -0.2680   18.5410 N   0  0  0  0  0  0  0  0  0  0  0  0
    7.3170   -0.1610   19.8550 N   0  0  0  0  0  0  0  0  0  0  0  0
    8.1890   -0.7180   20.8700 N   0  0  0  0  0  0  0  0  0  0  0  0
    9.2690    1.4140   20.9380 O   0  0  0  0  0  0  0  0  0  0  0  0
   10.0053    5.1683   23.1793 S   0  0  0  0  0  0  0  0  0  0  0  0
    3.0136    2.6526   19.3908 H   0  0  0  0  0  0  0  0  0  0  0  0
    3.6480    2.0140   21.6821 H   0  0  0  0  0  0  0  0  0  0  0  0
    8.6904   -2.3557   26.5808 H   0  0  0  0  0  0  0  0  0  0  0  0
    9.9249   -4.3911   22.9935 H   0  0  0  0  0  0  0  0  0  0  0  0
    8.9209   -0.1987   25.4207 H   0  0  0  0  0  0  0  0  0  0  0  0
   10.0640   -2.2315   21.8255 H   0  0  0  0  0  0  0  0  0  0  0  0
    4.4042    1.9741   17.4524 H   0  0  0  0  0  0  0  0  0  0  0  0
    5.7089    0.6919   22.1150 H   0  0  0  0  0  0  0  0  0  0  0  0
   11.6102    1.9362   23.0408 H   0  0  0  0  0  0  0  0  0  0  0  0
   12.2848    4.4506   22.6700 H   0  0  0  0  0  0  0  0  0  0  0  0
    7.8985    4.0985   23.7919 H   0  0  0  0  0  0  0  0  0  0  0  0
    8.2506   -5.2684   25.5009 H   0  0  0  0  0  0  0  0  0  0  0  0
    9.9820   -5.5375   25.1832 H   0  0  0  0  0  0  0  0  0  0  0  0
    9.4843   -4.7055   26.6554 H   0  0  0  0  0  0  0  0  0  0  0  0
    8.9548    1.1352   24.8480 H   0  0  0  0  0  0  0  0  0  0  0  0
    7.7793    1.4560   23.6018 H   0  0  0  0  0  0  0  0  0  0  0  0
   10.5986    0.4624   22.8633 H   0  0  0  0  0  0  0  0  0  0  0  0
    8.2712   -1.5583   21.1209 H   0  0  0  0  0  0  0  0  0  0  0  0
  1  2  1  0  0  0  0
  1  7  2  0  0  0  0
  2  8  2  0  0  0  0
  3  5  2  0  0  0  0
  3 12  1  0  0  0  0
  4  6  1  0  0  0  0
  4 12  2  0  0  0  0
  5 13  1  0  0  0  0
  6 13  2  0  0  0  0
  7 15  1  0  0  0  0
  8 16  1  0  0  0  0
  9 10  2  0  0  0  0
  9 14  1  0  0  0  0
 10 26  1  0  0  0  0
 11 14  2  0  0  0  0
 11 26  1  0  0  0  0
 12 18  1  0  0  0  0
 13 20  1  0  0  0  0
 14 19  1  0  0  0  0
 15 16  2  0  0  0  0
 15 21  1  0  0  0  0
 16 23  1  0  0  0  0
 17 20  1  0  0  0  0
 17 24  1  0  0  0  0
 17 25  2  0  0  0  0
 19 20  1  6  0  0  0
 21 22  2  0  0  0  0
 22 23  1  0  0  0  0
 23 24  1  0  0  0  0
  1 27  1  0  0  0  0
  2 28  1  0  0  0  0
  3 29  1  0  0  0  0
  4 30  1  0  0  0  0
  5 31  1  0  0  0  0
  6 32  1  0  0  0  0
  7 33  1  0  0  0  0
  8 34  1  0  0  0  0
  9 35  1  0  0  0  0
 10 36  1  0  0  0  0
 11 37  1  0  0  0  0
 18 38  1  0  0  0  0
 18 39  1  0  0  0  0
 18 40  1  0  0  0  0
 19 41  1  0  0  0  0
 19 42  1  0  0  0  0
 20 43  1  0  0  0  0
 24 44  1  0  0  0  0
M  END
> <clash_score>
0

> <docking_score>
-8.450019836425781

> <overlap_score>
0.8278226852416992

$$$$
BENZO_182_1
  -OEChem-08232013443D

 47 50  0     1  0  0  0  0  0999 V2000
    3.9160    2.0630   19.5520 C   0  0  0  0  0  0  0  0  0  0  0  0
    4.2750    1.7050   20.8490 C   0  0  0  0  0  0  0  0  0  0  0  0
   10.3511    4.4175   23.4183 C   0  0  0  0  0  0  0  0  0  0  0  0
   10.1749    3.0340   23.4326 C   0  0  0  0  0  0  0  0  0  0  0  0
    8.9960   -2.3380   25.5320 C   0  0  0  0  0  0  0  0  0  0  0  0
    9.6730   -3.4710   23.5300 C   0  0  0  0  0  0  0  0  0  0  0  0
    9.0720   -1.1280   24.8640 C   0  0  0  0  0  0  0  0  0  0  0  0
    9.7200   -2.2600   22.8630 C   0  0  0  0  0  0  0  0  0  0  0  0
    4.6890    1.6810   18.4640 C   0  0  0  0  0  0  0  0  0  0  0  0
    5.4210    0.9600   21.0930 C   0  0  0  0  0  0  0  0  0  0  0  0
   11.5416    4.9641   22.9388 C   0  0  0  0  0  0  0  0  0  0  0  0
   12.3796    2.7434   22.4881 C   0  0  0  0  0  0  0  0  0  0  0  0
    9.3070   -3.5340   24.8780 C   0  0  0  0  0  0  0  0  0  0  0  0
    9.3350   -1.0880   23.5010 C   0  0  0  0  0  0  0  0  0  0  0  0
   11.1891    2.1969   22.9675 C   0  0  0  0  0  0  0  0  0  0  0  0
    5.8300    0.9190   18.6970 C   0  0  0  0  0  0  0  0  0  0  0  0
    6.1790    0.5730   19.9990 C   0  0  0  0  0  0  0  0  0  0  0  0
   12.5558    4.1270   22.4738 C   0  0  0  0  0  0  0  0  0  0  0  0
    9.0420    0.3700   21.5280 C   0  0  0  0  0  0  0  0  0  0  0  0
    9.2507   -4.8268   25.5895 C   0  0  0  0  0  0  0  0  0  0  0  0
   10.9980    0.6985   22.9845 C   0  0  0  0  0  0  0  0  0  0  0  0
    9.4560    0.1560   22.8130 C   0  0  1  0  0  0  0  0  0  0  0  0
    6.7580    0.3810   17.8350 N   0  0  0  0  0  0  0  0  0  0  0  0
    7.6390   -0.2680   18.5410 N   0  0  0  0  0  0  0  0  0  0  0  0
    7.3170   -0.1610   19.8550 N   0  0  0  0  0  0  0  0  0  0  0  0
    8.1890   -0.7180   20.8700 N   0  0  0  0  0  0  0  0  0  0  0  0
    9.2690    1.4140   20.9380 O   0  0  0  0  0  0  0  0  0  0  0  0
   14.0247    4.8018   21.8834 Cl  0  0  0  0  0  0  0  0  0  0  0  0
    3.0136    2.6526   19.3908 H   0  0  0  0  0  0  0  0  0  0  0  0
    3.6480    2.0140   21.6821 H   0  0  0  0  0  0  0  0  0  0  0  0
    9.5612    5.0691   23.7807 H   0  0  0  0  0  0  0  0  0  0  0  0
    9.2441    2.6169   23.8081 H   0  0  0  0  0  0  0  0  0  0  0  0
    8.6904   -2.3557   26.5808 H   0  0  0  0  0  0  0  0  0  0  0  0
    9.9249   -4.3911   22.9935 H   0  0  0  0  0  0  0  0  0  0  0  0
    8.9209   -0.1987   25.4207 H   0  0  0  0  0  0  0  0  0  0  0  0
   10.0640   -2.2315   21.8255 H   0  0  0  0  0  0  0  0  0  0  0  0
    4.4042    1.9741   17.4524 H   0  0  0  0  0  0  0  0  0  0  0  0
    5.7089    0.6919   22.1150 H   0  0  0  0  0  0  0  0  0  0  0  0
   11.6651    6.0443   22.9339 H   0  0  0  0  0  0  0  0  0  0  0  0
   13.1671    2.0865   22.1261 H   0  0  0  0  0  0  0  0  0  0  0  0
    8.2506   -5.2684   25.5009 H   0  0  0  0  0  0  0  0  0  0  0  0
    9.9820   -5.5375   25.1832 H   0  0  0  0  0  0  0  0  0  0  0  0
    9.4843   -4.7055   26.6554 H   0  0  0  0  0  0  0  0  0  0  0  0
   11.6403    0.2667   22.2043 H   0  0  0  0  0  0  0  0  0  0  0  0
   11.3821    0.2882   23.9279 H   0  0  0  0  0  0  0  0  0  0  0  0
    8.9221    0.9705   23.4866 H   0  0  0  0  0  0  0  0  0  0  0  0
    8.2712   -1.5583   21.1209 H   0  0  0  0  0  0  0  0  0  0  0  0
  1  2  1  0  0  0  0
  1  9  2  0  0  0  0
  2 10  2  0  0  0  0
  3  4  2  0  0  0  0
  3 11  1  0  0  0  0
  4 15  1  0  0  0  0
  5  7  2  0  0  0  0
  5 13  1  0  0  0  0
  6  8  1  0  0  0  0
  6 13  2  0  0  0  0
  7 14  1  0  0  0  0
  8 14  2  0  0  0  0
  9 16  1  0  0  0  0
 10 17  1  0  0  0  0
 11 18  2  0  0  0  0
 12 15  2  0  0  0  0
 12 18  1  0  0  0  0
 13 20  1  0  0  0  0
 14 22  1  0  0  0  0
 15 21  1  0  0  0  0
 16 17  2  0  0  0  0
 16 23  1  0  0  0  0
 17 25  1  0  0  0  0
 18 28  1  0  0  0  0
 19 22  1  0  0  0  0
 19 26  1  0  0  0  0
 19 27  2  0  0  0  0
 21 22  1  1  0  0  0
 23 24  2  0  0  0  0
 24 25  1  0  0  0  0
 25 26  1  0  0  0  0
  1 29  1  0  0  0  0
  2 30  1  0  0  0  0
  3 31  1  0  0  0  0
  4 32  1  0  0  0  0
  5 33  1  0  0  0  0
  6 34  1  0  0  0  0
  7 35  1  0  0  0  0
  8 36  1  0  0  0  0
  9 37  1  0  0  0  0
 10 38  1  0  0  0  0
 11 39  1  0  0  0  0
 12 40  1  0  0  0  0
 20 41  1  0  0  0  0
 20 42  1  0  0  0  0
 20 43  1  0  0  0  0
 21 44  1  0  0  0  0
 21 45  1  0  0  0  0
 22 46  1  0  0  0  0
 26 47  1  0  0  0  0
M  END
> <clash_score>
0

> <docking_score>
-10.298104286193848

> <overlap_score>
0.888586699962616

$$$$
BENZO_182_2
  -OEChem-08232013443D

 47 50  0     1  0  0  0  0  0999 V2000
    3.9160    2.0630   19.5520 C   0  0  0  0  0  0  0  0  0  0  0  0
    4.2750    1.7050   20.8490 C   0  0  0  0  0  0  0  0  0  0  0  0
    9.6814    4.7377   22.2699 C   0  0  0  0  0  0  0  0  0  0  0  0
    9.0418    3.5253   22.5276 C   0  0  0  0  0  0  0  0  0  0  0  0
    8.9960   -2.3380   25.5320 C   0  0  0  0  0  0  0  0  0  0  0  0
    9.6730   -3.4710   23.5300 C   0  0  0  0  0  0  0  0  0  0  0  0
    9.0720   -1.1280   24.8640 C   0  0  0  0  0  0  0  0  0  0  0  0
    9.7200   -2.2600   22.8630 C   0  0  0  0  0  0  0  0  0  0  0  0
    4.6890    1.6810   18.4640 C   0  0  0  0  0  0  0  0  0  0  0  0
    5.4210    0.9600   21.0930 C   0  0  0  0  0  0  0  0  0  0  0  0
   10.8316    5.0840   22.9789 C   0  0  0  0  0  0  0  0  0  0  0  0
   10.7025    3.0055   24.2036 C   0  0  0  0  0  0  0  0  0  0  0  0
    9.3070   -3.5340   24.8780 C   0  0  0  0  0  0  0  0  0  0  0  0
    9.3350   -1.0880   23.5010 C   0  0  0  0  0  0  0  0  0  0  0  0
    9.5523    2.6591   23.4945 C   0  0  0  0  0  0  0  0  0  0  0  0
    5.8300    0.9190   18.6970 C   0  0  0  0  0  0  0  0  0  0  0  0
    6.1790    0.5730   19.9990 C   0  0  0  0  0  0  0  0  0  0  0  0
   11.3422    4.2179   23.9458 C   0  0  0  0  0  0  0  0  0  0  0  0
    9.0420    0.3700   21.5280 C   0  0  0  0  0  0  0  0  0  0  0  0
    9.2507   -4.8268   25.5895 C   0  0  0  0  0  0  0  0  0  0  0  0
    8.8584    1.3468   23.7740 C   0  0  0  0  0  0  0  0  0  0  0  0
    9.4560    0.1560   22.8130 C   0  0  2  0  0  0  0  0  0  0  0  0
    6.7580    0.3810   17.8350 N   0  0  0  0  0  0  0  0  0  0  0  0
    7.6390   -0.2680   18.5410 N   0  0  0  0  0  0  0  0  0  0  0  0
    7.3170   -0.1610   19.8550 N   0  0  0  0  0  0  0  0  0  0  0  0
    8.1890   -0.7180   20.8700 N   0  0  0  0  0  0  0  0  0  0  0  0
    9.2690    1.4140   20.9380 O   0  0  0  0  0  0  0  0  0  0  0  0
   12.7607    4.6463   24.8210 Cl  0  0  0  0  0  0  0  0  0  0  0  0
    3.0136    2.6526   19.3908 H   0  0  0  0  0  0  0  0  0  0  0  0
    3.6480    2.0140   21.6821 H   0  0  0  0  0  0  0  0  0  0  0  0
    9.2834    5.4119   21.5170 H   0  0  0  0  0  0  0  0  0  0  0  0
    8.1460    3.2636   21.9704 H   0  0  0  0  0  0  0  0  0  0  0  0
    8.6904   -2.3557   26.5808 H   0  0  0  0  0  0  0  0  0  0  0  0
    9.9249   -4.3911   22.9935 H   0  0  0  0  0  0  0  0  0  0  0  0
    8.9209   -0.1987   25.4207 H   0  0  0  0  0  0  0  0  0  0  0  0
   10.0640   -2.2315   21.8255 H   0  0  0  0  0  0  0  0  0  0  0  0
    4.4042    1.9741   17.4524 H   0  0  0  0  0  0  0  0  0  0  0  0
    5.7089    0.6919   22.1150 H   0  0  0  0  0  0  0  0  0  0  0  0
   11.3195    6.0324   22.7676 H   0  0  0  0  0  0  0  0  0  0  0  0
   11.0970    2.3265   24.9561 H   0  0  0  0  0  0  0  0  0  0  0  0
    8.2506   -5.2684   25.5009 H   0  0  0  0  0  0  0  0  0  0  0  0
    9.9820   -5.5375   25.1832 H   0  0  0  0  0  0  0  0  0  0  0  0
    9.4843   -4.7055   26.6554 H   0  0  0  0  0  0  0  0  0  0  0  0
    8.9548    1.1352   24.8480 H   0  0  0  0  0  0  0  0  0  0  0  0
    7.7793    1.4560   23.6018 H   0  0  0  0  0  0  0  0  0  0  0  0
   10.5986    0.4624   22.8633 H   0  0  0  0  0  0  0  0  0  0  0  0
    8.2712   -1.5583   21.1209 H   0  0  0  0  0  0  0  0  0  0  0  0
  1  2  1  0  0  0  0
  1  9  2  0  0  0  0
  2 10  2  0  0  0  0
  3  4  2  0  0  0  0
  3 11  1  0  0  0  0
  4 15  1  0  0  0  0
  5  7  2  0  0  0  0
  5 13  1  0  0  0  0
  6  8  1  0  0  0  0
  6 13  2  0  0  0  0
  7 14  1  0  0  0  0
  8 14  2  0  0  0  0
  9 16  1  0  0  0  0
 10 17  1  0  0  0  0
 11 18  2  0  0  0  0
 12 15  2  0  0  0  0
 12 18  1  0  0  0  0
 13 20  1  0  0  0  0
 14 22  1  0  0  0  0
 15 21  1  0  0  0  0
 16 17  2  0  0  0  0
 16 23  1  0  0  0  0
 17 25  1  0  0  0  0
 18 28  1  0  0  0  0
 19 22  1  0  0  0  0
 19 26  1  0  0  0  0
 19 27  2  0  0  0  0
 21 22  1  6  0  0  0
 23 24  2  0  0  0  0
 24 25  1  0  0  0  0
 25 26  1  0  0  0  0
  1 29  1  0  0  0  0
  2 30  1  0  0  0  0
  3 31  1  0  0  0  0
  4 32  1  0  0  0  0
  5 33  1  0  0  0  0
  6 34  1  0  0  0  0
  7 35  1  0  0  0  0
  8 36  1  0  0  0  0
  9 37  1  0  0  0  0
 10 38  1  0  0  0  0
 11 39  1  0  0  0  0
 12 40  1  0  0  0  0
 20 41  1  0  0  0  0
 20 42  1  0  0  0  0
 20 43  1  0  0  0  0
 21 44  1  0  0  0  0
 21 45  1  0  0  0  0
 22 46  1  0  0  0  0
 26 47  1  0  0  0  0
M  END
> <clash_score>
0

> <docking_score>
-6.502793312072754

> <overlap_score>
0.8131726384162903

$$$$
BENZO_183_1
  -OEChem-08232013443D

 47 50  0     1  0  0  0  0  0999 V2000
    3.9160    2.0630   19.5520 C   0  0  0  0  0  0  0  0  0  0  0  0
    4.2750    1.7050   20.8490 C   0  0  0  0  0  0  0  0  0  0  0  0
    8.9960   -2.3380   25.5320 C   0  0  0  0  0  0  0  0  0  0  0  0
    9.6730   -3.4710   23.5300 C   0  0  0  0  0  0  0  0  0  0  0  0
    9.0720   -1.1280   24.8640 C   0  0  0  0  0  0  0  0  0  0  0  0
    9.7200   -2.2600   22.8630 C   0  0  0  0  0  0  0  0  0  0  0  0
    4.6890    1.6810   18.4640 C   0  0  0  0  0  0  0  0  0  0  0  0
    5.4210    0.9600   21.0930 C   0  0  0  0  0  0  0  0  0  0  0  0
   10.2850    3.1879   23.3945 C   0  0  0  0  0  0  0  0  0  0  0  0
   12.2874    2.8981   22.5336 C   0  0  0  0  0  0  0  0  0  0  0  0
    9.3070   -3.5340   24.8780 C   0  0  0  0  0  0  0  0  0  0  0  0
    9.3350   -1.0880   23.5010 C   0  0  0  0  0  0  0  0  0  0  0  0
   11.1891    2.1969   22.9675 C   0  0  0  0  0  0  0  0  0  0  0  0
    5.8300    0.9190   18.6970 C   0  0  0  0  0  0  0  0  0  0  0  0
    6.1790    0.5730   19.9990 C   0  0  0  0  0  0  0  0  0  0  0  0
    9.0420    0.3700   21.5280 C   0  0  0  0  0  0  0  0  0  0  0  0
    9.2507   -4.8268   25.5895 C   0  0  0  0  0  0  0  0  0  0  0  0
   12.8361    5.3400   22.4104 C   0  0  0  0  0  0  0  0  0  0  0  0
   10.9980    0.6985   22.9845 C   0  0  0  0  0  0  0  0  0  0  0  0
    9.4560    0.1560   22.8130 C   0  0  1  0  0  0  0  0  0  0  0  0
   10.7672    4.4245   23.2454 N   0  0  0  0  0  0  0  0  0  0  0  0
    6.7580    0.3810   17.8350 N   0  0  0  0  0  0  0  0  0  0  0  0
    7.6390   -0.2680   18.5410 N   0  0  0  0  0  0  0  0  0  0  0  0
   11.9863    4.2152   22.7200 N   0  0  0  0  0  0  0  0  0  0  0  0
    7.3170   -0.1610   19.8550 N   0  0  0  0  0  0  0  0  0  0  0  0
    8.1890   -0.7180   20.8700 N   0  0  0  0  0  0  0  0  0  0  0  0
    9.2690    1.4140   20.9380 O   0  0  0  0  0  0  0  0  0  0  0  0
    3.0136    2.6526   19.3908 H   0  0  0  0  0  0  0  0  0  0  0  0
    3.6480    2.0140   21.6821 H   0  0  0  0  0  0  0  0  0  0  0  0
    8.6904   -2.3557   26.5808 H   0  0  0  0  0  0  0  0  0  0  0  0
    9.9249   -4.3911   22.9935 H   0  0  0  0  0  0  0  0  0  0  0  0
    8.9209   -0.1987   25.4207 H   0  0  0  0  0  0  0  0  0  0  0  0
   10.0640   -2.2315   21.8255 H   0  0  0  0  0  0  0  0  0  0  0  0
    4.4042    1.9741   17.4524 H   0  0  0  0  0  0  0  0  0  0  0  0
    5.7089    0.6919   22.1150 H   0  0  0  0  0  0  0  0  0  0  0  0
    9.2947    3.0629   23.8091 H   0  0  0  0  0  0  0  0  0  0  0  0
   13.2346    2.5800   22.1195 H   0  0  0  0  0  0  0  0  0  0  0  0
    8.2506   -5.2684   25.5009 H   0  0  0  0  0  0  0  0  0  0  0  0
    9.9820   -5.5375   25.1832 H   0  0  0  0  0  0  0  0  0  0  0  0
    9.4843   -4.7055   26.6554 H   0  0  0  0  0  0  0  0  0  0  0  0
   12.6295    5.6456   21.3814 H   0  0  0  0  0  0  0  0  0  0  0  0
   12.6226    6.1591   23.1027 H   0  0  0  0  0  0  0  0  0  0  0  0
   13.8829    5.0428   22.5193 H   0  0  0  0  0  0  0  0  0  0  0  0
   11.6403    0.2667   22.2043 H   0  0  0  0  0  0  0  0  0  0  0  0
   11.3821    0.2882   23.9279 H   0  0  0  0  0  0  0  0  0  0  0  0
    8.9221    0.9705   23.4866 H   0  0  0  0  0  0  0  0  0  0  0  0
    8.2712   -1.5583   21.1209 H   0  0  0  0  0  0  0  0  0  0  0  0
  1  2  1  0  0  0  0
  1  7  2  0  0  0  0
  2  8  2  0  0  0  0
  3  5  2  0  0  0  0
  3 11  1  0  0  0  0
  4  6  1  0  0  0  0
  4 11  2  0  0  0  0
  5 12  1  0  0  0  0
  6 12  2  0  0  0  0
  7 14  1  0  0  0  0
  8 15  1  0  0  0  0
  9 13  1  0  0  0  0
  9 21  2  0  0  0  0
 10 13  2  0  0  0  0
 10 24  1  0  0  0  0
 11 17  1  0  0  0  0
 12 20  1  0  0  0  0
 13 19  1  0  0  0  0
 14 15  2  0  0  0  0
 14 22  1  0  0  0  0
 15 25  1  0  0  0  0
 16 20  1  0  0  0  0
 16 26  1  0  0  0  0
 16 27  2  0  0  0  0
 18 24  1  0  0  0  0
 19 20  1  1  0  0  0
 21 24  1  0  0  0  0
 22 23  2  0  0  0  0
 23 25  1  0  0  0  0
 25 26  1  0  0  0  0
  1 28  1  0  0  0  0
  2 29  1  0  0  0  0
  3 30  1  0  0  0  0
  4 31  1  0  0  0  0
  5 32  1  0  0  0  0
  6 33  1  0  0  0  0
  7 34  1  0  0  0  0
  8 35  1  0  0  0  0
  9 36  1  0  0  0  0
 10 37  1  0  0  0  0
 17 38  1  0  0  0  0
 17 39  1  0  0  0  0
 17 40  1  0  0  0  0
 18 41  1  0  0  0  0
 18 42  1  0  0  0  0
 18 43  1  0  0  0  0
 19 44  1  0  0  0  0
 19 45  1  0  0  0  0
 20 46  1  0  0  0  0
 26 47  1  0  0  0  0
M  END
> <clash_score>
0

> <docking_score>
-9.92874813079834

> <overlap_score>
0.884375274181366

$$$$
BENZO_183_2
  -OEChem-08232013443D

 47 50  0     1  0  0  0  0  0999 V2000
    3.9160    2.0630   19.5520 C   0  0  0  0  0  0  0  0  0  0  0  0
    4.2750    1.7050   20.8490 C   0  0  0  0  0  0  0  0  0  0  0  0
    8.9960   -2.3380   25.5320 C   0  0  0  0  0  0  0  0  0  0  0  0
    9.6730   -3.4710   23.5300 C   0  0  0  0  0  0  0  0  0  0  0  0
    9.0720   -1.1280   24.8640 C   0  0  0  0  0  0  0  0  0  0  0  0
    9.7200   -2.2600   22.8630 C   0  0  0  0  0  0  0  0  0  0  0  0
    4.6890    1.6810   18.4640 C   0  0  0  0  0  0  0  0  0  0  0  0
    5.4210    0.9600   21.0930 C   0  0  0  0  0  0  0  0  0  0  0  0
    9.0261    3.9587   23.6213 C   0  0  0  0  0  0  0  0  0  0  0  0
   10.8415    2.8515   23.0615 C   0  0  0  0  0  0  0  0  0  0  0  0
    9.3070   -3.5340   24.8780 C   0  0  0  0  0  0  0  0  0  0  0  0
    9.3350   -1.0880   23.5010 C   0  0  0  0  0  0  0  0  0  0  0  0
    9.5523    2.6591   23.4945 C   0  0  0  0  0  0  0  0  0  0  0  0
    5.8300    0.9190   18.6970 C   0  0  0  0  0  0  0  0  0  0  0  0
    6.1790    0.5730   19.9990 C   0  0  0  0  0  0  0  0  0  0  0  0
    9.0420    0.3700   21.5280 C   0  0  0  0  0  0  0  0  0  0  0  0
    9.2507   -4.8268   25.5895 C   0  0  0  0  0  0  0  0  0  0  0  0
   12.1989    4.8919   22.5395 C   0  0  0  0  0  0  0  0  0  0  0  0
    8.8584    1.3468   23.7740 C   0  0  0  0  0  0  0  0  0  0  0  0
    9.4560    0.1560   22.8130 C   0  0  2  0  0  0  0  0  0  0  0  0
    9.9089    4.9065   23.2953 N   0  0  0  0  0  0  0  0  0  0  0  0
    6.7580    0.3810   17.8350 N   0  0  0  0  0  0  0  0  0  0  0  0
    7.6390   -0.2680   18.5410 N   0  0  0  0  0  0  0  0  0  0  0  0
   11.0029    4.2019   22.9595 N   0  0  0  0  0  0  0  0  0  0  0  0
    7.3170   -0.1610   19.8550 N   0  0  0  0  0  0  0  0  0  0  0  0
    8.1890   -0.7180   20.8700 N   0  0  0  0  0  0  0  0  0  0  0  0
    9.2690    1.4140   20.9380 O   0  0  0  0  0  0  0  0  0  0  0  0
    3.0136    2.6526   19.3908 H   0  0  0  0  0  0  0  0  0  0  0  0
    3.6480    2.0140   21.6821 H   0  0  0  0  0  0  0  0  0  0  0  0
    8.6904   -2.3557   26.5808 H   0  0  0  0  0  0  0  0  0  0  0  0
    9.9249   -4.3911   22.9935 H   0  0  0  0  0  0  0  0  0  0  0  0
    8.9209   -0.1987   25.4207 H   0  0  0  0  0  0  0  0  0  0  0  0
   10.0640   -2.2315   21.8255 H   0  0  0  0  0  0  0  0  0  0  0  0
    4.4042    1.9741   17.4524 H   0  0  0  0  0  0  0  0  0  0  0  0
    5.7089    0.6919   22.1150 H   0  0  0  0  0  0  0  0  0  0  0  0
    8.0368    4.2571   23.9382 H   0  0  0  0  0  0  0  0  0  0  0  0
   11.6384    2.1596   22.8244 H   0  0  0  0  0  0  0  0  0  0  0  0
    8.2506   -5.2684   25.5009 H   0  0  0  0  0  0  0  0  0  0  0  0
    9.9820   -5.5375   25.1832 H   0  0  0  0  0  0  0  0  0  0  0  0
    9.4843   -4.7055   26.6554 H   0  0  0  0  0  0  0  0  0  0  0  0
   12.1524    5.0177   21.4546 H   0  0  0  0  0  0  0  0  0  0  0  0
   12.2509    5.8653   23.0353 H   0  0  0  0  0  0  0  0  0  0  0  0
   13.0749    4.3001   22.8196 H   0  0  0  0  0  0  0  0  0  0  0  0
    8.9548    1.1352   24.8480 H   0  0  0  0  0  0  0  0  0  0  0  0
    7.7793    1.4560   23.6018 H   0  0  0  0  0  0  0  0  0  0  0  0
   10.5986    0.4624   22.8633 H   0  0  0  0  0  0  0  0  0  0  0  0
    8.2712   -1.5583   21.1209 H   0  0  0  0  0  0  0  0  0  0  0  0
  1  2  1  0  0  0  0
  1  7  2  0  0  0  0
  2  8  2  0  0  0  0
  3  5  2  0  0  0  0
  3 11  1  0  0  0  0
  4  6  1  0  0  0  0
  4 11  2  0  0  0  0
  5 12  1  0  0  0  0
  6 12  2  0  0  0  0
  7 14  1  0  0  0  0
  8 15  1  0  0  0  0
  9 13  1  0  0  0  0
  9 21  2  0  0  0  0
 10 13  2  0  0  0  0
 10 24  1  0  0  0  0
 11 17  1  0  0  0  0
 12 20  1  0  0  0  0
 13 19  1  0  0  0  0
 14 15  2  0  0  0  0
 14 22  1  0  0  0  0
 15 25  1  0  0  0  0
 16 20  1  0  0  0  0
 16 26  1  0  0  0  0
 16 27  2  0  0  0  0
 18 24  1  0  0  0  0
 19 20  1  6  0  0  0
 21 24  1  0  0  0  0
 22 23  2  0  0  0  0
 23 25  1  0  0  0  0
 25 26  1  0  0  0  0
  1 28  1  0  0  0  0
  2 29  1  0  0  0  0
  3 30  1  0  0  0  0
  4 31  1  0  0  0  0
  5 32  1  0  0  0  0
  6 33  1  0  0  0  0
  7 34  1  0  0  0  0
  8 35  1  0  0  0  0
  9 36  1  0  0  0  0
 10 37  1  0  0  0  0
 17 38  1  0  0  0  0
 17 39  1  0  0  0  0
 17 40  1  0  0  0  0
 18 41  1  0  0  0  0
 18 42  1  0  0  0  0
 18 43  1  0  0  0  0
 19 44  1  0  0  0  0
 19 45  1  0  0  0  0
 20 46  1  0  0  0  0
 26 47  1  0  0  0  0
M  END
> <clash_score>
0

> <docking_score>
-7.750587463378906

> <overlap_score>
0.8247486352920532

$$$$
BENZO_185_1
  -OEChem-08232013443D

 48 51  0     1  0  0  0  0  0999 V2000
   11.5406    4.9642   22.9363 C   0  0  0  0  0  0  0  0  0  0  0  0
   12.5552    4.1270   22.4723 C   0  0  0  0  0  0  0  0  0  0  0  0
   10.3502    4.4177   23.4160 C   0  0  0  0  0  0  0  0  0  0  0  0
    3.9160    2.0630   19.5520 C   0  0  0  0  0  0  0  0  0  0  0  0
    4.2750    1.7050   20.8490 C   0  0  0  0  0  0  0  0  0  0  0  0
   12.3795    2.7434   22.4879 C   0  0  0  0  0  0  0  0  0  0  0  0
   10.1745    3.0341   23.4316 C   0  0  0  0  0  0  0  0  0  0  0  0
    9.0720   -1.1280   24.8640 C   0  0  0  0  0  0  0  0  0  0  0  0
    9.7200   -2.2600   22.8630 C   0  0  0  0  0  0  0  0  0  0  0  0
    4.6890    1.6810   18.4640 C   0  0  0  0  0  0  0  0  0  0  0  0
    5.4210    0.9600   21.0930 C   0  0  0  0  0  0  0  0  0  0  0  0
    8.9960   -2.3380   25.5320 C   0  0  0  0  0  0  0  0  0  0  0  0
    9.6730   -3.4710   23.5300 C   0  0  0  0  0  0  0  0  0  0  0  0
   11.1891    2.1969   22.9675 C   0  0  0  0  0  0  0  0  0  0  0  0
    9.3350   -1.0880   23.5010 C   0  0  0  0  0  0  0  0  0  0  0  0
    5.8300    0.9190   18.6970 C   0  0  0  0  0  0  0  0  0  0  0  0
    6.1790    0.5730   19.9990 C   0  0  0  0  0  0  0  0  0  0  0  0
    9.3070   -3.5340   24.8780 C   0  0  0  0  0  0  0  0  0  0  0  0
    9.0420    0.3700   21.5280 C   0  0  0  0  0  0  0  0  0  0  0  0
    8.8744   -4.6797   26.9022 C   0  0  0  0  0  0  0  0  0  0  0  0
   10.9980    0.6985   22.9845 C   0  0  0  0  0  0  0  0  0  0  0  0
    9.4560    0.1560   22.8130 C   0  0  1  0  0  0  0  0  0  0  0  0
    6.7580    0.3810   17.8350 N   0  0  0  0  0  0  0  0  0  0  0  0
    7.6390   -0.2680   18.5410 N   0  0  0  0  0  0  0  0  0  0  0  0
    7.3170   -0.1610   19.8550 N   0  0  0  0  0  0  0  0  0  0  0  0
    8.1890   -0.7180   20.8700 N   0  0  0  0  0  0  0  0  0  0  0  0
    9.2690    1.4140   20.9380 O   0  0  0  0  0  0  0  0  0  0  0  0
    9.2567   -4.7121   25.5280 O   0  0  0  0  0  0  0  0  0  0  0  0
   11.6782    6.0415   22.9253 H   0  0  0  0  0  0  0  0  0  0  0  0
   13.4826    4.5523   22.0998 H   0  0  0  0  0  0  0  0  0  0  0  0
    9.5605    5.0692   23.7783 H   0  0  0  0  0  0  0  0  0  0  0  0
    3.0136    2.6526   19.3908 H   0  0  0  0  0  0  0  0  0  0  0  0
    3.6480    2.0140   21.6821 H   0  0  0  0  0  0  0  0  0  0  0  0
   13.1754    2.0988   22.1242 H   0  0  0  0  0  0  0  0  0  0  0  0
    9.2436    2.6172   23.8070 H   0  0  0  0  0  0  0  0  0  0  0  0
    8.9224   -0.1986   25.4209 H   0  0  0  0  0  0  0  0  0  0  0  0
   10.0638   -2.2321   21.8253 H   0  0  0  0  0  0  0  0  0  0  0  0
    4.4042    1.9741   17.4524 H   0  0  0  0  0  0  0  0  0  0  0  0
    5.7089    0.6919   22.1150 H   0  0  0  0  0  0  0  0  0  0  0  0
    8.6903   -2.3588   26.5807 H   0  0  0  0  0  0  0  0  0  0  0  0
    9.9258   -4.3917   22.9962 H   0  0  0  0  0  0  0  0  0  0  0  0
    8.8744   -5.6954   27.3053 H   0  0  0  0  0  0  0  0  0  0  0  0
    7.8781   -4.2399   26.9939 H   0  0  0  0  0  0  0  0  0  0  0  0
    9.5921   -4.0702   27.4565 H   0  0  0  0  0  0  0  0  0  0  0  0
   11.6403    0.2667   22.2043 H   0  0  0  0  0  0  0  0  0  0  0  0
   11.3821    0.2882   23.9279 H   0  0  0  0  0  0  0  0  0  0  0  0
    8.9221    0.9705   23.4866 H   0  0  0  0  0  0  0  0  0  0  0  0
    8.2712   -1.5583   21.1209 H   0  0  0  0  0  0  0  0  0  0  0  0
  1  2  1  0  0  0  0
  1  3  2  0  0  0  0
  2  6  2  0  0  0  0
  3  7  1  0  0  0  0
  4  5  1  0  0  0  0
  4 10  2  0  0  0  0
  5 11  2  0  0  0  0
  6 14  1  0  0  0  0
  7 14  2  0  0  0  0
  8 12  2  0  0  0  0
  8 15  1  0  0  0  0
  9 13  1  0  0  0  0
  9 15  2  0  0  0  0
 10 16  1  0  0  0  0
 11 17  1  0  0  0  0
 12 18  1  0  0  0  0
 13 18  2  0  0  0  0
 14 21  1  0  0  0  0
 15 22  1  0  0  0  0
 16 17  2  0  0  0  0
 16 23  1  0  0  0  0
 17 25  1  0  0  0  0
 18 28  1  0  0  0  0
 19 22  1  0  0  0  0
 19 26  1  0  0  0  0
 19 27  2  0  0  0  0
 20 28  1  0  0  0  0
 21 22  1  1  0  0  0
 23 24  2  0  0  0  0
 24 25  1  0  0  0  0
 25 26  1  0  0  0  0
  1 29  1  0  0  0  0
  2 30  1  0  0  0  0
  3 31  1  0  0  0  0
  4 32  1  0  0  0  0
  5 33  1  0  0  0  0
  6 34  1  0  0  0  0
  7 35  1  0  0  0  0
  8 36  1  0  0  0  0
  9 37  1  0  0  0  0
 10 38  1  0  0  0  0
 11 39  1  0  0  0  0
 12 40  1  0  0  0  0
 13 41  1  0  0  0  0
 20 42  1  0  0  0  0
 20 43  1  0  0  0  0
 20 44  1  0  0  0  0
 21 45  1  0  0  0  0
 21 46  1  0  0  0  0
 22 47  1  0  0  0  0
 26 48  1  0  0  0  0
M  END
> <clash_score>
0

> <docking_score>
-9.76357364654541

> <overlap_score>
0.9101421236991882

$$$$
BENZO_185_2
  -OEChem-08232013443D

 48 51  0     1  0  0  0  0  0999 V2000
   10.8333    5.0828   22.9771 C   0  0  0  0  0  0  0  0  0  0  0  0
   11.3431    4.2172   23.9447 C   0  0  0  0  0  0  0  0  0  0  0  0
    9.6829    4.7367   22.2682 C   0  0  0  0  0  0  0  0  0  0  0  0
    3.9160    2.0630   19.5520 C   0  0  0  0  0  0  0  0  0  0  0  0
    4.2750    1.7050   20.8490 C   0  0  0  0  0  0  0  0  0  0  0  0
   10.7027    3.0054   24.2034 C   0  0  0  0  0  0  0  0  0  0  0  0
    9.0424    3.5248   22.5269 C   0  0  0  0  0  0  0  0  0  0  0  0
    9.0720   -1.1280   24.8640 C   0  0  0  0  0  0  0  0  0  0  0  0
    9.7200   -2.2600   22.8630 C   0  0  0  0  0  0  0  0  0  0  0  0
    4.6890    1.6810   18.4640 C   0  0  0  0  0  0  0  0  0  0  0  0
    5.4210    0.9600   21.0930 C   0  0  0  0  0  0  0  0  0  0  0  0
    8.9960   -2.3380   25.5320 C   0  0  0  0  0  0  0  0  0  0  0  0
    9.6730   -3.4710   23.5300 C   0  0  0  0  0  0  0  0  0  0  0  0
    9.5523    2.6591   23.4945 C   0  0  0  0  0  0  0  0  0  0  0  0
    9.3350   -1.0880   23.5010 C   0  0  0  0  0  0  0  0  0  0  0  0
    5.8300    0.9190   18.6970 C   0  0  0  0  0  0  0  0  0  0  0  0
    6.1790    0.5730   19.9990 C   0  0  0  0  0  0  0  0  0  0  0  0
    9.3070   -3.5340   24.8780 C   0  0  0  0  0  0  0  0  0  0  0  0
    9.0420    0.3700   21.5280 C   0  0  0  0  0  0  0  0  0  0  0  0
    9.5904   -5.8808   24.7807 C   0  0  0  0  0  0  0  0  0  0  0  0
    8.8584    1.3468   23.7740 C   0  0  0  0  0  0  0  0  0  0  0  0
    9.4560    0.1560   22.8130 C   0  0  2  0  0  0  0  0  0  0  0  0
    6.7580    0.3810   17.8350 N   0  0  0  0  0  0  0  0  0  0  0  0
    7.6390   -0.2680   18.5410 N   0  0  0  0  0  0  0  0  0  0  0  0
    7.3170   -0.1610   19.8550 N   0  0  0  0  0  0  0  0  0  0  0  0
    8.1890   -0.7180   20.8700 N   0  0  0  0  0  0  0  0  0  0  0  0
    9.2690    1.4140   20.9380 O   0  0  0  0  0  0  0  0  0  0  0  0
    9.2567   -4.7121   25.5280 O   0  0  0  0  0  0  0  0  0  0  0  0
   11.3313    6.0270   22.7767 H   0  0  0  0  0  0  0  0  0  0  0  0
   12.2382    4.4870   24.4976 H   0  0  0  0  0  0  0  0  0  0  0  0
    9.2850    5.4109   21.5155 H   0  0  0  0  0  0  0  0  0  0  0  0
    3.0136    2.6526   19.3908 H   0  0  0  0  0  0  0  0  0  0  0  0
    3.6480    2.0140   21.6821 H   0  0  0  0  0  0  0  0  0  0  0  0
   11.1072    2.3370   24.9590 H   0  0  0  0  0  0  0  0  0  0  0  0
    8.1468    3.2634   21.9695 H   0  0  0  0  0  0  0  0  0  0  0  0
    8.9224   -0.1986   25.4209 H   0  0  0  0  0  0  0  0  0  0  0  0
   10.0638   -2.2321   21.8253 H   0  0  0  0  0  0  0  0  0  0  0  0
    4.4042    1.9741   17.4524 H   0  0  0  0  0  0  0  0  0  0  0  0
    5.7089    0.6919   22.1150 H   0  0  0  0  0  0  0  0  0  0  0  0
    8.6903   -2.3588   26.5807 H   0  0  0  0  0  0  0  0  0  0  0  0
    9.9258   -4.3917   22.9962 H   0  0  0  0  0  0  0  0  0  0  0  0
    9.5095   -6.7607   25.4235 H   0  0  0  0  0  0  0  0  0  0  0  0
   10.6094   -5.7898   24.3961 H   0  0  0  0  0  0  0  0  0  0  0  0
    8.8947   -5.9784   23.9439 H   0  0  0  0  0  0  0  0  0  0  0  0
    8.9548    1.1352   24.8480 H   0  0  0  0  0  0  0  0  0  0  0  0
    7.7793    1.4560   23.6018 H   0  0  0  0  0  0  0  0  0  0  0  0
   10.5986    0.4624   22.8633 H   0  0  0  0  0  0  0  0  0  0  0  0
    8.2712   -1.5583   21.1209 H   0  0  0  0  0  0  0  0  0  0  0  0
  1  2  1  0  0  0  0
  1  3  2  0  0  0  0
  2  6  2  0  0  0  0
  3  7  1  0  0  0  0
  4  5  1  0  0  0  0
  4 10  2  0  0  0  0
  5 11  2  0  0  0  0
  6 14  1  0  0  0  0
  7 14  2  0  0  0  0
  8 12  2  0  0  0  0
  8 15  1  0  0  0  0
  9 13  1  0  0  0  0
  9 15  2  0  0  0  0
 10 16  1  0  0  0  0
 11 17  1  0  0  0  0
 12 18  1  0  0  0  0
 13 18  2  0  0  0  0
 14 21  1  0  0  0  0
 15 22  1  0  0  0  0
 16 17  2  0  0  0  0
 16 23  1  0  0  0  0
 17 25  1  0  0  0  0
 18 28  1  0  0  0  0
 19 22  1  0  0  0  0
 19 26  1  0  0  0  0
 19 27  2  0  0  0  0
 20 28  1  0  0  0  0
 21 22  1  6  0  0  0
 23 24  2  0  0  0  0
 24 25  1  0  0  0  0
 25 26  1  0  0  0  0
  1 29  1  0  0  0  0
  2 30  1  0  0  0  0
  3 31  1  0  0  0  0
  4 32  1  0  0  0  0
  5 33  1  0  0  0  0
  6 34  1  0  0  0  0
  7 35  1  0  0  0  0
  8 36  1  0  0  0  0
  9 37  1  0  0  0  0
 10 38  1  0  0  0  0
 11 39  1  0  0  0  0
 12 40  1  0  0  0  0
 13 41  1  0  0  0  0
 20 42  1  0  0  0  0
 20 43  1  0  0  0  0
 20 44  1  0  0  0  0
 21 45  1  0  0  0  0
 21 46  1  0  0  0  0
 22 47  1  0  0  0  0
 26 48  1  0  0  0  0
M  END
> <clash_score>
0

> <docking_score>
-6.943238258361816

> <overlap_score>
0.8378003239631653

$$$$
BENZO_184_1
  -OEChem-08232013443D

 45 48  0     1  0  0  0  0  0999 V2000
    3.9160    2.0630   19.5520 C   0  0  0  0  0  0  0  0  0  0  0  0
    4.2750    1.7050   20.8490 C   0  0  0  0  0  0  0  0  0  0  0  0
    9.0720   -1.1280   24.8640 C   0  0  0  0  0  0  0  0  0  0  0  0
    9.7200   -2.2600   22.8630 C   0  0  0  0  0  0  0  0  0  0  0  0
    4.6890    1.6810   18.4640 C   0  0  0  0  0  0  0  0  0  0  0  0
    5.4210    0.9600   21.0930 C   0  0  0  0  0  0  0  0  0  0  0  0
    8.9960   -2.3380   25.5320 C   0  0  0  0  0  0  0  0  0  0  0  0
    9.6730   -3.4710   23.5300 C   0  0  0  0  0  0  0  0  0  0  0  0
   12.0646    2.8761   22.0718 C   0  0  0  0  0  0  0  0  0  0  0  0
   12.0506    4.2394   22.2689 C   0  0  0  0  0  0  0  0  0  0  0  0
   10.5394    3.0670   23.8153 C   0  0  0  0  0  0  0  0  0  0  0  0
    9.3350   -1.0880   23.5010 C   0  0  0  0  0  0  0  0  0  0  0  0
   11.1891    2.1969   22.9675 C   0  0  0  0  0  0  0  0  0  0  0  0
    5.8300    0.9190   18.6970 C   0  0  0  0  0  0  0  0  0  0  0  0
    6.1790    0.5730   19.9990 C   0  0  0  0  0  0  0  0  0  0  0  0
    9.3070   -3.5340   24.8780 C   0  0  0  0  0  0  0  0  0  0  0  0
    9.0420    0.3700   21.5280 C   0  0  0  0  0  0  0  0  0  0  0  0
    9.5904   -5.8808   24.7807 C   0  0  0  0  0  0  0  0  0  0  0  0
   10.9980    0.6985   22.9845 C   0  0  0  0  0  0  0  0  0  0  0  0
    9.4560    0.1560   22.8130 C   0  0  1  0  0  0  0  0  0  0  0  0
    6.7580    0.3810   17.8350 N   0  0  0  0  0  0  0  0  0  0  0  0
    7.6390   -0.2680   18.5410 N   0  0  0  0  0  0  0  0  0  0  0  0
    7.3170   -0.1610   19.8550 N   0  0  0  0  0  0  0  0  0  0  0  0
    8.1890   -0.7180   20.8700 N   0  0  0  0  0  0  0  0  0  0  0  0
    9.2690    1.4140   20.9380 O   0  0  0  0  0  0  0  0  0  0  0  0
    9.2567   -4.7121   25.5280 O   0  0  0  0  0  0  0  0  0  0  0  0
   10.9853    4.6955   23.5296 S   0  0  0  0  0  0  0  0  0  0  0  0
    3.0136    2.6526   19.3908 H   0  0  0  0  0  0  0  0  0  0  0  0
    3.6480    2.0140   21.6821 H   0  0  0  0  0  0  0  0  0  0  0  0
    8.9224   -0.1986   25.4209 H   0  0  0  0  0  0  0  0  0  0  0  0
   10.0638   -2.2321   21.8253 H   0  0  0  0  0  0  0  0  0  0  0  0
    4.4042    1.9741   17.4524 H   0  0  0  0  0  0  0  0  0  0  0  0
    5.7089    0.6919   22.1150 H   0  0  0  0  0  0  0  0  0  0  0  0
    8.6903   -2.3588   26.5807 H   0  0  0  0  0  0  0  0  0  0  0  0
    9.9258   -4.3917   22.9962 H   0  0  0  0  0  0  0  0  0  0  0  0
   12.6757    2.3931   21.3198 H   0  0  0  0  0  0  0  0  0  0  0  0
   12.6155    4.9893   21.7334 H   0  0  0  0  0  0  0  0  0  0  0  0
    9.8247    2.8285   24.5908 H   0  0  0  0  0  0  0  0  0  0  0  0
    9.5095   -6.7607   25.4235 H   0  0  0  0  0  0  0  0  0  0  0  0
   10.6094   -5.7898   24.3961 H   0  0  0  0  0  0  0  0  0  0  0  0
    8.8947   -5.9784   23.9439 H   0  0  0  0  0  0  0  0  0  0  0  0
   11.6403    0.2667   22.2043 H   0  0  0  0  0  0  0  0  0  0  0  0
   11.3821    0.2882   23.9279 H   0  0  0  0  0  0  0  0  0  0  0  0
    8.9221    0.9705   23.4866 H   0  0  0  0  0  0  0  0  0  0  0  0
    8.2712   -1.5583   21.1209 H   0  0  0  0  0  0  0  0  0  0  0  0
  1  2  1  0  0  0  0
  1  5  2  0  0  0  0
  2  6  2  0  0  0  0
  3  7  2  0  0  0  0
  3 12  1  0  0  0  0
  4  8  1  0  0  0  0
  4 12  2  0  0  0  0
  5 14  1  0  0  0  0
  6 15  1  0  0  0  0
  7 16  1  0  0  0  0
  8 16  2  0  0  0  0
  9 10  2  0  0  0  0
  9 13  1  0  0  0  0
 10 27  1  0  0  0  0
 11 13  2  0  0  0  0
 11 27  1  0  0  0  0
 12 20  1  0  0  0  0
 13 19  1  0  0  0  0
 14 15  2  0  0  0  0
 14 21  1  0  0  0  0
 15 23  1  0  0  0  0
 16 26  1  0  0  0  0
 17 20  1  0  0  0  0
 17 24  1  0  0  0  0
 17 25  2  0  0  0  0
 18 26  1  0  0  0  0
 19 20  1  1  0  0  0
 21 22  2  0  0  0  0
 22 23  1  0  0  0  0
 23 24  1  0  0  0  0
  1 28  1  0  0  0  0
  2 29  1  0  0  0  0
  3 30  1  0  0  0  0
  4 31  1  0  0  0  0
  5 32  1  0  0  0  0
  6 33  1  0  0  0  0
  7 34  1  0  0  0  0
  8 35  1  0  0  0  0
  9 36  1  0  0  0  0
 10 37  1  0  0  0  0
 11 38  1  0  0  0  0
 18 39  1  0  0  0  0
 18 40  1  0  0  0  0
 18 41  1  0  0  0  0
 19 42  1  0  0  0  0
 19 43  1  0  0  0  0
 20 44  1  0  0  0  0
 24 45  1  0  0  0  0
M  END
> <clash_score>
0

> <docking_score>
-9.018872261047363

> <overlap_score>
0.9012902975082397

$$$$
BENZO_184_2
  -OEChem-08232013443D

 45 48  0     1  0  0  0  0  0999 V2000
    3.9160    2.0630   19.5520 C   0  0  0  0  0  0  0  0  0  0  0  0
    4.2750    1.7050   20.8490 C   0  0  0  0  0  0  0  0  0  0  0  0
    9.0720   -1.1280   24.8640 C   0  0  0  0  0  0  0  0  0  0  0  0
    9.7200   -2.2600   22.8630 C   0  0  0  0  0  0  0  0  0  0  0  0
    4.6890    1.6810   18.4640 C   0  0  0  0  0  0  0  0  0  0  0  0
    5.4210    0.9600   21.0930 C   0  0  0  0  0  0  0  0  0  0  0  0
    8.9960   -2.3380   25.5320 C   0  0  0  0  0  0  0  0  0  0  0  0
    9.6730   -3.4710   23.5300 C   0  0  0  0  0  0  0  0  0  0  0  0
   10.9285    2.7711   23.1427 C   0  0  0  0  0  0  0  0  0  0  0  0
   11.3066    4.0806   22.9428 C   0  0  0  0  0  0  0  0  0  0  0  0
    8.9310    3.8875   23.5503 C   0  0  0  0  0  0  0  0  0  0  0  0
    9.3350   -1.0880   23.5010 C   0  0  0  0  0  0  0  0  0  0  0  0
    9.5523    2.6591   23.4945 C   0  0  0  0  0  0  0  0  0  0  0  0
    5.8300    0.9190   18.6970 C   0  0  0  0  0  0  0  0  0  0  0  0
    6.1790    0.5730   19.9990 C   0  0  0  0  0  0  0  0  0  0  0  0
    9.3070   -3.5340   24.8780 C   0  0  0  0  0  0  0  0  0  0  0  0
    9.0420    0.3700   21.5280 C   0  0  0  0  0  0  0  0  0  0  0  0
    8.8744   -4.6797   26.9022 C   0  0  0  0  0  0  0  0  0  0  0  0
    8.8584    1.3468   23.7740 C   0  0  0  0  0  0  0  0  0  0  0  0
    9.4560    0.1560   22.8130 C   0  0  2  0  0  0  0  0  0  0  0  0
    6.7580    0.3810   17.8350 N   0  0  0  0  0  0  0  0  0  0  0  0
    7.6390   -0.2680   18.5410 N   0  0  0  0  0  0  0  0  0  0  0  0
    7.3170   -0.1610   19.8550 N   0  0  0  0  0  0  0  0  0  0  0  0
    8.1890   -0.7180   20.8700 N   0  0  0  0  0  0  0  0  0  0  0  0
    9.2690    1.4140   20.9380 O   0  0  0  0  0  0  0  0  0  0  0  0
    9.2567   -4.7121   25.5280 O   0  0  0  0  0  0  0  0  0  0  0  0
   10.0053    5.1683   23.1793 S   0  0  0  0  0  0  0  0  0  0  0  0
    3.0136    2.6526   19.3908 H   0  0  0  0  0  0  0  0  0  0  0  0
    3.6480    2.0140   21.6821 H   0  0  0  0  0  0  0  0  0  0  0  0
    8.9224   -0.1986   25.4209 H   0  0  0  0  0  0  0  0  0  0  0  0
   10.0638   -2.2321   21.8253 H   0  0  0  0  0  0  0  0  0  0  0  0
    4.4042    1.9741   17.4524 H   0  0  0  0  0  0  0  0  0  0  0  0
    5.7089    0.6919   22.1150 H   0  0  0  0  0  0  0  0  0  0  0  0
    8.6903   -2.3588   26.5807 H   0  0  0  0  0  0  0  0  0  0  0  0
    9.9258   -4.3917   22.9962 H   0  0  0  0  0  0  0  0  0  0  0  0
   11.6102    1.9362   23.0408 H   0  0  0  0  0  0  0  0  0  0  0  0
   12.2848    4.4506   22.6700 H   0  0  0  0  0  0  0  0  0  0  0  0
    7.8985    4.0985   23.7919 H   0  0  0  0  0  0  0  0  0  0  0  0
    8.8744   -5.6954   27.3053 H   0  0  0  0  0  0  0  0  0  0  0  0
    7.8781   -4.2399   26.9939 H   0  0  0  0  0  0  0  0  0  0  0  0
    9.5921   -4.0702   27.4565 H   0  0  0  0  0  0  0  0  0  0  0  0
    8.9548    1.1352   24.8480 H   0  0  0  0  0  0  0  0  0  0  0  0
    7.7793    1.4560   23.6018 H   0  0  0  0  0  0  0  0  0  0  0  0
   10.5986    0.4624   22.8633 H   0  0  0  0  0  0  0  0  0  0  0  0
    8.2712   -1.5583   21.1209 H   0  0  0  0  0  0  0  0  0  0  0  0
  1  2  1  0  0  0  0
  1  5  2  0  0  0  0
  2  6  2  0  0  0  0
  3  7  2  0  0  0  0
  3 12  1  0  0  0  0
  4  8  1  0  0  0  0
  4 12  2  0  0  0  0
  5 14  1  0  0  0  0
  6 15  1  0  0  0  0
  7 16  1  0  0  0  0
  8 16  2  0  0  0  0
  9 10  2  0  0  0  0
  9 13  1  0  0  0  0
 10 27  1  0  0  0  0
 11 13  2  0  0  0  0
 11 27  1  0  0  0  0
 12 20  1  0  0  0  0
 13 19  1  0  0  0  0
 14 15  2  0  0  0  0
 14 21  1  0  0  0  0
 15 23  1  0  0  0  0
 16 26  1  0  0  0  0
 17 20  1  0  0  0  0
 17 24  1  0  0  0  0
 17 25  2  0  0  0  0
 18 26  1  0  0  0  0
 19 20  1  6  0  0  0
 21 22  2  0  0  0  0
 22 23  1  0  0  0  0
 23 24  1  0  0  0  0
  1 28  1  0  0  0  0
  2 29  1  0  0  0  0
  3 30  1  0  0  0  0
  4 31  1  0  0  0  0
  5 32  1  0  0  0  0
  6 33  1  0  0  0  0
  7 34  1  0  0  0  0
  8 35  1  0  0  0  0
  9 36  1  0  0  0  0
 10 37  1  0  0  0  0
 11 38  1  0  0  0  0
 18 39  1  0  0  0  0
 18 40  1  0  0  0  0
 18 41  1  0  0  0  0
 19 42  1  0  0  0  0
 19 43  1  0  0  0  0
 20 44  1  0  0  0  0
 24 45  1  0  0  0  0
M  END
> <clash_score>
0

> <docking_score>
-8.184402465820312

> <overlap_score>
0.850415825843811

$$$$
BENZO_186_1
  -OEChem-08232013443D

 48 51  0     1  0  0  0  0  0999 V2000
    3.9160    2.0630   19.5520 C   0  0  0  0  0  0  0  0  0  0  0  0
    4.2750    1.7050   20.8490 C   0  0  0  0  0  0  0  0  0  0  0  0
   10.3511    4.4175   23.4183 C   0  0  0  0  0  0  0  0  0  0  0  0
   10.1749    3.0340   23.4326 C   0  0  0  0  0  0  0  0  0  0  0  0
    9.0720   -1.1280   24.8640 C   0  0  0  0  0  0  0  0  0  0  0  0
    9.7200   -2.2600   22.8630 C   0  0  0  0  0  0  0  0  0  0  0  0
    4.6890    1.6810   18.4640 C   0  0  0  0  0  0  0  0  0  0  0  0
    5.4210    0.9600   21.0930 C   0  0  0  0  0  0  0  0  0  0  0  0
    8.9960   -2.3380   25.5320 C   0  0  0  0  0  0  0  0  0  0  0  0
    9.6730   -3.4710   23.5300 C   0  0  0  0  0  0  0  0  0  0  0  0
   11.5416    4.9641   22.9388 C   0  0  0  0  0  0  0  0  0  0  0  0
   12.3796    2.7434   22.4881 C   0  0  0  0  0  0  0  0  0  0  0  0
    9.3350   -1.0880   23.5010 C   0  0  0  0  0  0  0  0  0  0  0  0
   11.1891    2.1969   22.9675 C   0  0  0  0  0  0  0  0  0  0  0  0
    5.8300    0.9190   18.6970 C   0  0  0  0  0  0  0  0  0  0  0  0
    6.1790    0.5730   19.9990 C   0  0  0  0  0  0  0  0  0  0  0  0
    9.3070   -3.5340   24.8780 C   0  0  0  0  0  0  0  0  0  0  0  0
   12.5558    4.1270   22.4738 C   0  0  0  0  0  0  0  0  0  0  0  0
    9.0420    0.3700   21.5280 C   0  0  0  0  0  0  0  0  0  0  0  0
    9.5904   -5.8808   24.7807 C   0  0  0  0  0  0  0  0  0  0  0  0
   10.9980    0.6985   22.9845 C   0  0  0  0  0  0  0  0  0  0  0  0
    9.4560    0.1560   22.8130 C   0  0  1  0  0  0  0  0  0  0  0  0
    6.7580    0.3810   17.8350 N   0  0  0  0  0  0  0  0  0  0  0  0
    7.6390   -0.2680   18.5410 N   0  0  0  0  0  0  0  0  0  0  0  0
    7.3170   -0.1610   19.8550 N   0  0  0  0  0  0  0  0  0  0  0  0
    8.1890   -0.7180   20.8700 N   0  0  0  0  0  0  0  0  0  0  0  0
    9.2690    1.4140   20.9380 O   0  0  0  0  0  0  0  0  0  0  0  0
    9.2567   -4.7121   25.5280 O   0  0  0  0  0  0  0  0  0  0  0  0
   14.0247    4.8018   21.8834 Cl  0  0  0  0  0  0  0  0  0  0  0  0
    3.0136    2.6526   19.3908 H   0  0  0  0  0  0  0  0  0  0  0  0
    3.6480    2.0140   21.6821 H   0  0  0  0  0  0  0  0  0  0  0  0
    9.5612    5.0691   23.7807 H   0  0  0  0  0  0  0  0  0  0  0  0
    9.2441    2.6169   23.8081 H   0  0  0  0  0  0  0  0  0  0  0  0
    8.9224   -0.1986   25.4209 H   0  0  0  0  0  0  0  0  0  0  0  0
   10.0638   -2.2321   21.8253 H   0  0  0  0  0  0  0  0  0  0  0  0
    4.4042    1.9741   17.4524 H   0  0  0  0  0  0  0  0  0  0  0  0
    5.7089    0.6919   22.1150 H   0  0  0  0  0  0  0  0  0  0  0  0
    8.6903   -2.3588   26.5807 H   0  0  0  0  0  0  0  0  0  0  0  0
    9.9258   -4.3917   22.9962 H   0  0  0  0  0  0  0  0  0  0  0  0
   11.6651    6.0443   22.9339 H   0  0  0  0  0  0  0  0  0  0  0  0
   13.1671    2.0865   22.1261 H   0  0  0  0  0  0  0  0  0  0  0  0
    9.5095   -6.7607   25.4235 H   0  0  0  0  0  0  0  0  0  0  0  0
   10.6094   -5.7898   24.3961 H   0  0  0  0  0  0  0  0  0  0  0  0
    8.8947   -5.9784   23.9439 H   0  0  0  0  0  0  0  0  0  0  0  0
   11.6403    0.2667   22.2043 H   0  0  0  0  0  0  0  0  0  0  0  0
   11.3821    0.2882   23.9279 H   0  0  0  0  0  0  0  0  0  0  0  0
    8.9221    0.9705   23.4866 H   0  0  0  0  0  0  0  0  0  0  0  0
    8.2712   -1.5583   21.1209 H   0  0  0  0  0  0  0  0  0  0  0  0
  1  2  1  0  0  0  0
  1  7  2  0  0  0  0
  2  8  2  0  0  0  0
  3  4  2  0  0  0  0
  3 11  1  0  0  0  0
  4 14  1  0  0  0  0
  5  9  2  0  0  0  0
  5 13  1  0  0  0  0
  6 10  1  0  0  0  0
  6 13  2  0  0  0  0
  7 15  1  0  0  0  0
  8 16  1  0  0  0  0
  9 17  1  0  0  0  0
 10 17  2  0  0  0  0
 11 18  2  0  0  0  0
 12 14  2  0  0  0  0
 12 18  1  0  0  0  0
 13 22  1  0  0  0  0
 14 21  1  0  0  0  0
 15 16  2  0  0  0  0
 15 23  1  0  0  0  0
 16 25  1  0  0  0  0
 17 28  1  0  0  0  0
 18 29  1  0  0  0  0
 19 22  1  0  0  0  0
 19 26  1  0  0  0  0
 19 27  2  0  0  0  0
 20 28  1  0  0  0  0
 21 22  1  1  0  0  0
 23 24  2  0  0  0  0
 24 25  1  0  0  0  0
 25 26  1  0  0  0  0
  1 30  1  0  0  0  0
  2 31  1  0  0  0  0
  3 32  1  0  0  0  0
  4 33  1  0  0  0  0
  5 34  1  0  0  0  0
  6 35  1  0  0  0  0
  7 36  1  0  0  0  0
  8 37  1  0  0  0  0
  9 38  1  0  0  0  0
 10 39  1  0  0  0  0
 11 40  1  0  0  0  0
 12 41  1  0  0  0  0
 20 42  1  0  0  0  0
 20 43  1  0  0  0  0
 20 44  1  0  0  0  0
 21 45  1  0  0  0  0
 21 46  1  0  0  0  0
 22 47  1  0  0  0  0
 26 48  1  0  0  0  0
M  END
> <clash_score>
0

> <docking_score>
-10.004992485046387

> <overlap_score>
0.913452684879303

$$$$
BENZO_187_2
  -OEChem-08232013443D

 48 51  0     1  0  0  0  0  0999 V2000
    3.9160    2.0630   19.5520 C   0  0  0  0  0  0  0  0  0  0  0  0
    4.2750    1.7050   20.8490 C   0  0  0  0  0  0  0  0  0  0  0  0
    9.0720   -1.1280   24.8640 C   0  0  0  0  0  0  0  0  0  0  0  0
    9.7200   -2.2600   22.8630 C   0  0  0  0  0  0  0  0  0  0  0  0
    4.6890    1.6810   18.4640 C   0  0  0  0  0  0  0  0  0  0  0  0
    5.4210    0.9600   21.0930 C   0  0  0  0  0  0  0  0  0  0  0  0
    8.9960   -2.3380   25.5320 C   0  0  0  0  0  0  0  0  0  0  0  0
    9.6730   -3.4710   23.5300 C   0  0  0  0  0  0  0  0  0  0  0  0
   10.8722    2.8605   23.0481 C   0  0  0  0  0  0  0  0  0  0  0  0
    9.0344    3.9253   23.6169 C   0  0  0  0  0  0  0  0  0  0  0  0
    9.3350   -1.0880   23.5010 C   0  0  0  0  0  0  0  0  0  0  0  0
    9.5523    2.6591   23.4945 C   0  0  0  0  0  0  0  0  0  0  0  0
    5.8300    0.9190   18.6970 C   0  0  0  0  0  0  0  0  0  0  0  0
    6.1790    0.5730   19.9990 C   0  0  0  0  0  0  0  0  0  0  0  0
    9.3070   -3.5340   24.8780 C   0  0  0  0  0  0  0  0  0  0  0  0
    9.0420    0.3700   21.5280 C   0  0  0  0  0  0  0  0  0  0  0  0
    9.9673    6.2162   23.2165 C   0  0  0  0  0  0  0  0  0  0  0  0
    9.5904   -5.8808   24.7807 C   0  0  0  0  0  0  0  0  0  0  0  0
    8.8584    1.3468   23.7740 C   0  0  0  0  0  0  0  0  0  0  0  0
    9.4560    0.1560   22.8130 C   0  0  2  0  0  0  0  0  0  0  0  0
   11.1739    4.1528   22.8970 N   0  0  0  0  0  0  0  0  0  0  0  0
    6.7580    0.3810   17.8350 N   0  0  0  0  0  0  0  0  0  0  0  0
    7.6390   -0.2680   18.5410 N   0  0  0  0  0  0  0  0  0  0  0  0
   10.0363    4.7750   23.2503 N   0  0  0  0  0  0  0  0  0  0  0  0
    7.3170   -0.1610   19.8550 N   0  0  0  0  0  0  0  0  0  0  0  0
    8.1890   -0.7180   20.8700 N   0  0  0  0  0  0  0  0  0  0  0  0
    9.2690    1.4140   20.9380 O   0  0  0  0  0  0  0  0  0  0  0  0
    9.2567   -4.7121   25.5280 O   0  0  0  0  0  0  0  0  0  0  0  0
    3.0136    2.6526   19.3908 H   0  0  0  0  0  0  0  0  0  0  0  0
    3.6480    2.0140   21.6821 H   0  0  0  0  0  0  0  0  0  0  0  0
    8.9224   -0.1986   25.4209 H   0  0  0  0  0  0  0  0  0  0  0  0
   10.0638   -2.2321   21.8253 H   0  0  0  0  0  0  0  0  0  0  0  0
    4.4042    1.9741   17.4524 H   0  0  0  0  0  0  0  0  0  0  0  0
    5.7089    0.6919   22.1150 H   0  0  0  0  0  0  0  0  0  0  0  0
    8.6903   -2.3588   26.5807 H   0  0  0  0  0  0  0  0  0  0  0  0
    9.9258   -4.3917   22.9962 H   0  0  0  0  0  0  0  0  0  0  0  0
   11.6282    2.1210   22.8251 H   0  0  0  0  0  0  0  0  0  0  0  0
    8.0619    4.2851   23.9247 H   0  0  0  0  0  0  0  0  0  0  0  0
   10.2790    6.5919   24.1946 H   0  0  0  0  0  0  0  0  0  0  0  0
   10.6299    6.5942   22.4329 H   0  0  0  0  0  0  0  0  0  0  0  0
    8.9411    6.5238   22.9968 H   0  0  0  0  0  0  0  0  0  0  0  0
    9.5095   -6.7607   25.4235 H   0  0  0  0  0  0  0  0  0  0  0  0
   10.6094   -5.7898   24.3961 H   0  0  0  0  0  0  0  0  0  0  0  0
    8.8947   -5.9784   23.9439 H   0  0  0  0  0  0  0  0  0  0  0  0
    8.9548    1.1352   24.8480 H   0  0  0  0  0  0  0  0  0  0  0  0
    7.7793    1.4560   23.6018 H   0  0  0  0  0  0  0  0  0  0  0  0
   10.5986    0.4624   22.8633 H   0  0  0  0  0  0  0  0  0  0  0  0
    8.2712   -1.5583   21.1209 H   0  0  0  0  0  0  0  0  0  0  0  0
  1  2  1  0  0  0  0
  1  5  2  0  0  0  0
  2  6  2  0  0  0  0
  3  7  2  0  0  0  0
  3 11  1  0  0  0  0
  4  8  1  0  0  0  0
  4 11  2  0  0  0  0
  5 13  1  0  0  0  0
  6 14  1  0  0  0  0
  7 15  1  0  0  0  0
  8 15  2  0  0  0  0
  9 12  1  0  0  0  0
  9 21  2  0  0  0  0
 10 12  2  0  0  0  0
 10 24  1  0  0  0  0
 11 20  1  0  0  0  0
 12 19  1  0  0  0  0
 13 14  2  0  0  0  0
 13 22  1  0  0  0  0
 14 25  1  0  0  0  0
 15 28  1  0  0  0  0
 16 20  1  0  0  0  0
 16 26  1  0  0  0  0
 16 27  2  0  0  0  0
 17 24  1  0  0  0  0
 18 28  1  0  0  0  0
 19 20  1  6  0  0  0
 21 24  1  0  0  0  0
 22 23  2  0  0  0  0
 23 25  1  0  0  0  0
 25 26  1  0  0  0  0
  1 29  1  0  0  0  0
  2 30  1  0  0  0  0
  3 31  1  0  0  0  0
  4 32  1  0  0  0  0
  5 33  1  0  0  0  0
  6 34  1  0  0  0  0
  7 35  1  0  0  0  0
  8 36  1  0  0  0  0
  9 37  1  0  0  0  0
 10 38  1  0  0  0  0
 17 39  1  0  0  0  0
 17 40  1  0  0  0  0
 17 41  1  0  0  0  0
 18 42  1  0  0  0  0
 18 43  1  0  0  0  0
 18 44  1  0  0  0  0
 19 45  1  0  0  0  0
 19 46  1  0  0  0  0
 20 47  1  0  0  0  0
 26 48  1  0  0  0  0
M  END
> <clash_score>
0

> <docking_score>
-8.455682754516602

> <overlap_score>
0.8476029634475708

$$$$
BENZO_187_1
  -OEChem-08232013443D

 48 51  0     1  0  0  0  0  0999 V2000
    3.9160    2.0630   19.5520 C   0  0  0  0  0  0  0  0  0  0  0  0
    4.2750    1.7050   20.8490 C   0  0  0  0  0  0  0  0  0  0  0  0
    9.0720   -1.1280   24.8640 C   0  0  0  0  0  0  0  0  0  0  0  0
    9.7200   -2.2600   22.8630 C   0  0  0  0  0  0  0  0  0  0  0  0
    4.6890    1.6810   18.4640 C   0  0  0  0  0  0  0  0  0  0  0  0
    5.4210    0.9600   21.0930 C   0  0  0  0  0  0  0  0  0  0  0  0
    8.9960   -2.3380   25.5320 C   0  0  0  0  0  0  0  0  0  0  0  0
    9.6730   -3.4710   23.5300 C   0  0  0  0  0  0  0  0  0  0  0  0
   10.2850    3.1879   23.3945 C   0  0  0  0  0  0  0  0  0  0  0  0
   12.2874    2.8981   22.5336 C   0  0  0  0  0  0  0  0  0  0  0  0
    9.3350   -1.0880   23.5010 C   0  0  0  0  0  0  0  0  0  0  0  0
   11.1891    2.1969   22.9675 C   0  0  0  0  0  0  0  0  0  0  0  0
    5.8300    0.9190   18.6970 C   0  0  0  0  0  0  0  0  0  0  0  0
    6.1790    0.5730   19.9990 C   0  0  0  0  0  0  0  0  0  0  0  0
    9.3070   -3.5340   24.8780 C   0  0  0  0  0  0  0  0  0  0  0  0
    9.0420    0.3700   21.5280 C   0  0  0  0  0  0  0  0  0  0  0  0
   12.8361    5.3400   22.4104 C   0  0  0  0  0  0  0  0  0  0  0  0
    8.8744   -4.6797   26.9022 C   0  0  0  0  0  0  0  0  0  0  0  0
   10.9980    0.6985   22.9845 C   0  0  0  0  0  0  0  0  0  0  0  0
    9.4560    0.1560   22.8130 C   0  0  1  0  0  0  0  0  0  0  0  0
   10.7672    4.4245   23.2454 N   0  0  0  0  0  0  0  0  0  0  0  0
    6.7580    0.3810   17.8350 N   0  0  0  0  0  0  0  0  0  0  0  0
    7.6390   -0.2680   18.5410 N   0  0  0  0  0  0  0  0  0  0  0  0
   11.9863    4.2152   22.7200 N   0  0  0  0  0  0  0  0  0  0  0  0
    7.3170   -0.1610   19.8550 N   0  0  0  0  0  0  0  0  0  0  0  0
    8.1890   -0.7180   20.8700 N   0  0  0  0  0  0  0  0  0  0  0  0
    9.2690    1.4140   20.9380 O   0  0  0  0  0  0  0  0  0  0  0  0
    9.2567   -4.7121   25.5280 O   0  0  0  0  0  0  0  0  0  0  0  0
    3.0136    2.6526   19.3908 H   0  0  0  0  0  0  0  0  0  0  0  0
    3.6480    2.0140   21.6821 H   0  0  0  0  0  0  0  0  0  0  0  0
    8.9224   -0.1986   25.4209 H   0  0  0  0  0  0  0  0  0  0  0  0
   10.0638   -2.2321   21.8253 H   0  0  0  0  0  0  0  0  0  0  0  0
    4.4042    1.9741   17.4524 H   0  0  0  0  0  0  0  0  0  0  0  0
    5.7089    0.6919   22.1150 H   0  0  0  0  0  0  0  0  0  0  0  0
    8.6903   -2.3588   26.5807 H   0  0  0  0  0  0  0  0  0  0  0  0
    9.9258   -4.3917   22.9962 H   0  0  0  0  0  0  0  0  0  0  0  0
    9.2947    3.0629   23.8091 H   0  0  0  0  0  0  0  0  0  0  0  0
   13.2346    2.5800   22.1195 H   0  0  0  0  0  0  0  0  0  0  0  0
   12.6295    5.6456   21.3814 H   0  0  0  0  0  0  0  0  0  0  0  0
   12.6226    6.1591   23.1027 H   0  0  0  0  0  0  0  0  0  0  0  0
   13.8829    5.0428   22.5193 H   0  0  0  0  0  0  0  0  0  0  0  0
    8.8744   -5.6954   27.3053 H   0  0  0  0  0  0  0  0  0  0  0  0
    7.8781   -4.2399   26.9939 H   0  0  0  0  0  0  0  0  0  0  0  0
    9.5921   -4.0702   27.4565 H   0  0  0  0  0  0  0  0  0  0  0  0
   11.6403    0.2667   22.2043 H   0  0  0  0  0  0  0  0  0  0  0  0
   11.3821    0.2882   23.9279 H   0  0  0  0  0  0  0  0  0  0  0  0
    8.9221    0.9705   23.4866 H   0  0  0  0  0  0  0  0  0  0  0  0
    8.2712   -1.5583   21.1209 H   0  0  0  0  0  0  0  0  0  0  0  0
  1  2  1  0  0  0  0
  1  5  2  0  0  0  0
  2  6  2  0  0  0  0
  3  7  2  0  0  0  0
  3 11  1  0  0  0  0
  4  8  1  0  0  0  0
  4 11  2  0  0  0  0
  5 13  1  0  0  0  0
  6 14  1  0  0  0  0
  7 15  1  0  0  0  0
  8 15  2  0  0  0  0
  9 12  1  0  0  0  0
  9 21  2  0  0  0  0
 10 12  2  0  0  0  0
 10 24  1  0  0  0  0
 11 20  1  0  0  0  0
 12 19  1  0  0  0  0
 13 14  2  0  0  0  0
 13 22  1  0  0  0  0
 14 25  1  0  0  0  0
 15 28  1  0  0  0  0
 16 20  1  0  0  0  0
 16 26  1  0  0  0  0
 16 27  2  0  0  0  0
 17 24  1  0  0  0  0
 18 28  1  0  0  0  0
 19 20  1  1  0  0  0
 21 24  1  0  0  0  0
 22 23  2  0  0  0  0
 23 25  1  0  0  0  0
 25 26  1  0  0  0  0
  1 29  1  0  0  0  0
  2 30  1  0  0  0  0
  3 31  1  0  0  0  0
  4 32  1  0  0  0  0
  5 33  1  0  0  0  0
  6 34  1  0  0  0  0
  7 35  1  0  0  0  0
  8 36  1  0  0  0  0
  9 37  1  0  0  0  0
 10 38  1  0  0  0  0
 17 39  1  0  0  0  0
 17 40  1  0  0  0  0
 17 41  1  0  0  0  0
 18 42  1  0  0  0  0
 18 43  1  0  0  0  0
 18 44  1  0  0  0  0
 19 45  1  0  0  0  0
 19 46  1  0  0  0  0
 20 47  1  0  0  0  0
 26 48  1  0  0  0  0
M  END
> <clash_score>
0

> <docking_score>
-9.663127899169922

> <overlap_score>
0.9068063497543335

$$$$
BENZO_186_2
  -OEChem-08232013443D

 48 51  0     1  0  0  0  0  0999 V2000
    3.9160    2.0630   19.5520 C   0  0  0  0  0  0  0  0  0  0  0  0
    4.2750    1.7050   20.8490 C   0  0  0  0  0  0  0  0  0  0  0  0
    9.6814    4.7377   22.2699 C   0  0  0  0  0  0  0  0  0  0  0  0
    9.0418    3.5253   22.5276 C   0  0  0  0  0  0  0  0  0  0  0  0
    9.0720   -1.1280   24.8640 C   0  0  0  0  0  0  0  0  0  0  0  0
    9.7200   -2.2600   22.8630 C   0  0  0  0  0  0  0  0  0  0  0  0
    4.6890    1.6810   18.4640 C   0  0  0  0  0  0  0  0  0  0  0  0
    5.4210    0.9600   21.0930 C   0  0  0  0  0  0  0  0  0  0  0  0
    8.9960   -2.3380   25.5320 C   0  0  0  0  0  0  0  0  0  0  0  0
    9.6730   -3.4710   23.5300 C   0  0  0  0  0  0  0  0  0  0  0  0
   10.8316    5.0840   22.9789 C   0  0  0  0  0  0  0  0  0  0  0  0
   10.7025    3.0055   24.2036 C   0  0  0  0  0  0  0  0  0  0  0  0
    9.3350   -1.0880   23.5010 C   0  0  0  0  0  0  0  0  0  0  0  0
    9.5523    2.6591   23.4945 C   0  0  0  0  0  0  0  0  0  0  0  0
    5.8300    0.9190   18.6970 C   0  0  0  0  0  0  0  0  0  0  0  0
    6.1790    0.5730   19.9990 C   0  0  0  0  0  0  0  0  0  0  0  0
    9.3070   -3.5340   24.8780 C   0  0  0  0  0  0  0  0  0  0  0  0
   11.3422    4.2179   23.9458 C   0  0  0  0  0  0  0  0  0  0  0  0
    9.0420    0.3700   21.5280 C   0  0  0  0  0  0  0  0  0  0  0  0
    9.5904   -5.8808   24.7807 C   0  0  0  0  0  0  0  0  0  0  0  0
    8.8584    1.3468   23.7740 C   0  0  0  0  0  0  0  0  0  0  0  0
    9.4560    0.1560   22.8130 C   0  0  2  0  0  0  0  0  0  0  0  0
    6.7580    0.3810   17.8350 N   0  0  0  0  0  0  0  0  0  0  0  0
    7.6390   -0.2680   18.5410 N   0  0  0  0  0  0  0  0  0  0  0  0
    7.3170   -0.1610   19.8550 N   0  0  0  0  0  0  0  0  0  0  0  0
    8.1890   -0.7180   20.8700 N   0  0  0  0  0  0  0  0  0  0  0  0
    9.2690    1.4140   20.9380 O   0  0  0  0  0  0  0  0  0  0  0  0
    9.2567   -4.7121   25.5280 O   0  0  0  0  0  0  0  0  0  0  0  0
   12.7607    4.6463   24.8210 Cl  0  0  0  0  0  0  0  0  0  0  0  0
    3.0136    2.6526   19.3908 H   0  0  0  0  0  0  0  0  0  0  0  0
    3.6480    2.0140   21.6821 H   0  0  0  0  0  0  0  0  0  0  0  0
    9.2834    5.4119   21.5170 H   0  0  0  0  0  0  0  0  0  0  0  0
    8.1460    3.2636   21.9704 H   0  0  0  0  0  0  0  0  0  0  0  0
    8.9224   -0.1986   25.4209 H   0  0  0  0  0  0  0  0  0  0  0  0
   10.0638   -2.2321   21.8253 H   0  0  0  0  0  0  0  0  0  0  0  0
    4.4042    1.9741   17.4524 H   0  0  0  0  0  0  0  0  0  0  0  0
    5.7089    0.6919   22.1150 H   0  0  0  0  0  0  0  0  0  0  0  0
    8.6903   -2.3588   26.5807 H   0  0  0  0  0  0  0  0  0  0  0  0
    9.9258   -4.3917   22.9962 H   0  0  0  0  0  0  0  0  0  0  0  0
   11.3195    6.0324   22.7676 H   0  0  0  0  0  0  0  0  0  0  0  0
   11.0970    2.3265   24.9561 H   0  0  0  0  0  0  0  0  0  0  0  0
    9.5095   -6.7607   25.4235 H   0  0  0  0  0  0  0  0  0  0  0  0
   10.6094   -5.7898   24.3961 H   0  0  0  0  0  0  0  0  0  0  0  0
    8.8947   -5.9784   23.9439 H   0  0  0  0  0  0  0  0  0  0  0  0
    8.9548    1.1352   24.8480 H   0  0  0  0  0  0  0  0  0  0  0  0
    7.7793    1.4560   23.6018 H   0  0  0  0  0  0  0  0  0  0  0  0
   10.5986    0.4624   22.8633 H   0  0  0  0  0  0  0  0  0  0  0  0
    8.2712   -1.5583   21.1209 H   0  0  0  0  0  0  0  0  0  0  0  0
  1  2  1  0  0  0  0
  1  7  2  0  0  0  0
  2  8  2  0  0  0  0
  3  4  2  0  0  0  0
  3 11  1  0  0  0  0
  4 14  1  0  0  0  0
  5  9  2  0  0  0  0
  5 13  1  0  0  0  0
  6 10  1  0  0  0  0
  6 13  2  0  0  0  0
  7 15  1  0  0  0  0
  8 16  1  0  0  0  0
  9 17  1  0  0  0  0
 10 17  2  0  0  0  0
 11 18  2  0  0  0  0
 12 14  2  0  0  0  0
 12 18  1  0  0  0  0
 13 22  1  0  0  0  0
 14 21  1  0  0  0  0
 15 16  2  0  0  0  0
 15 23  1  0  0  0  0
 16 25  1  0  0  0  0
 17 28  1  0  0  0  0
 18 29  1  0  0  0  0
 19 22  1  0  0  0  0
 19 26  1  0  0  0  0
 19 27  2  0  0  0  0
 20 28  1  0  0  0  0
 21 22  1  6  0  0  0
 23 24  2  0  0  0  0
 24 25  1  0  0  0  0
 25 26  1  0  0  0  0
  1 30  1  0  0  0  0
  2 31  1  0  0  0  0
  3 32  1  0  0  0  0
  4 33  1  0  0  0  0
  5 34  1  0  0  0  0
  6 35  1  0  0  0  0
  7 36  1  0  0  0  0
  8 37  1  0  0  0  0
  9 38  1  0  0  0  0
 10 39  1  0  0  0  0
 11 40  1  0  0  0  0
 12 41  1  0  0  0  0
 20 42  1  0  0  0  0
 20 43  1  0  0  0  0
 20 44  1  0  0  0  0
 21 45  1  0  0  0  0
 21 46  1  0  0  0  0
 22 47  1  0  0  0  0
 26 48  1  0  0  0  0
M  END
> <clash_score>
0

> <docking_score>
-6.209680557250977

> <overlap_score>
0.8381742835044861

$$$$
BENZO_189_1
  -OEChem-08232013443D

 58 62  0     1  0  0  0  0  0999 V2000
   10.8376    5.0659   22.8580 C   0  0  0  0  0  0  0  0  0  0  0  0
   11.3489    4.2229   23.8445 C   0  0  0  0  0  0  0  0  0  0  0  0
    9.6822    4.7068   22.1638 C   0  0  0  0  0  0  0  0  0  0  0  0
    3.9160    2.0630   19.5520 C   0  0  0  0  0  0  0  0  0  0  0  0
    4.2750    1.7050   20.8490 C   0  0  0  0  0  0  0  0  0  0  0  0
   10.7049    3.0206   24.1369 C   0  0  0  0  0  0  0  0  0  0  0  0
    9.0382    3.5045   22.4562 C   0  0  0  0  0  0  0  0  0  0  0  0
    9.0720   -1.1280   24.8640 C   0  0  0  0  0  0  0  0  0  0  0  0
    9.7200   -2.2600   22.8630 C   0  0  0  0  0  0  0  0  0  0  0  0
    4.6890    1.6810   18.4640 C   0  0  0  0  0  0  0  0  0  0  0  0
    5.4210    0.9600   21.0930 C   0  0  0  0  0  0  0  0  0  0  0  0
    8.9960   -2.3380   25.5320 C   0  0  0  0  0  0  0  0  0  0  0  0
    9.6730   -3.4710   23.5300 C   0  0  0  0  0  0  0  0  0  0  0  0
    9.5496    2.6614   23.4428 C   0  0  0  0  0  0  0  0  0  0  0  0
    9.3350   -1.0880   23.5010 C   0  0  0  0  0  0  0  0  0  0  0  0
    5.8300    0.9190   18.6970 C   0  0  0  0  0  0  0  0  0  0  0  0
    6.1790    0.5730   19.9990 C   0  0  0  0  0  0  0  0  0  0  0  0
    9.3070   -3.5340   24.8780 C   0  0  0  0  0  0  0  0  0  0  0  0
    8.3596   -5.0075   26.6307 C   0  0  0  0  0  0  0  0  0  0  0  0
    9.0420    0.3700   21.5280 C   0  0  0  0  0  0  0  0  0  0  0  0
    8.4579   -6.4048   27.2167 C   0  0  0  0  0  0  0  0  0  0  0  0
    8.4717   -7.4504   26.1157 C   0  0  0  0  0  0  0  0  0  0  0  0
    9.5645   -7.1893   25.0840 C   0  0  0  0  0  0  0  0  0  0  0  0
   10.2327   -5.8252   25.2500 C   0  0  0  0  0  0  0  0  0  0  0  0
    8.8518    1.3594   23.7588 C   0  0  0  0  0  0  0  0  0  0  0  0
    9.4560    0.1560   22.8130 C   0  0  1  0  0  0  0  0  0  0  0  0
    6.7580    0.3810   17.8350 N   0  0  0  0  0  0  0  0  0  0  0  0
    7.6390   -0.2680   18.5410 N   0  0  0  0  0  0  0  0  0  0  0  0
    7.3170   -0.1610   19.8550 N   0  0  0  0  0  0  0  0  0  0  0  0
    9.2529   -4.7799   25.5644 N   0  0  0  0  0  0  0  0  0  0  0  0
    8.1890   -0.7180   20.8700 N   0  0  0  0  0  0  0  0  0  0  0  0
    7.5989   -4.1866   27.1423 O   0  0  0  0  0  0  0  0  0  0  0  0
    9.2690    1.4140   20.9380 O   0  0  0  0  0  0  0  0  0  0  0  0
   11.3383    6.0027   22.6313 H   0  0  0  0  0  0  0  0  0  0  0  0
   12.2479    4.5029   24.3859 H   0  0  0  0  0  0  0  0  0  0  0  0
    9.2832    5.3634   21.3964 H   0  0  0  0  0  0  0  0  0  0  0  0
    3.0136    2.6526   19.3908 H   0  0  0  0  0  0  0  0  0  0  0  0
    3.6480    2.0140   21.6821 H   0  0  0  0  0  0  0  0  0  0  0  0
   11.1107    2.3699   24.9071 H   0  0  0  0  0  0  0  0  0  0  0  0
    8.1387    3.2328   21.9101 H   0  0  0  0  0  0  0  0  0  0  0  0
    8.9202   -0.1986   25.4206 H   0  0  0  0  0  0  0  0  0  0  0  0
   10.0631   -2.2319   21.8252 H   0  0  0  0  0  0  0  0  0  0  0  0
    4.4042    1.9741   17.4524 H   0  0  0  0  0  0  0  0  0  0  0  0
    5.7089    0.6919   22.1150 H   0  0  0  0  0  0  0  0  0  0  0  0
    8.6898   -2.3534   26.5810 H   0  0  0  0  0  0  0  0  0  0  0  0
    9.9254   -4.3899   22.9914 H   0  0  0  0  0  0  0  0  0  0  0  0
    9.3705   -6.4746   27.7883 H   0  0  0  0  0  0  0  0  0  0  0  0
    7.6054   -6.5499   27.8634 H   0  0  0  0  0  0  0  0  0  0  0  0
    8.6096   -8.4605   26.5547 H   0  0  0  0  0  0  0  0  0  0  0  0
    7.4835   -7.4764   25.6139 H   0  0  0  0  0  0  0  0  0  0  0  0
   10.3359   -7.9850   25.1529 H   0  0  0  0  0  0  0  0  0  0  0  0
    9.1459   -7.2795   24.0580 H   0  0  0  0  0  0  0  0  0  0  0  0
   10.9408   -5.8640   26.0724 H   0  0  0  0  0  0  0  0  0  0  0  0
   10.7522   -5.5631   24.3346 H   0  0  0  0  0  0  0  0  0  0  0  0
    8.9481    1.1773   24.8382 H   0  0  0  0  0  0  0  0  0  0  0  0
    7.7730    1.4670   23.5839 H   0  0  0  0  0  0  0  0  0  0  0  0
   10.5990    0.4745   22.8590 H   0  0  0  0  0  0  0  0  0  0  0  0
    8.2487   -1.5564   21.0972 H   0  0  0  0  0  0  0  0  0  0  0  0
  1  2  1  0  0  0  0
  1  3  2  0  0  0  0
  2  6  2  0  0  0  0
  3  7  1  0  0  0  0
  4  5  1  0  0  0  0
  4 10  2  0  0  0  0
  5 11  2  0  0  0  0
  6 14  1  0  0  0  0
  7 14  2  0  0  0  0
  8 12  2  0  0  0  0
  8 15  1  0  0  0  0
  9 13  1  0  0  0  0
  9 15  2  0  0  0  0
 10 16  1  0  0  0  0
 11 17  1  0  0  0  0
 12 18  1  0  0  0  0
 13 18  2  0  0  0  0
 14 25  1  0  0  0  0
 15 26  1  0  0  0  0
 16 17  2  0  0  0  0
 16 27  1  0  0  0  0
 17 29  1  0  0  0  0
 18 30  1  0  0  0  0
 19 21  1  0  0  0  0
 19 30  1  0  0  0  0
 19 32  2  0  0  0  0
 20 26  1  1  0  0  0
 20 31  1  0  0  0  0
 20 33  2  0  0  0  0
 21 22  1  0  0  0  0
 22 23  1  0  0  0  0
 23 24  1  0  0  0  0
 24 30  1  0  0  0  0
 25 26  1  0  0  0  0
 27 28  2  0  0  0  0
 28 29  1  0  0  0  0
 29 31  1  0  0  0  0
  1 34  1  0  0  0  0
  2 35  1  0  0  0  0
  3 36  1  0  0  0  0
  4 37  1  0  0  0  0
  5 38  1  0  0  0  0
  6 39  1  0  0  0  0
  7 40  1  0  0  0  0
  8 41  1  0  0  0  0
  9 42  1  0  0  0  0
 10 43  1  0  0  0  0
 11 44  1  0  0  0  0
 12 45  1  0  0  0  0
 13 46  1  0  0  0  0
 21 47  1  0  0  0  0
 21 48  1  0  0  0  0
 22 49  1  0  0  0  0
 22 50  1  0  0  0  0
 23 51  1  0  0  0  0
 23 52  1  0  0  0  0
 24 53  1  0  0  0  0
 24 54  1  0  0  0  0
 25 55  1  0  0  0  0
 25 56  1  0  0  0  0
 26 57  1  0  0  0  0
 31 58  1  0  0  0  0
M  END
> <clash_score>
1.2482912038965082

> <docking_score>
-6.100898742675781

> <overlap_score>
0.8837565183639526

$$$$
BENZO_189_2
  -OEChem-08232013443D

 58 62  0     1  0  0  0  0  0999 V2000
   11.5046    4.9795   22.8736 C   0  0  0  0  0  0  0  0  0  0  0  0
   12.5261    4.1452   22.4196 C   0  0  0  0  0  0  0  0  0  0  0  0
   10.3194    4.4290   23.3613 C   0  0  0  0  0  0  0  0  0  0  0  0
    3.9160    2.0630   19.5520 C   0  0  0  0  0  0  0  0  0  0  0  0
    4.2750    1.7050   20.8490 C   0  0  0  0  0  0  0  0  0  0  0  0
   12.3622    2.7604   22.4531 C   0  0  0  0  0  0  0  0  0  0  0  0
   10.1555    3.0442   23.3948 C   0  0  0  0  0  0  0  0  0  0  0  0
    9.0720   -1.1280   24.8640 C   0  0  0  0  0  0  0  0  0  0  0  0
    9.7200   -2.2600   22.8630 C   0  0  0  0  0  0  0  0  0  0  0  0
    4.6890    1.6810   18.4640 C   0  0  0  0  0  0  0  0  0  0  0  0
    5.4210    0.9600   21.0930 C   0  0  0  0  0  0  0  0  0  0  0  0
    8.9960   -2.3380   25.5320 C   0  0  0  0  0  0  0  0  0  0  0  0
    9.6730   -3.4710   23.5300 C   0  0  0  0  0  0  0  0  0  0  0  0
   11.1770    2.2099   22.9407 C   0  0  0  0  0  0  0  0  0  0  0  0
    9.3350   -1.0880   23.5010 C   0  0  0  0  0  0  0  0  0  0  0  0
    5.8300    0.9190   18.6970 C   0  0  0  0  0  0  0  0  0  0  0  0
    6.1790    0.5730   19.9990 C   0  0  0  0  0  0  0  0  0  0  0  0
    9.3070   -3.5340   24.8780 C   0  0  0  0  0  0  0  0  0  0  0  0
    8.3596   -5.0074   26.6306 C   0  0  0  0  0  0  0  0  0  0  0  0
    9.0420    0.3700   21.5280 C   0  0  0  0  0  0  0  0  0  0  0  0
    8.4719   -6.3982   27.2294 C   0  0  0  0  0  0  0  0  0  0  0  0
    9.9251   -6.7607   27.4801 C   0  0  0  0  0  0  0  0  0  0  0  0
   10.7833   -6.6095   26.2280 C   0  0  0  0  0  0  0  0  0  0  0  0
   10.0539   -5.9100   25.0821 C   0  0  0  0  0  0  0  0  0  0  0  0
   10.9988    0.7103   22.9770 C   0  0  0  0  0  0  0  0  0  0  0  0
    9.4560    0.1560   22.8130 C   0  0  2  0  0  0  0  0  0  0  0  0
    6.7580    0.3810   17.8350 N   0  0  0  0  0  0  0  0  0  0  0  0
    7.6390   -0.2680   18.5410 N   0  0  0  0  0  0  0  0  0  0  0  0
    7.3170   -0.1610   19.8550 N   0  0  0  0  0  0  0  0  0  0  0  0
    9.2529   -4.7797   25.5643 N   0  0  0  0  0  0  0  0  0  0  0  0
    8.1890   -0.7180   20.8700 N   0  0  0  0  0  0  0  0  0  0  0  0
    7.4954   -4.2357   27.0448 O   0  0  0  0  0  0  0  0  0  0  0  0
    9.2690    1.4140   20.9380 O   0  0  0  0  0  0  0  0  0  0  0  0
   11.6329    6.0577   22.8488 H   0  0  0  0  0  0  0  0  0  0  0  0
   13.4495    4.5736   22.0409 H   0  0  0  0  0  0  0  0  0  0  0  0
    9.5243    5.0783   23.7160 H   0  0  0  0  0  0  0  0  0  0  0  0
    3.0136    2.6526   19.3908 H   0  0  0  0  0  0  0  0  0  0  0  0
    3.6480    2.0140   21.6821 H   0  0  0  0  0  0  0  0  0  0  0  0
   13.1634    2.1181   22.0970 H   0  0  0  0  0  0  0  0  0  0  0  0
    9.2286    2.6243   23.7763 H   0  0  0  0  0  0  0  0  0  0  0  0
    8.9202   -0.1986   25.4206 H   0  0  0  0  0  0  0  0  0  0  0  0
   10.0631   -2.2319   21.8252 H   0  0  0  0  0  0  0  0  0  0  0  0
    4.4042    1.9741   17.4524 H   0  0  0  0  0  0  0  0  0  0  0  0
    5.7089    0.6919   22.1150 H   0  0  0  0  0  0  0  0  0  0  0  0
    8.6898   -2.3534   26.5810 H   0  0  0  0  0  0  0  0  0  0  0  0
    9.9254   -4.3899   22.9914 H   0  0  0  0  0  0  0  0  0  0  0  0
    7.9324   -6.4149   28.1639 H   0  0  0  0  0  0  0  0  0  0  0  0
    8.0254   -7.0921   26.5330 H   0  0  0  0  0  0  0  0  0  0  0  0
   10.3386   -6.1268   28.2921 H   0  0  0  0  0  0  0  0  0  0  0  0
    9.9903   -7.8025   27.8535 H   0  0  0  0  0  0  0  0  0  0  0  0
   11.7036   -6.0405   26.4770 H   0  0  0  0  0  0  0  0  0  0  0  0
   11.1411   -7.6069   25.8917 H   0  0  0  0  0  0  0  0  0  0  0  0
   10.7783   -5.5162   24.3756 H   0  0  0  0  0  0  0  0  0  0  0  0
    9.4042   -6.6189   24.5805 H   0  0  0  0  0  0  0  0  0  0  0  0
   11.6488    0.2736   22.2061 H   0  0  0  0  0  0  0  0  0  0  0  0
   11.3815    0.3161   23.9279 H   0  0  0  0  0  0  0  0  0  0  0  0
    8.9230    0.9815   23.4801 H   0  0  0  0  0  0  0  0  0  0  0  0
    8.2487   -1.5564   21.0972 H   0  0  0  0  0  0  0  0  0  0  0  0
  1  2  1  0  0  0  0
  1  3  2  0  0  0  0
  2  6  2  0  0  0  0
  3  7  1  0  0  0  0
  4  5  1  0  0  0  0
  4 10  2  0  0  0  0
  5 11  2  0  0  0  0
  6 14  1  0  0  0  0
  7 14  2  0  0  0  0
  8 12  2  0  0  0  0
  8 15  1  0  0  0  0
  9 13  1  0  0  0  0
  9 15  2  0  0  0  0
 10 16  1  0  0  0  0
 11 17  1  0  0  0  0
 12 18  1  0  0  0  0
 13 18  2  0  0  0  0
 14 25  1  0  0  0  0
 15 26  1  0  0  0  0
 16 17  2  0  0  0  0
 16 27  1  0  0  0  0
 17 29  1  0  0  0  0
 18 30  1  0  0  0  0
 19 21  1  0  0  0  0
 19 30  1  0  0  0  0
 19 32  2  0  0  0  0
 20 26  1  6  0  0  0
 20 31  1  0  0  0  0
 20 33  2  0  0  0  0
 21 22  1  0  0  0  0
 22 23  1  0  0  0  0
 23 24  1  0  0  0  0
 24 30  1  0  0  0  0
 25 26  1  0  0  0  0
 27 28  2  0  0  0  0
 28 29  1  0  0  0  0
 29 31  1  0  0  0  0
  1 34  1  0  0  0  0
  2 35  1  0  0  0  0
  3 36  1  0  0  0  0
  4 37  1  0  0  0  0
  5 38  1  0  0  0  0
  6 39  1  0  0  0  0
  7 40  1  0  0  0  0
  8 41  1  0  0  0  0
  9 42  1  0  0  0  0
 10 43  1  0  0  0  0
 11 44  1  0  0  0  0
 12 45  1  0  0  0  0
 13 46  1  0  0  0  0
 21 47  1  0  0  0  0
 21 48  1  0  0  0  0
 22 49  1  0  0  0  0
 22 50  1  0  0  0  0
 23 51  1  0  0  0  0
 23 52  1  0  0  0  0
 24 53  1  0  0  0  0
 24 54  1  0  0  0  0
 25 55  1  0  0  0  0
 25 56  1  0  0  0  0
 26 57  1  0  0  0  0
 31 58  1  0  0  0  0
M  END
> <clash_score>
0.7790931276820443

> <docking_score>
-8.925422668457031

> <overlap_score>
0.9509743452072144

$$$$
BENZO_188_1
  -OEChem-08232013443D

 55 59  0     1  0  0  0  0  0999 V2000
    3.9160    2.0630   19.5520 C   0  0  0  0  0  0  0  0  0  0  0  0
    4.2750    1.7050   20.8490 C   0  0  0  0  0  0  0  0  0  0  0  0
    9.0720   -1.1280   24.8640 C   0  0  0  0  0  0  0  0  0  0  0  0
    9.7200   -2.2600   22.8630 C   0  0  0  0  0  0  0  0  0  0  0  0
    4.6890    1.6810   18.4640 C   0  0  0  0  0  0  0  0  0  0  0  0
    5.4210    0.9600   21.0930 C   0  0  0  0  0  0  0  0  0  0  0  0
    8.9960   -2.3380   25.5320 C   0  0  0  0  0  0  0  0  0  0  0  0
    9.6730   -3.4710   23.5300 C   0  0  0  0  0  0  0  0  0  0  0  0
   10.9259    2.7594   23.0876 C   0  0  0  0  0  0  0  0  0  0  0  0
   11.3079    4.0617   22.8514 C   0  0  0  0  0  0  0  0  0  0  0  0
    8.9320    3.8927   23.4647 C   0  0  0  0  0  0  0  0  0  0  0  0
    9.3350   -1.0880   23.5010 C   0  0  0  0  0  0  0  0  0  0  0  0
    9.5496    2.6614   23.4428 C   0  0  0  0  0  0  0  0  0  0  0  0
    5.8300    0.9190   18.6970 C   0  0  0  0  0  0  0  0  0  0  0  0
    6.1790    0.5730   19.9990 C   0  0  0  0  0  0  0  0  0  0  0  0
    9.3070   -3.5340   24.8780 C   0  0  0  0  0  0  0  0  0  0  0  0
    8.3596   -5.0074   26.6306 C   0  0  0  0  0  0  0  0  0  0  0  0
    9.0420    0.3700   21.5280 C   0  0  0  0  0  0  0  0  0  0  0  0
    8.4719   -6.3982   27.2294 C   0  0  0  0  0  0  0  0  0  0  0  0
    9.9251   -6.7607   27.4801 C   0  0  0  0  0  0  0  0  0  0  0  0
   10.7833   -6.6095   26.2280 C   0  0  0  0  0  0  0  0  0  0  0  0
   10.0539   -5.9100   25.0821 C   0  0  0  0  0  0  0  0  0  0  0  0
    8.8518    1.3594   23.7588 C   0  0  0  0  0  0  0  0  0  0  0  0
    9.4560    0.1560   22.8130 C   0  0  1  0  0  0  0  0  0  0  0  0
    6.7580    0.3810   17.8350 N   0  0  0  0  0  0  0  0  0  0  0  0
    7.6390   -0.2680   18.5410 N   0  0  0  0  0  0  0  0  0  0  0  0
    7.3170   -0.1610   19.8550 N   0  0  0  0  0  0  0  0  0  0  0  0
    9.2529   -4.7797   25.5643 N   0  0  0  0  0  0  0  0  0  0  0  0
    8.1890   -0.7180   20.8700 N   0  0  0  0  0  0  0  0  0  0  0  0
    7.4954   -4.2357   27.0448 O   0  0  0  0  0  0  0  0  0  0  0  0
    9.2690    1.4140   20.9380 O   0  0  0  0  0  0  0  0  0  0  0  0
   10.0100    5.1594   23.0579 S   0  0  0  0  0  0  0  0  0  0  0  0
    3.0136    2.6526   19.3908 H   0  0  0  0  0  0  0  0  0  0  0  0
    3.6480    2.0140   21.6821 H   0  0  0  0  0  0  0  0  0  0  0  0
    8.9202   -0.1986   25.4206 H   0  0  0  0  0  0  0  0  0  0  0  0
   10.0631   -2.2319   21.8252 H   0  0  0  0  0  0  0  0  0  0  0  0
    4.4042    1.9741   17.4524 H   0  0  0  0  0  0  0  0  0  0  0  0
    5.7089    0.6919   22.1150 H   0  0  0  0  0  0  0  0  0  0  0  0
    8.6898   -2.3534   26.5810 H   0  0  0  0  0  0  0  0  0  0  0  0
    9.9254   -4.3899   22.9914 H   0  0  0  0  0  0  0  0  0  0  0  0
   11.6051    1.9199   23.0086 H   0  0  0  0  0  0  0  0  0  0  0  0
   12.2871    4.4211   22.5681 H   0  0  0  0  0  0  0  0  0  0  0  0
    7.9002    4.1134   23.7007 H   0  0  0  0  0  0  0  0  0  0  0  0
    7.9324   -6.4149   28.1639 H   0  0  0  0  0  0  0  0  0  0  0  0
    8.0254   -7.0921   26.5330 H   0  0  0  0  0  0  0  0  0  0  0  0
   10.3386   -6.1268   28.2921 H   0  0  0  0  0  0  0  0  0  0  0  0
    9.9903   -7.8025   27.8535 H   0  0  0  0  0  0  0  0  0  0  0  0
   11.7036   -6.0405   26.4770 H   0  0  0  0  0  0  0  0  0  0  0  0
   11.1411   -7.6069   25.8917 H   0  0  0  0  0  0  0  0  0  0  0  0
   10.7783   -5.5162   24.3756 H   0  0  0  0  0  0  0  0  0  0  0  0
    9.4042   -6.6189   24.5805 H   0  0  0  0  0  0  0  0  0  0  0  0
    8.9481    1.1773   24.8382 H   0  0  0  0  0  0  0  0  0  0  0  0
    7.7730    1.4670   23.5839 H   0  0  0  0  0  0  0  0  0  0  0  0
   10.5990    0.4745   22.8590 H   0  0  0  0  0  0  0  0  0  0  0  0
    8.2487   -1.5564   21.0972 H   0  0  0  0  0  0  0  0  0  0  0  0
  1  2  1  0  0  0  0
  1  5  2  0  0  0  0
  2  6  2  0  0  0  0
  3  7  2  0  0  0  0
  3 12  1  0  0  0  0
  4  8  1  0  0  0  0
  4 12  2  0  0  0  0
  5 14  1  0  0  0  0
  6 15  1  0  0  0  0
  7 16  1  0  0  0  0
  8 16  2  0  0  0  0
  9 10  2  0  0  0  0
  9 13  1  0  0  0  0
 10 32  1  0  0  0  0
 11 13  2  0  0  0  0
 11 32  1  0  0  0  0
 12 24  1  0  0  0  0
 13 23  1  0  0  0  0
 14 15  2  0  0  0  0
 14 25  1  0  0  0  0
 15 27  1  0  0  0  0
 16 28  1  0  0  0  0
 17 19  1  0  0  0  0
 17 28  1  0  0  0  0
 17 30  2  0  0  0  0
 18 24  1  1  0  0  0
 18 29  1  0  0  0  0
 18 31  2  0  0  0  0
 19 20  1  0  0  0  0
 20 21  1  0  0  0  0
 21 22  1  0  0  0  0
 22 28  1  0  0  0  0
 23 24  1  0  0  0  0
 25 26  2  0  0  0  0
 26 27  1  0  0  0  0
 27 29  1  0  0  0  0
  1 33  1  0  0  0  0
  2 34  1  0  0  0  0
  3 35  1  0  0  0  0
  4 36  1  0  0  0  0
  5 37  1  0  0  0  0
  6 38  1  0  0  0  0
  7 39  1  0  0  0  0
  8 40  1  0  0  0  0
  9 41  1  0  0  0  0
 10 42  1  0  0  0  0
 11 43  1  0  0  0  0
 19 44  1  0  0  0  0
 19 45  1  0  0  0  0
 20 46  1  0  0  0  0
 20 47  1  0  0  0  0
 21 48  1  0  0  0  0
 21 49  1  0  0  0  0
 22 50  1  0  0  0  0
 22 51  1  0  0  0  0
 23 52  1  0  0  0  0
 23 53  1  0  0  0  0
 24 54  1  0  0  0  0
 29 55  1  0  0  0  0
M  END
> <clash_score>
0.7790931276820443

> <docking_score>
-7.3055009841918945

> <overlap_score>
0.8940867185592651

$$$$
BENZO_188_2
  -OEChem-08232013443D

 55 59  0     1  0  0  0  0  0999 V2000
    3.9160    2.0630   19.5520 C   0  0  0  0  0  0  0  0  0  0  0  0
    4.2750    1.7050   20.8490 C   0  0  0  0  0  0  0  0  0  0  0  0
    9.0720   -1.1280   24.8640 C   0  0  0  0  0  0  0  0  0  0  0  0
    9.7200   -2.2600   22.8630 C   0  0  0  0  0  0  0  0  0  0  0  0
    4.6890    1.6810   18.4640 C   0  0  0  0  0  0  0  0  0  0  0  0
    5.4210    0.9600   21.0930 C   0  0  0  0  0  0  0  0  0  0  0  0
    8.9960   -2.3380   25.5320 C   0  0  0  0  0  0  0  0  0  0  0  0
    9.6730   -3.4710   23.5300 C   0  0  0  0  0  0  0  0  0  0  0  0
   12.0512    2.8846   22.0403 C   0  0  0  0  0  0  0  0  0  0  0  0
   12.0244    4.2502   22.2188 C   0  0  0  0  0  0  0  0  0  0  0  0
   10.5154    3.0857   23.7733 C   0  0  0  0  0  0  0  0  0  0  0  0
    9.3350   -1.0880   23.5010 C   0  0  0  0  0  0  0  0  0  0  0  0
   11.1770    2.2099   22.9407 C   0  0  0  0  0  0  0  0  0  0  0  0
    5.8300    0.9190   18.6970 C   0  0  0  0  0  0  0  0  0  0  0  0
    6.1790    0.5730   19.9990 C   0  0  0  0  0  0  0  0  0  0  0  0
    9.3070   -3.5340   24.8780 C   0  0  0  0  0  0  0  0  0  0  0  0
    8.3596   -5.0074   26.6306 C   0  0  0  0  0  0  0  0  0  0  0  0
    9.0420    0.3700   21.5280 C   0  0  0  0  0  0  0  0  0  0  0  0
    8.4719   -6.3982   27.2294 C   0  0  0  0  0  0  0  0  0  0  0  0
    9.9251   -6.7607   27.4801 C   0  0  0  0  0  0  0  0  0  0  0  0
   10.7833   -6.6095   26.2280 C   0  0  0  0  0  0  0  0  0  0  0  0
   10.0539   -5.9100   25.0821 C   0  0  0  0  0  0  0  0  0  0  0  0
   10.9988    0.7103   22.9770 C   0  0  0  0  0  0  0  0  0  0  0  0
    9.4560    0.1560   22.8130 C   0  0  2  0  0  0  0  0  0  0  0  0
    6.7580    0.3810   17.8350 N   0  0  0  0  0  0  0  0  0  0  0  0
    7.6390   -0.2680   18.5410 N   0  0  0  0  0  0  0  0  0  0  0  0
    7.3170   -0.1610   19.8550 N   0  0  0  0  0  0  0  0  0  0  0  0
    9.2529   -4.7797   25.5643 N   0  0  0  0  0  0  0  0  0  0  0  0
    8.1890   -0.7180   20.8700 N   0  0  0  0  0  0  0  0  0  0  0  0
    7.4954   -4.2357   27.0448 O   0  0  0  0  0  0  0  0  0  0  0  0
    9.2690    1.4140   20.9380 O   0  0  0  0  0  0  0  0  0  0  0  0
   10.9486    4.7140   23.4678 S   0  0  0  0  0  0  0  0  0  0  0  0
    3.0136    2.6526   19.3908 H   0  0  0  0  0  0  0  0  0  0  0  0
    3.6480    2.0140   21.6821 H   0  0  0  0  0  0  0  0  0  0  0  0
    8.9202   -0.1986   25.4206 H   0  0  0  0  0  0  0  0  0  0  0  0
   10.0631   -2.2319   21.8252 H   0  0  0  0  0  0  0  0  0  0  0  0
    4.4042    1.9741   17.4524 H   0  0  0  0  0  0  0  0  0  0  0  0
    5.7089    0.6919   22.1150 H   0  0  0  0  0  0  0  0  0  0  0  0
    8.6898   -2.3534   26.5810 H   0  0  0  0  0  0  0  0  0  0  0  0
    9.9254   -4.3899   22.9914 H   0  0  0  0  0  0  0  0  0  0  0  0
   12.6704    2.3968   21.2980 H   0  0  0  0  0  0  0  0  0  0  0  0
   12.5855    4.9977   21.6760 H   0  0  0  0  0  0  0  0  0  0  0  0
    9.7987    2.8515   24.5482 H   0  0  0  0  0  0  0  0  0  0  0  0
    7.9324   -6.4149   28.1639 H   0  0  0  0  0  0  0  0  0  0  0  0
    8.0254   -7.0921   26.5330 H   0  0  0  0  0  0  0  0  0  0  0  0
   10.3386   -6.1268   28.2921 H   0  0  0  0  0  0  0  0  0  0  0  0
    9.9903   -7.8025   27.8535 H   0  0  0  0  0  0  0  0  0  0  0  0
   11.7036   -6.0405   26.4770 H   0  0  0  0  0  0  0  0  0  0  0  0
   11.1411   -7.6069   25.8917 H   0  0  0  0  0  0  0  0  0  0  0  0
   10.7783   -5.5162   24.3756 H   0  0  0  0  0  0  0  0  0  0  0  0
    9.4042   -6.6189   24.5805 H   0  0  0  0  0  0  0  0  0  0  0  0
   11.6488    0.2736   22.2061 H   0  0  0  0  0  0  0  0  0  0  0  0
   11.3815    0.3161   23.9279 H   0  0  0  0  0  0  0  0  0  0  0  0
    8.9230    0.9815   23.4801 H   0  0  0  0  0  0  0  0  0  0  0  0
    8.2487   -1.5564   21.0972 H   0  0  0  0  0  0  0  0  0  0  0  0
  1  2  1  0  0  0  0
  1  5  2  0  0  0  0
  2  6  2  0  0  0  0
  3  7  2  0  0  0  0
  3 12  1  0  0  0  0
  4  8  1  0  0  0  0
  4 12  2  0  0  0  0
  5 14  1  0  0  0  0
  6 15  1  0  0  0  0
  7 16  1  0  0  0  0
  8 16  2  0  0  0  0
  9 10  2  0  0  0  0
  9 13  1  0  0  0  0
 10 32  1  0  0  0  0
 11 13  2  0  0  0  0
 11 32  1  0  0  0  0
 12 24  1  0  0  0  0
 13 23  1  0  0  0  0
 14 15  2  0  0  0  0
 14 25  1  0  0  0  0
 15 27  1  0  0  0  0
 16 28  1  0  0  0  0
 17 19  1  0  0  0  0
 17 28  1  0  0  0  0
 17 30  2  0  0  0  0
 18 24  1  6  0  0  0
 18 29  1  0  0  0  0
 18 31  2  0  0  0  0
 19 20  1  0  0  0  0
 20 21  1  0  0  0  0
 21 22  1  0  0  0  0
 22 28  1  0  0  0  0
 23 24  1  0  0  0  0
 25 26  2  0  0  0  0
 26 27  1  0  0  0  0
 27 29  1  0  0  0  0
  1 33  1  0  0  0  0
  2 34  1  0  0  0  0
  3 35  1  0  0  0  0
  4 36  1  0  0  0  0
  5 37  1  0  0  0  0
  6 38  1  0  0  0  0
  7 39  1  0  0  0  0
  8 40  1  0  0  0  0
  9 41  1  0  0  0  0
 10 42  1  0  0  0  0
 11 43  1  0  0  0  0
 19 44  1  0  0  0  0
 19 45  1  0  0  0  0
 20 46  1  0  0  0  0
 20 47  1  0  0  0  0
 21 48  1  0  0  0  0
 21 49  1  0  0  0  0
 22 50  1  0  0  0  0
 22 51  1  0  0  0  0
 23 52  1  0  0  0  0
 23 53  1  0  0  0  0
 24 54  1  0  0  0  0
 29 55  1  0  0  0  0
M  END
> <clash_score>
0.7790931276820443

> <docking_score>
-8.278592109680176

> <overlap_score>
0.9400838017463684

$$$$
BENZO_190_1
  -OEChem-08232013443D

 58 62  0     1  0  0  0  0  0999 V2000
    3.9160    2.0630   19.5520 C   0  0  0  0  0  0  0  0  0  0  0  0
    4.2750    1.7050   20.8490 C   0  0  0  0  0  0  0  0  0  0  0  0
    9.6807    4.7078   22.1655 C   0  0  0  0  0  0  0  0  0  0  0  0
    9.0376    3.5049   22.4569 C   0  0  0  0  0  0  0  0  0  0  0  0
    9.0720   -1.1280   24.8640 C   0  0  0  0  0  0  0  0  0  0  0  0
    9.7200   -2.2600   22.8630 C   0  0  0  0  0  0  0  0  0  0  0  0
    4.6890    1.6810   18.4640 C   0  0  0  0  0  0  0  0  0  0  0  0
    5.4210    0.9600   21.0930 C   0  0  0  0  0  0  0  0  0  0  0  0
    8.9960   -2.3380   25.5320 C   0  0  0  0  0  0  0  0  0  0  0  0
    9.6730   -3.4710   23.5300 C   0  0  0  0  0  0  0  0  0  0  0  0
   10.8360    5.0672   22.8597 C   0  0  0  0  0  0  0  0  0  0  0  0
   10.7048    3.0207   24.1371 C   0  0  0  0  0  0  0  0  0  0  0  0
    9.3350   -1.0880   23.5010 C   0  0  0  0  0  0  0  0  0  0  0  0
    9.5496    2.6614   23.4428 C   0  0  0  0  0  0  0  0  0  0  0  0
    5.8300    0.9190   18.6970 C   0  0  0  0  0  0  0  0  0  0  0  0
    6.1790    0.5730   19.9990 C   0  0  0  0  0  0  0  0  0  0  0  0
    9.3070   -3.5340   24.8780 C   0  0  0  0  0  0  0  0  0  0  0  0
   11.3480    4.2236   23.8456 C   0  0  0  0  0  0  0  0  0  0  0  0
    8.3596   -5.0075   26.6307 C   0  0  0  0  0  0  0  0  0  0  0  0
    9.0420    0.3700   21.5280 C   0  0  0  0  0  0  0  0  0  0  0  0
    8.4579   -6.4048   27.2167 C   0  0  0  0  0  0  0  0  0  0  0  0
    8.4717   -7.4504   26.1157 C   0  0  0  0  0  0  0  0  0  0  0  0
    9.5645   -7.1893   25.0840 C   0  0  0  0  0  0  0  0  0  0  0  0
   10.2327   -5.8252   25.2500 C   0  0  0  0  0  0  0  0  0  0  0  0
    8.8518    1.3594   23.7588 C   0  0  0  0  0  0  0  0  0  0  0  0
    9.4560    0.1560   22.8130 C   0  0  1  0  0  0  0  0  0  0  0  0
    6.7580    0.3810   17.8350 N   0  0  0  0  0  0  0  0  0  0  0  0
    7.6390   -0.2680   18.5410 N   0  0  0  0  0  0  0  0  0  0  0  0
    7.3170   -0.1610   19.8550 N   0  0  0  0  0  0  0  0  0  0  0  0
    9.2529   -4.7799   25.5644 N   0  0  0  0  0  0  0  0  0  0  0  0
    8.1890   -0.7180   20.8700 N   0  0  0  0  0  0  0  0  0  0  0  0
    7.5989   -4.1866   27.1423 O   0  0  0  0  0  0  0  0  0  0  0  0
    9.2690    1.4140   20.9380 O   0  0  0  0  0  0  0  0  0  0  0  0
   12.7727    4.6680   24.7026 Cl  0  0  0  0  0  0  0  0  0  0  0  0
    3.0136    2.6526   19.3908 H   0  0  0  0  0  0  0  0  0  0  0  0
    3.6480    2.0140   21.6821 H   0  0  0  0  0  0  0  0  0  0  0  0
    9.2816    5.3645   21.3978 H   0  0  0  0  0  0  0  0  0  0  0  0
    8.1379    3.2331   21.9110 H   0  0  0  0  0  0  0  0  0  0  0  0
    8.9202   -0.1986   25.4206 H   0  0  0  0  0  0  0  0  0  0  0  0
   10.0631   -2.2319   21.8252 H   0  0  0  0  0  0  0  0  0  0  0  0
    4.4042    1.9741   17.4524 H   0  0  0  0  0  0  0  0  0  0  0  0
    5.7089    0.6919   22.1150 H   0  0  0  0  0  0  0  0  0  0  0  0
    8.6898   -2.3534   26.5810 H   0  0  0  0  0  0  0  0  0  0  0  0
    9.9254   -4.3899   22.9914 H   0  0  0  0  0  0  0  0  0  0  0  0
   11.3266    6.0079   22.6222 H   0  0  0  0  0  0  0  0  0  0  0  0
   11.1003    2.3593   24.9045 H   0  0  0  0  0  0  0  0  0  0  0  0
    9.3705   -6.4746   27.7883 H   0  0  0  0  0  0  0  0  0  0  0  0
    7.6054   -6.5499   27.8634 H   0  0  0  0  0  0  0  0  0  0  0  0
    8.6096   -8.4605   26.5547 H   0  0  0  0  0  0  0  0  0  0  0  0
    7.4835   -7.4764   25.6139 H   0  0  0  0  0  0  0  0  0  0  0  0
   10.3359   -7.9850   25.1529 H   0  0  0  0  0  0  0  0  0  0  0  0
    9.1459   -7.2795   24.0580 H   0  0  0  0  0  0  0  0  0  0  0  0
   10.9408   -5.8640   26.0724 H   0  0  0  0  0  0  0  0  0  0  0  0
   10.7522   -5.5631   24.3346 H   0  0  0  0  0  0  0  0  0  0  0  0
    8.9481    1.1773   24.8382 H   0  0  0  0  0  0  0  0  0  0  0  0
    7.7730    1.4670   23.5839 H   0  0  0  0  0  0  0  0  0  0  0  0
   10.5990    0.4745   22.8590 H   0  0  0  0  0  0  0  0  0  0  0  0
    8.2487   -1.5564   21.0972 H   0  0  0  0  0  0  0  0  0  0  0  0
  1  2  1  0  0  0  0
  1  7  2  0  0  0  0
  2  8  2  0  0  0  0
  3  4  2  0  0  0  0
  3 11  1  0  0  0  0
  4 14  1  0  0  0  0
  5  9  2  0  0  0  0
  5 13  1  0  0  0  0
  6 10  1  0  0  0  0
  6 13  2  0  0  0  0
  7 15  1  0  0  0  0
  8 16  1  0  0  0  0
  9 17  1  0  0  0  0
 10 17  2  0  0  0  0
 11 18  2  0  0  0  0
 12 14  2  0  0  0  0
 12 18  1  0  0  0  0
 13 26  1  0  0  0  0
 14 25  1  0  0  0  0
 15 16  2  0  0  0  0
 15 27  1  0  0  0  0
 16 29  1  0  0  0  0
 17 30  1  0  0  0  0
 18 34  1  0  0  0  0
 19 21  1  0  0  0  0
 19 30  1  0  0  0  0
 19 32  2  0  0  0  0
 20 26  1  1  0  0  0
 20 31  1  0  0  0  0
 20 33  2  0  0  0  0
 21 22  1  0  0  0  0
 22 23  1  0  0  0  0
 23 24  1  0  0  0  0
 24 30  1  0  0  0  0
 25 26  1  0  0  0  0
 27 28  2  0  0  0  0
 28 29  1  0  0  0  0
 29 31  1  0  0  0  0
  1 35  1  0  0  0  0
  2 36  1  0  0  0  0
  3 37  1  0  0  0  0
  4 38  1  0  0  0  0
  5 39  1  0  0  0  0
  6 40  1  0  0  0  0
  7 41  1  0  0  0  0
  8 42  1  0  0  0  0
  9 43  1  0  0  0  0
 10 44  1  0  0  0  0
 11 45  1  0  0  0  0
 12 46  1  0  0  0  0
 21 47  1  0  0  0  0
 21 48  1  0  0  0  0
 22 49  1  0  0  0  0
 22 50  1  0  0  0  0
 23 51  1  0  0  0  0
 23 52  1  0  0  0  0
 24 53  1  0  0  0  0
 24 54  1  0  0  0  0
 25 55  1  0  0  0  0
 25 56  1  0  0  0  0
 26 57  1  0  0  0  0
 31 58  1  0  0  0  0
M  END
> <clash_score>
1.2476913415892477

> <docking_score>
-5.4142656326293945

> <overlap_score>
0.8842952847480774

$$$$
BENZO_191_2
  -OEChem-08232013443D

 58 62  0     1  0  0  0  0  0999 V2000
    3.9160    2.0630   19.5520 C   0  0  0  0  0  0  0  0  0  0  0  0
    4.2750    1.7050   20.8490 C   0  0  0  0  0  0  0  0  0  0  0  0
    9.0720   -1.1280   24.8640 C   0  0  0  0  0  0  0  0  0  0  0  0
    9.7200   -2.2600   22.8630 C   0  0  0  0  0  0  0  0  0  0  0  0
    4.6890    1.6810   18.4640 C   0  0  0  0  0  0  0  0  0  0  0  0
    5.4210    0.9600   21.0930 C   0  0  0  0  0  0  0  0  0  0  0  0
    8.9960   -2.3380   25.5320 C   0  0  0  0  0  0  0  0  0  0  0  0
    9.6730   -3.4710   23.5300 C   0  0  0  0  0  0  0  0  0  0  0  0
   10.8679    2.8459   22.9848 C   0  0  0  0  0  0  0  0  0  0  0  0
    9.0373    3.9324   23.5358 C   0  0  0  0  0  0  0  0  0  0  0  0
    9.3350   -1.0880   23.5010 C   0  0  0  0  0  0  0  0  0  0  0  0
    9.5496    2.6614   23.4428 C   0  0  0  0  0  0  0  0  0  0  0  0
    5.8300    0.9190   18.6970 C   0  0  0  0  0  0  0  0  0  0  0  0
    6.1790    0.5730   19.9990 C   0  0  0  0  0  0  0  0  0  0  0  0
    9.3070   -3.5340   24.8780 C   0  0  0  0  0  0  0  0  0  0  0  0
    8.3596   -5.0074   26.6306 C   0  0  0  0  0  0  0  0  0  0  0  0
    9.0420    0.3700   21.5280 C   0  0  0  0  0  0  0  0  0  0  0  0
    8.4719   -6.3982   27.2294 C   0  0  0  0  0  0  0  0  0  0  0  0
    9.9251   -6.7607   27.4801 C   0  0  0  0  0  0  0  0  0  0  0  0
   10.7833   -6.6095   26.2280 C   0  0  0  0  0  0  0  0  0  0  0  0
   10.0539   -5.9100   25.0821 C   0  0  0  0  0  0  0  0  0  0  0  0
    9.9773    6.2085   23.0730 C   0  0  0  0  0  0  0  0  0  0  0  0
    8.8518    1.3594   23.7588 C   0  0  0  0  0  0  0  0  0  0  0  0
    9.4560    0.1560   22.8130 C   0  0  2  0  0  0  0  0  0  0  0  0
   11.1741    4.1328   22.7996 N   0  0  0  0  0  0  0  0  0  0  0  0
    6.7580    0.3810   17.8350 N   0  0  0  0  0  0  0  0  0  0  0  0
    7.6390   -0.2680   18.5410 N   0  0  0  0  0  0  0  0  0  0  0  0
   10.0408    4.7684   23.1429 N   0  0  0  0  0  0  0  0  0  0  0  0
    7.3170   -0.1610   19.8550 N   0  0  0  0  0  0  0  0  0  0  0  0
    9.2529   -4.7797   25.5643 N   0  0  0  0  0  0  0  0  0  0  0  0
    8.1890   -0.7180   20.8700 N   0  0  0  0  0  0  0  0  0  0  0  0
    7.4954   -4.2357   27.0448 O   0  0  0  0  0  0  0  0  0  0  0  0
    9.2690    1.4140   20.9380 O   0  0  0  0  0  0  0  0  0  0  0  0
    3.0136    2.6526   19.3908 H   0  0  0  0  0  0  0  0  0  0  0  0
    3.6480    2.0140   21.6821 H   0  0  0  0  0  0  0  0  0  0  0  0
    8.9202   -0.1986   25.4206 H   0  0  0  0  0  0  0  0  0  0  0  0
   10.0631   -2.2319   21.8252 H   0  0  0  0  0  0  0  0  0  0  0  0
    4.4042    1.9741   17.4524 H   0  0  0  0  0  0  0  0  0  0  0  0
    5.7089    0.6919   22.1150 H   0  0  0  0  0  0  0  0  0  0  0  0
    8.6898   -2.3534   26.5810 H   0  0  0  0  0  0  0  0  0  0  0  0
    9.9254   -4.3899   22.9914 H   0  0  0  0  0  0  0  0  0  0  0  0
   11.6199    2.0979   22.7767 H   0  0  0  0  0  0  0  0  0  0  0  0
    8.0679    4.3038   23.8393 H   0  0  0  0  0  0  0  0  0  0  0  0
    7.9324   -6.4149   28.1639 H   0  0  0  0  0  0  0  0  0  0  0  0
    8.0254   -7.0921   26.5330 H   0  0  0  0  0  0  0  0  0  0  0  0
   10.3386   -6.1268   28.2921 H   0  0  0  0  0  0  0  0  0  0  0  0
    9.9903   -7.8025   27.8535 H   0  0  0  0  0  0  0  0  0  0  0  0
   11.7036   -6.0405   26.4770 H   0  0  0  0  0  0  0  0  0  0  0  0
   11.1411   -7.6069   25.8917 H   0  0  0  0  0  0  0  0  0  0  0  0
   10.7783   -5.5162   24.3756 H   0  0  0  0  0  0  0  0  0  0  0  0
    9.4042   -6.6189   24.5805 H   0  0  0  0  0  0  0  0  0  0  0  0
   10.2955    6.6075   24.0398 H   0  0  0  0  0  0  0  0  0  0  0  0
   10.6374    6.5639   22.2768 H   0  0  0  0  0  0  0  0  0  0  0  0
    8.9513    6.5147   22.8509 H   0  0  0  0  0  0  0  0  0  0  0  0
    8.9481    1.1773   24.8382 H   0  0  0  0  0  0  0  0  0  0  0  0
    7.7730    1.4670   23.5839 H   0  0  0  0  0  0  0  0  0  0  0  0
   10.5990    0.4745   22.8590 H   0  0  0  0  0  0  0  0  0  0  0  0
    8.2487   -1.5564   21.0972 H   0  0  0  0  0  0  0  0  0  0  0  0
  1  2  1  0  0  0  0
  1  5  2  0  0  0  0
  2  6  2  0  0  0  0
  3  7  2  0  0  0  0
  3 11  1  0  0  0  0
  4  8  1  0  0  0  0
  4 11  2  0  0  0  0
  5 13  1  0  0  0  0
  6 14  1  0  0  0  0
  7 15  1  0  0  0  0
  8 15  2  0  0  0  0
  9 12  1  0  0  0  0
  9 25  2  0  0  0  0
 10 12  2  0  0  0  0
 10 28  1  0  0  0  0
 11 24  1  0  0  0  0
 12 23  1  0  0  0  0
 13 14  2  0  0  0  0
 13 26  1  0  0  0  0
 14 29  1  0  0  0  0
 15 30  1  0  0  0  0
 16 18  1  0  0  0  0
 16 30  1  0  0  0  0
 16 32  2  0  0  0  0
 17 24  1  0  0  0  0
 17 31  1  0  0  0  0
 17 33  2  0  0  0  0
 18 19  1  0  0  0  0
 19 20  1  0  0  0  0
 20 21  1  0  0  0  0
 21 30  1  0  0  0  0
 22 28  1  0  0  0  0
 23 24  1  6  0  0  0
 25 28  1  0  0  0  0
 26 27  2  0  0  0  0
 27 29  1  0  0  0  0
 29 31  1  0  0  0  0
  1 34  1  0  0  0  0
  2 35  1  0  0  0  0
  3 36  1  0  0  0  0
  4 37  1  0  0  0  0
  5 38  1  0  0  0  0
  6 39  1  0  0  0  0
  7 40  1  0  0  0  0
  8 41  1  0  0  0  0
  9 42  1  0  0  0  0
 10 43  1  0  0  0  0
 18 44  1  0  0  0  0
 18 45  1  0  0  0  0
 19 46  1  0  0  0  0
 19 47  1  0  0  0  0
 20 48  1  0  0  0  0
 20 49  1  0  0  0  0
 21 50  1  0  0  0  0
 21 51  1  0  0  0  0
 22 52  1  0  0  0  0
 22 53  1  0  0  0  0
 22 54  1  0  0  0  0
 23 55  1  0  0  0  0
 23 56  1  0  0  0  0
 24 57  1  0  0  0  0
 31 58  1  0  0  0  0
M  END
> <clash_score>
0.7790931276820443

> <docking_score>
-7.557215690612793

> <overlap_score>
0.888633668422699

$$$$
BENZO_193_1
  -OEChem-08232013443D

 57 61  0     1  0  0  0  0  0999 V2000
   10.8376    5.0659   22.8578 C   0  0  0  0  0  0  0  0  0  0  0  0
   11.3489    4.2229   23.8444 C   0  0  0  0  0  0  0  0  0  0  0  0
    9.6822    4.7067   22.1636 C   0  0  0  0  0  0  0  0  0  0  0  0
    3.9160    2.0630   19.5520 C   0  0  0  0  0  0  0  0  0  0  0  0
    4.2750    1.7050   20.8490 C   0  0  0  0  0  0  0  0  0  0  0  0
   10.7049    3.0206   24.1368 C   0  0  0  0  0  0  0  0  0  0  0  0
    9.0382    3.5045   22.4561 C   0  0  0  0  0  0  0  0  0  0  0  0
    9.0720   -1.1280   24.8640 C   0  0  0  0  0  0  0  0  0  0  0  0
    9.7200   -2.2600   22.8630 C   0  0  0  0  0  0  0  0  0  0  0  0
    4.6890    1.6810   18.4640 C   0  0  0  0  0  0  0  0  0  0  0  0
    5.4210    0.9600   21.0930 C   0  0  0  0  0  0  0  0  0  0  0  0
    8.9960   -2.3380   25.5320 C   0  0  0  0  0  0  0  0  0  0  0  0
    9.6730   -3.4710   23.5300 C   0  0  0  0  0  0  0  0  0  0  0  0
    9.5496    2.6614   23.4427 C   0  0  0  0  0  0  0  0  0  0  0  0
    9.3350   -1.0880   23.5010 C   0  0  0  0  0  0  0  0  0  0  0  0
    5.8300    0.9190   18.6970 C   0  0  0  0  0  0  0  0  0  0  0  0
    6.1790    0.5730   19.9990 C   0  0  0  0  0  0  0  0  0  0  0  0
    9.3070   -3.5340   24.8780 C   0  0  0  0  0  0  0  0  0  0  0  0
    9.0420    0.3700   21.5280 C   0  0  0  0  0  0  0  0  0  0  0  0
    9.5176   -4.8600   26.9769 C   0  0  0  0  0  0  0  0  0  0  0  0
    8.5166   -5.8725   24.9805 C   0  0  0  0  0  0  0  0  0  0  0  0
    8.1870   -5.0443   27.6986 C   0  0  0  0  0  0  0  0  0  0  0  0
    7.2201   -6.0348   25.7753 C   0  0  0  0  0  0  0  0  0  0  0  0
    8.8518    1.3594   23.7587 C   0  0  0  0  0  0  0  0  0  0  0  0
    9.4560    0.1560   22.8130 C   0  0  1  0  0  0  0  0  0  0  0  0
    6.7580    0.3810   17.8350 N   0  0  0  0  0  0  0  0  0  0  0  0
    7.6390   -0.2680   18.5410 N   0  0  0  0  0  0  0  0  0  0  0  0
    7.3170   -0.1610   19.8550 N   0  0  0  0  0  0  0  0  0  0  0  0
    9.2564   -4.7368   25.5411 N   0  0  0  0  0  0  0  0  0  0  0  0
    8.1890   -0.7180   20.8700 N   0  0  0  0  0  0  0  0  0  0  0  0
    9.2690    1.4140   20.9380 O   0  0  0  0  0  0  0  0  0  0  0  0
    7.4995   -6.1856   27.1717 O   0  0  0  0  0  0  0  0  0  0  0  0
   11.3383    6.0026   22.6311 H   0  0  0  0  0  0  0  0  0  0  0  0
   12.2479    4.5029   24.3857 H   0  0  0  0  0  0  0  0  0  0  0  0
    9.2832    5.3633   21.3962 H   0  0  0  0  0  0  0  0  0  0  0  0
    3.0136    2.6526   19.3908 H   0  0  0  0  0  0  0  0  0  0  0  0
    3.6480    2.0140   21.6821 H   0  0  0  0  0  0  0  0  0  0  0  0
   11.1107    2.3699   24.9070 H   0  0  0  0  0  0  0  0  0  0  0  0
    8.1387    3.2328   21.9100 H   0  0  0  0  0  0  0  0  0  0  0  0
    8.9214   -0.1986   25.4206 H   0  0  0  0  0  0  0  0  0  0  0  0
   10.0622   -2.2326   21.8251 H   0  0  0  0  0  0  0  0  0  0  0  0
    4.4042    1.9741   17.4524 H   0  0  0  0  0  0  0  0  0  0  0  0
    5.7089    0.6919   22.1150 H   0  0  0  0  0  0  0  0  0  0  0  0
    8.6882   -2.3542   26.5803 H   0  0  0  0  0  0  0  0  0  0  0  0
    9.9258   -4.3896   22.9914 H   0  0  0  0  0  0  0  0  0  0  0  0
   10.0207   -3.9702   27.3608 H   0  0  0  0  0  0  0  0  0  0  0  0
   10.1536   -5.7313   27.1546 H   0  0  0  0  0  0  0  0  0  0  0  0
    9.1181   -6.7774   25.0751 H   0  0  0  0  0  0  0  0  0  0  0  0
    8.2812   -5.7063   23.9302 H   0  0  0  0  0  0  0  0  0  0  0  0
    8.3631   -5.2257   28.7609 H   0  0  0  0  0  0  0  0  0  0  0  0
    7.5532   -4.1574   27.6103 H   0  0  0  0  0  0  0  0  0  0  0  0
    6.5460   -5.1840   25.6220 H   0  0  0  0  0  0  0  0  0  0  0  0
    6.6948   -6.9355   25.4433 H   0  0  0  0  0  0  0  0  0  0  0  0
    8.9481    1.1774   24.8382 H   0  0  0  0  0  0  0  0  0  0  0  0
    7.7730    1.4670   23.5839 H   0  0  0  0  0  0  0  0  0  0  0  0
   10.5990    0.4745   22.8590 H   0  0  0  0  0  0  0  0  0  0  0  0
    8.2487   -1.5564   21.0972 H   0  0  0  0  0  0  0  0  0  0  0  0
  1  2  1  0  0  0  0
  1  3  2  0  0  0  0
  2  6  2  0  0  0  0
  3  7  1  0  0  0  0
  4  5  1  0  0  0  0
  4 10  2  0  0  0  0
  5 11  2  0  0  0  0
  6 14  1  0  0  0  0
  7 14  2  0  0  0  0
  8 12  2  0  0  0  0
  8 15  1  0  0  0  0
  9 13  1  0  0  0  0
  9 15  2  0  0  0  0
 10 16  1  0  0  0  0
 11 17  1  0  0  0  0
 12 18  1  0  0  0  0
 13 18  2  0  0  0  0
 14 24  1  0  0  0  0
 15 25  1  0  0  0  0
 16 17  2  0  0  0  0
 16 26  1  0  0  0  0
 17 28  1  0  0  0  0
 18 29  1  0  0  0  0
 19 25  1  1  0  0  0
 19 30  1  0  0  0  0
 19 31  2  0  0  0  0
 20 22  1  0  0  0  0
 20 29  1  0  0  0  0
 21 23  1  0  0  0  0
 21 29  1  0  0  0  0
 22 32  1  0  0  0  0
 23 32  1  0  0  0  0
 24 25  1  0  0  0  0
 26 27  2  0  0  0  0
 27 28  1  0  0  0  0
 28 30  1  0  0  0  0
  1 33  1  0  0  0  0
  2 34  1  0  0  0  0
  3 35  1  0  0  0  0
  4 36  1  0  0  0  0
  5 37  1  0  0  0  0
  6 38  1  0  0  0  0
  7 39  1  0  0  0  0
  8 40  1  0  0  0  0
  9 41  1  0  0  0  0
 10 42  1  0  0  0  0
 11 43  1  0  0  0  0
 12 44  1  0  0  0  0
 13 45  1  0  0  0  0
 20 46  1  0  0  0  0
 20 47  1  0  0  0  0
 21 48  1  0  0  0  0
 21 49  1  0  0  0  0
 22 50  1  0  0  0  0
 22 51  1  0  0  0  0
 23 52  1  0  0  0  0
 23 53  1  0  0  0  0
 24 54  1  0  0  0  0
 24 55  1  0  0  0  0
 25 56  1  0  0  0  0
 30 57  1  0  0  0  0
M  END
> <clash_score>
0.6129046322907171

> <docking_score>
-7.208086967468262

> <overlap_score>
0.8695846199989319

$$$$
BENZO_191_1
  -OEChem-08232013443D

 58 62  0     1  0  0  0  0  0999 V2000
    3.9160    2.0630   19.5520 C   0  0  0  0  0  0  0  0  0  0  0  0
    4.2750    1.7050   20.8490 C   0  0  0  0  0  0  0  0  0  0  0  0
    9.0720   -1.1280   24.8640 C   0  0  0  0  0  0  0  0  0  0  0  0
    9.7200   -2.2600   22.8630 C   0  0  0  0  0  0  0  0  0  0  0  0
    4.6890    1.6810   18.4640 C   0  0  0  0  0  0  0  0  0  0  0  0
    5.4210    0.9600   21.0930 C   0  0  0  0  0  0  0  0  0  0  0  0
    8.9960   -2.3380   25.5320 C   0  0  0  0  0  0  0  0  0  0  0  0
    9.6730   -3.4710   23.5300 C   0  0  0  0  0  0  0  0  0  0  0  0
   10.2647    3.1985   23.3556 C   0  0  0  0  0  0  0  0  0  0  0  0
   12.2689    2.9149   22.4968 C   0  0  0  0  0  0  0  0  0  0  0  0
    9.3350   -1.0880   23.5010 C   0  0  0  0  0  0  0  0  0  0  0  0
   11.1770    2.2099   22.9407 C   0  0  0  0  0  0  0  0  0  0  0  0
    5.8300    0.9190   18.6970 C   0  0  0  0  0  0  0  0  0  0  0  0
    6.1790    0.5730   19.9990 C   0  0  0  0  0  0  0  0  0  0  0  0
    9.3070   -3.5340   24.8780 C   0  0  0  0  0  0  0  0  0  0  0  0
    8.3596   -5.0074   26.6306 C   0  0  0  0  0  0  0  0  0  0  0  0
    9.0420    0.3700   21.5280 C   0  0  0  0  0  0  0  0  0  0  0  0
    8.4719   -6.3982   27.2294 C   0  0  0  0  0  0  0  0  0  0  0  0
    9.9251   -6.7607   27.4801 C   0  0  0  0  0  0  0  0  0  0  0  0
   10.7833   -6.6095   26.2280 C   0  0  0  0  0  0  0  0  0  0  0  0
   10.0539   -5.9100   25.0821 C   0  0  0  0  0  0  0  0  0  0  0  0
   12.7964    5.3596   22.3419 C   0  0  0  0  0  0  0  0  0  0  0  0
   10.9988    0.7103   22.9770 C   0  0  0  0  0  0  0  0  0  0  0  0
    9.4560    0.1560   22.8130 C   0  0  1  0  0  0  0  0  0  0  0  0
   10.7361    4.4372   23.1903 N   0  0  0  0  0  0  0  0  0  0  0  0
    6.7580    0.3810   17.8350 N   0  0  0  0  0  0  0  0  0  0  0  0
    7.6390   -0.2680   18.5410 N   0  0  0  0  0  0  0  0  0  0  0  0
   11.9566    4.2317   22.6667 N   0  0  0  0  0  0  0  0  0  0  0  0
    7.3170   -0.1610   19.8550 N   0  0  0  0  0  0  0  0  0  0  0  0
    9.2529   -4.7797   25.5643 N   0  0  0  0  0  0  0  0  0  0  0  0
    8.1890   -0.7180   20.8700 N   0  0  0  0  0  0  0  0  0  0  0  0
    7.4954   -4.2357   27.0448 O   0  0  0  0  0  0  0  0  0  0  0  0
    9.2690    1.4140   20.9380 O   0  0  0  0  0  0  0  0  0  0  0  0
    3.0136    2.6526   19.3908 H   0  0  0  0  0  0  0  0  0  0  0  0
    3.6480    2.0140   21.6821 H   0  0  0  0  0  0  0  0  0  0  0  0
    8.9202   -0.1986   25.4206 H   0  0  0  0  0  0  0  0  0  0  0  0
   10.0631   -2.2319   21.8252 H   0  0  0  0  0  0  0  0  0  0  0  0
    4.4042    1.9741   17.4524 H   0  0  0  0  0  0  0  0  0  0  0  0
    5.7089    0.6919   22.1150 H   0  0  0  0  0  0  0  0  0  0  0  0
    8.6898   -2.3534   26.5810 H   0  0  0  0  0  0  0  0  0  0  0  0
    9.9254   -4.3899   22.9914 H   0  0  0  0  0  0  0  0  0  0  0  0
    9.2758    3.0704   23.7727 H   0  0  0  0  0  0  0  0  0  0  0  0
   13.2185    2.5996   22.0861 H   0  0  0  0  0  0  0  0  0  0  0  0
    7.9324   -6.4149   28.1639 H   0  0  0  0  0  0  0  0  0  0  0  0
    8.0254   -7.0921   26.5330 H   0  0  0  0  0  0  0  0  0  0  0  0
   10.3386   -6.1268   28.2921 H   0  0  0  0  0  0  0  0  0  0  0  0
    9.9903   -7.8025   27.8535 H   0  0  0  0  0  0  0  0  0  0  0  0
   11.7036   -6.0405   26.4770 H   0  0  0  0  0  0  0  0  0  0  0  0
   11.1411   -7.6069   25.8917 H   0  0  0  0  0  0  0  0  0  0  0  0
   10.7783   -5.5162   24.3756 H   0  0  0  0  0  0  0  0  0  0  0  0
    9.4042   -6.6189   24.5805 H   0  0  0  0  0  0  0  0  0  0  0  0
   12.5864    5.6502   21.3092 H   0  0  0  0  0  0  0  0  0  0  0  0
   12.5764    6.1857   23.0239 H   0  0  0  0  0  0  0  0  0  0  0  0
   13.8458    5.0729   22.4537 H   0  0  0  0  0  0  0  0  0  0  0  0
   11.6488    0.2736   22.2061 H   0  0  0  0  0  0  0  0  0  0  0  0
   11.3815    0.3161   23.9279 H   0  0  0  0  0  0  0  0  0  0  0  0
    8.9230    0.9815   23.4801 H   0  0  0  0  0  0  0  0  0  0  0  0
    8.2487   -1.5564   21.0972 H   0  0  0  0  0  0  0  0  0  0  0  0
  1  2  1  0  0  0  0
  1  5  2  0  0  0  0
  2  6  2  0  0  0  0
  3  7  2  0  0  0  0
  3 11  1  0  0  0  0
  4  8  1  0  0  0  0
  4 11  2  0  0  0  0
  5 13  1  0  0  0  0
  6 14  1  0  0  0  0
  7 15  1  0  0  0  0
  8 15  2  0  0  0  0
  9 12  1  0  0  0  0
  9 25  2  0  0  0  0
 10 12  2  0  0  0  0
 10 28  1  0  0  0  0
 11 24  1  0  0  0  0
 12 23  1  0  0  0  0
 13 14  2  0  0  0  0
 13 26  1  0  0  0  0
 14 29  1  0  0  0  0
 15 30  1  0  0  0  0
 16 18  1  0  0  0  0
 16 30  1  0  0  0  0
 16 32  2  0  0  0  0
 17 24  1  0  0  0  0
 17 31  1  0  0  0  0
 17 33  2  0  0  0  0
 18 19  1  0  0  0  0
 19 20  1  0  0  0  0
 20 21  1  0  0  0  0
 21 30  1  0  0  0  0
 22 28  1  0  0  0  0
 23 24  1  1  0  0  0
 25 28  1  0  0  0  0
 26 27  2  0  0  0  0
 27 29  1  0  0  0  0
 29 31  1  0  0  0  0
  1 34  1  0  0  0  0
  2 35  1  0  0  0  0
  3 36  1  0  0  0  0
  4 37  1  0  0  0  0
  5 38  1  0  0  0  0
  6 39  1  0  0  0  0
  7 40  1  0  0  0  0
  8 41  1  0  0  0  0
  9 42  1  0  0  0  0
 10 43  1  0  0  0  0
 18 44  1  0  0  0  0
 18 45  1  0  0  0  0
 19 46  1  0  0  0  0
 19 47  1  0  0  0  0
 20 48  1  0  0  0  0
 20 49  1  0  0  0  0
 21 50  1  0  0  0  0
 21 51  1  0  0  0  0
 22 52  1  0  0  0  0
 22 53  1  0  0  0  0
 22 54  1  0  0  0  0
 23 55  1  0  0  0  0
 23 56  1  0  0  0  0
 24 57  1  0  0  0  0
 31 58  1  0  0  0  0
M  END
> <clash_score>
0.7790931276820443

> <docking_score>
-8.857420921325684

> <overlap_score>
0.9476698040962219

$$$$
BENZO_190_2
  -OEChem-08232013443D

 58 62  0     1  0  0  0  0  0999 V2000
    3.9160    2.0630   19.5520 C   0  0  0  0  0  0  0  0  0  0  0  0
    4.2750    1.7050   20.8490 C   0  0  0  0  0  0  0  0  0  0  0  0
   10.3202    4.4289   23.3636 C   0  0  0  0  0  0  0  0  0  0  0  0
   10.1559    3.0441   23.3958 C   0  0  0  0  0  0  0  0  0  0  0  0
    9.0720   -1.1280   24.8640 C   0  0  0  0  0  0  0  0  0  0  0  0
    9.7200   -2.2600   22.8630 C   0  0  0  0  0  0  0  0  0  0  0  0
    4.6890    1.6810   18.4640 C   0  0  0  0  0  0  0  0  0  0  0  0
    5.4210    0.9600   21.0930 C   0  0  0  0  0  0  0  0  0  0  0  0
    8.9960   -2.3380   25.5320 C   0  0  0  0  0  0  0  0  0  0  0  0
    9.6730   -3.4710   23.5300 C   0  0  0  0  0  0  0  0  0  0  0  0
   11.5056    4.9794   22.8762 C   0  0  0  0  0  0  0  0  0  0  0  0
   12.3623    2.7604   22.4533 C   0  0  0  0  0  0  0  0  0  0  0  0
    9.3350   -1.0880   23.5010 C   0  0  0  0  0  0  0  0  0  0  0  0
   11.1770    2.2099   22.9407 C   0  0  0  0  0  0  0  0  0  0  0  0
    5.8300    0.9190   18.6970 C   0  0  0  0  0  0  0  0  0  0  0  0
    6.1790    0.5730   19.9990 C   0  0  0  0  0  0  0  0  0  0  0  0
    9.3070   -3.5340   24.8780 C   0  0  0  0  0  0  0  0  0  0  0  0
   12.5266    4.1452   22.4211 C   0  0  0  0  0  0  0  0  0  0  0  0
    8.3596   -5.0074   26.6306 C   0  0  0  0  0  0  0  0  0  0  0  0
    9.0420    0.3700   21.5280 C   0  0  0  0  0  0  0  0  0  0  0  0
    8.4719   -6.3982   27.2294 C   0  0  0  0  0  0  0  0  0  0  0  0
    9.9251   -6.7607   27.4801 C   0  0  0  0  0  0  0  0  0  0  0  0
   10.7833   -6.6095   26.2280 C   0  0  0  0  0  0  0  0  0  0  0  0
   10.0539   -5.9100   25.0821 C   0  0  0  0  0  0  0  0  0  0  0  0
   10.9988    0.7103   22.9770 C   0  0  0  0  0  0  0  0  0  0  0  0
    9.4560    0.1560   22.8130 C   0  0  2  0  0  0  0  0  0  0  0  0
    6.7580    0.3810   17.8350 N   0  0  0  0  0  0  0  0  0  0  0  0
    7.6390   -0.2680   18.5410 N   0  0  0  0  0  0  0  0  0  0  0  0
    7.3170   -0.1610   19.8550 N   0  0  0  0  0  0  0  0  0  0  0  0
    9.2529   -4.7797   25.5643 N   0  0  0  0  0  0  0  0  0  0  0  0
    8.1890   -0.7180   20.8700 N   0  0  0  0  0  0  0  0  0  0  0  0
    7.4954   -4.2357   27.0448 O   0  0  0  0  0  0  0  0  0  0  0  0
    9.2690    1.4140   20.9380 O   0  0  0  0  0  0  0  0  0  0  0  0
   13.9893    4.8250   21.8209 Cl  0  0  0  0  0  0  0  0  0  0  0  0
    3.0136    2.6526   19.3908 H   0  0  0  0  0  0  0  0  0  0  0  0
    3.6480    2.0140   21.6821 H   0  0  0  0  0  0  0  0  0  0  0  0
    9.5250    5.0782   23.7183 H   0  0  0  0  0  0  0  0  0  0  0  0
    9.2290    2.6239   23.7774 H   0  0  0  0  0  0  0  0  0  0  0  0
    8.9202   -0.1986   25.4206 H   0  0  0  0  0  0  0  0  0  0  0  0
   10.0631   -2.2319   21.8252 H   0  0  0  0  0  0  0  0  0  0  0  0
    4.4042    1.9741   17.4524 H   0  0  0  0  0  0  0  0  0  0  0  0
    5.7089    0.6919   22.1150 H   0  0  0  0  0  0  0  0  0  0  0  0
    8.6898   -2.3534   26.5810 H   0  0  0  0  0  0  0  0  0  0  0  0
    9.9254   -4.3899   22.9914 H   0  0  0  0  0  0  0  0  0  0  0  0
   11.6199    6.0605   22.8573 H   0  0  0  0  0  0  0  0  0  0  0  0
   13.1552    2.1057   22.0991 H   0  0  0  0  0  0  0  0  0  0  0  0
    7.9324   -6.4149   28.1639 H   0  0  0  0  0  0  0  0  0  0  0  0
    8.0254   -7.0921   26.5330 H   0  0  0  0  0  0  0  0  0  0  0  0
   10.3386   -6.1268   28.2921 H   0  0  0  0  0  0  0  0  0  0  0  0
    9.9903   -7.8025   27.8535 H   0  0  0  0  0  0  0  0  0  0  0  0
   11.7036   -6.0405   26.4770 H   0  0  0  0  0  0  0  0  0  0  0  0
   11.1411   -7.6069   25.8917 H   0  0  0  0  0  0  0  0  0  0  0  0
   10.7783   -5.5162   24.3756 H   0  0  0  0  0  0  0  0  0  0  0  0
    9.4042   -6.6189   24.5805 H   0  0  0  0  0  0  0  0  0  0  0  0
   11.6488    0.2736   22.2061 H   0  0  0  0  0  0  0  0  0  0  0  0
   11.3815    0.3161   23.9279 H   0  0  0  0  0  0  0  0  0  0  0  0
    8.9230    0.9815   23.4801 H   0  0  0  0  0  0  0  0  0  0  0  0
    8.2487   -1.5564   21.0972 H   0  0  0  0  0  0  0  0  0  0  0  0
  1  2  1  0  0  0  0
  1  7  2  0  0  0  0
  2  8  2  0  0  0  0
  3  4  2  0  0  0  0
  3 11  1  0  0  0  0
  4 14  1  0  0  0  0
  5  9  2  0  0  0  0
  5 13  1  0  0  0  0
  6 10  1  0  0  0  0
  6 13  2  0  0  0  0
  7 15  1  0  0  0  0
  8 16  1  0  0  0  0
  9 17  1  0  0  0  0
 10 17  2  0  0  0  0
 11 18  2  0  0  0  0
 12 14  2  0  0  0  0
 12 18  1  0  0  0  0
 13 26  1  0  0  0  0
 14 25  1  0  0  0  0
 15 16  2  0  0  0  0
 15 27  1  0  0  0  0
 16 29  1  0  0  0  0
 17 30  1  0  0  0  0
 18 34  1  0  0  0  0
 19 21  1  0  0  0  0
 19 30  1  0  0  0  0
 19 32  2  0  0  0  0
 20 26  1  6  0  0  0
 20 31  1  0  0  0  0
 20 33  2  0  0  0  0
 21 22  1  0  0  0  0
 22 23  1  0  0  0  0
 23 24  1  0  0  0  0
 24 30  1  0  0  0  0
 25 26  1  0  0  0  0
 27 28  2  0  0  0  0
 28 29  1  0  0  0  0
 29 31  1  0  0  0  0
  1 35  1  0  0  0  0
  2 36  1  0  0  0  0
  3 37  1  0  0  0  0
  4 38  1  0  0  0  0
  5 39  1  0  0  0  0
  6 40  1  0  0  0  0
  7 41  1  0  0  0  0
  8 42  1  0  0  0  0
  9 43  1  0  0  0  0
 10 44  1  0  0  0  0
 11 45  1  0  0  0  0
 12 46  1  0  0  0  0
 21 47  1  0  0  0  0
 21 48  1  0  0  0  0
 22 49  1  0  0  0  0
 22 50  1  0  0  0  0
 23 51  1  0  0  0  0
 23 52  1  0  0  0  0
 24 53  1  0  0  0  0
 24 54  1  0  0  0  0
 25 55  1  0  0  0  0
 25 56  1  0  0  0  0
 26 57  1  0  0  0  0
 31 58  1  0  0  0  0
M  END
> <clash_score>
0.7790931276820443

> <docking_score>
-9.219317436218262

> <overlap_score>
0.9516308307647705

$$$$
BENZO_192_1
  -OEChem-08232013443D

 54 58  0     1  0  0  0  0  0999 V2000
    3.9160    2.0630   19.5520 C   0  0  0  0  0  0  0  0  0  0  0  0
    4.2750    1.7050   20.8490 C   0  0  0  0  0  0  0  0  0  0  0  0
    9.0720   -1.1280   24.8640 C   0  0  0  0  0  0  0  0  0  0  0  0
    9.7200   -2.2600   22.8630 C   0  0  0  0  0  0  0  0  0  0  0  0
    4.6890    1.6810   18.4640 C   0  0  0  0  0  0  0  0  0  0  0  0
    5.4210    0.9600   21.0930 C   0  0  0  0  0  0  0  0  0  0  0  0
    8.9960   -2.3380   25.5320 C   0  0  0  0  0  0  0  0  0  0  0  0
    9.6730   -3.4710   23.5300 C   0  0  0  0  0  0  0  0  0  0  0  0
   10.9259    2.7594   23.0875 C   0  0  0  0  0  0  0  0  0  0  0  0
   11.3079    4.0616   22.8512 C   0  0  0  0  0  0  0  0  0  0  0  0
    8.9320    3.8927   23.4646 C   0  0  0  0  0  0  0  0  0  0  0  0
    9.3350   -1.0880   23.5010 C   0  0  0  0  0  0  0  0  0  0  0  0
    9.5496    2.6614   23.4427 C   0  0  0  0  0  0  0  0  0  0  0  0
    5.8300    0.9190   18.6970 C   0  0  0  0  0  0  0  0  0  0  0  0
    6.1790    0.5730   19.9990 C   0  0  0  0  0  0  0  0  0  0  0  0
    9.3070   -3.5340   24.8780 C   0  0  0  0  0  0  0  0  0  0  0  0
    9.0420    0.3700   21.5280 C   0  0  0  0  0  0  0  0  0  0  0  0
    8.8802   -4.8468   26.9522 C   0  0  0  0  0  0  0  0  0  0  0  0
    9.1312   -5.9971   24.8013 C   0  0  0  0  0  0  0  0  0  0  0  0
    7.4537   -5.3795   27.0345 C   0  0  0  0  0  0  0  0  0  0  0  0
    7.6970   -6.5030   24.9624 C   0  0  0  0  0  0  0  0  0  0  0  0
    8.8518    1.3594   23.7587 C   0  0  0  0  0  0  0  0  0  0  0  0
    9.4560    0.1560   22.8130 C   0  0  1  0  0  0  0  0  0  0  0  0
    6.7580    0.3810   17.8350 N   0  0  0  0  0  0  0  0  0  0  0  0
    7.6390   -0.2680   18.5410 N   0  0  0  0  0  0  0  0  0  0  0  0
    7.3170   -0.1610   19.8550 N   0  0  0  0  0  0  0  0  0  0  0  0
    9.2564   -4.7368   25.5411 N   0  0  0  0  0  0  0  0  0  0  0  0
    8.1890   -0.7180   20.8700 N   0  0  0  0  0  0  0  0  0  0  0  0
    9.2690    1.4140   20.9380 O   0  0  0  0  0  0  0  0  0  0  0  0
    7.3604   -6.6337   26.3481 O   0  0  0  0  0  0  0  0  0  0  0  0
   10.0100    5.1594   23.0577 S   0  0  0  0  0  0  0  0  0  0  0  0
    3.0136    2.6526   19.3908 H   0  0  0  0  0  0  0  0  0  0  0  0
    3.6480    2.0140   21.6821 H   0  0  0  0  0  0  0  0  0  0  0  0
    8.9214   -0.1986   25.4206 H   0  0  0  0  0  0  0  0  0  0  0  0
   10.0622   -2.2326   21.8251 H   0  0  0  0  0  0  0  0  0  0  0  0
    4.4042    1.9741   17.4524 H   0  0  0  0  0  0  0  0  0  0  0  0
    5.7089    0.6919   22.1150 H   0  0  0  0  0  0  0  0  0  0  0  0
    8.6882   -2.3542   26.5803 H   0  0  0  0  0  0  0  0  0  0  0  0
    9.9258   -4.3896   22.9914 H   0  0  0  0  0  0  0  0  0  0  0  0
   11.6051    1.9199   23.0085 H   0  0  0  0  0  0  0  0  0  0  0  0
   12.2871    4.4210   22.5679 H   0  0  0  0  0  0  0  0  0  0  0  0
    7.9002    4.1134   23.7006 H   0  0  0  0  0  0  0  0  0  0  0  0
    8.9362   -3.8759   27.4489 H   0  0  0  0  0  0  0  0  0  0  0  0
    9.5593   -5.5413   27.4538 H   0  0  0  0  0  0  0  0  0  0  0  0
    9.8251   -6.7295   25.2159 H   0  0  0  0  0  0  0  0  0  0  0  0
    9.3501   -5.8539   23.7441 H   0  0  0  0  0  0  0  0  0  0  0  0
    7.1818   -5.5525   28.0779 H   0  0  0  0  0  0  0  0  0  0  0  0
    6.7334   -4.6727   26.6129 H   0  0  0  0  0  0  0  0  0  0  0  0
    6.9790   -5.8386   24.4676 H   0  0  0  0  0  0  0  0  0  0  0  0
    7.6015   -7.4918   24.5034 H   0  0  0  0  0  0  0  0  0  0  0  0
    8.9481    1.1774   24.8382 H   0  0  0  0  0  0  0  0  0  0  0  0
    7.7730    1.4670   23.5839 H   0  0  0  0  0  0  0  0  0  0  0  0
   10.5990    0.4745   22.8590 H   0  0  0  0  0  0  0  0  0  0  0  0
    8.2487   -1.5564   21.0972 H   0  0  0  0  0  0  0  0  0  0  0  0
  1  2  1  0  0  0  0
  1  5  2  0  0  0  0
  2  6  2  0  0  0  0
  3  7  2  0  0  0  0
  3 12  1  0  0  0  0
  4  8  1  0  0  0  0
  4 12  2  0  0  0  0
  5 14  1  0  0  0  0
  6 15  1  0  0  0  0
  7 16  1  0  0  0  0
  8 16  2  0  0  0  0
  9 10  2  0  0  0  0
  9 13  1  0  0  0  0
 10 31  1  0  0  0  0
 11 13  2  0  0  0  0
 11 31  1  0  0  0  0
 12 23  1  0  0  0  0
 13 22  1  0  0  0  0
 14 15  2  0  0  0  0
 14 24  1  0  0  0  0
 15 26  1  0  0  0  0
 16 27  1  0  0  0  0
 17 23  1  1  0  0  0
 17 28  1  0  0  0  0
 17 29  2  0  0  0  0
 18 20  1  0  0  0  0
 18 27  1  0  0  0  0
 19 21  1  0  0  0  0
 19 27  1  0  0  0  0
 20 30  1  0  0  0  0
 21 30  1  0  0  0  0
 22 23  1  0  0  0  0
 24 25  2  0  0  0  0
 25 26  1  0  0  0  0
 26 28  1  0  0  0  0
  1 32  1  0  0  0  0
  2 33  1  0  0  0  0
  3 34  1  0  0  0  0
  4 35  1  0  0  0  0
  5 36  1  0  0  0  0
  6 37  1  0  0  0  0
  7 38  1  0  0  0  0
  8 39  1  0  0  0  0
  9 40  1  0  0  0  0
 10 41  1  0  0  0  0
 11 42  1  0  0  0  0
 18 43  1  0  0  0  0
 18 44  1  0  0  0  0
 19 45  1  0  0  0  0
 19 46  1  0  0  0  0
 20 47  1  0  0  0  0
 20 48  1  0  0  0  0
 21 49  1  0  0  0  0
 21 50  1  0  0  0  0
 22 51  1  0  0  0  0
 22 52  1  0  0  0  0
 23 53  1  0  0  0  0
 28 54  1  0  0  0  0
M  END
> <clash_score>
0

> <docking_score>
-8.263883590698242

> <overlap_score>
0.8887324929237366

$$$$
BENZO_193_2
  -OEChem-08232013443D

 57 61  0     1  0  0  0  0  0999 V2000
   11.5046    4.9795   22.8735 C   0  0  0  0  0  0  0  0  0  0  0  0
   12.5260    4.1453   22.4195 C   0  0  0  0  0  0  0  0  0  0  0  0
   10.3193    4.4290   23.3612 C   0  0  0  0  0  0  0  0  0  0  0  0
    3.9160    2.0630   19.5520 C   0  0  0  0  0  0  0  0  0  0  0  0
    4.2750    1.7050   20.8490 C   0  0  0  0  0  0  0  0  0  0  0  0
   12.3622    2.7604   22.4530 C   0  0  0  0  0  0  0  0  0  0  0  0
   10.1555    3.0442   23.3947 C   0  0  0  0  0  0  0  0  0  0  0  0
    9.0720   -1.1280   24.8640 C   0  0  0  0  0  0  0  0  0  0  0  0
    9.7200   -2.2600   22.8630 C   0  0  0  0  0  0  0  0  0  0  0  0
    4.6890    1.6810   18.4640 C   0  0  0  0  0  0  0  0  0  0  0  0
    5.4210    0.9600   21.0930 C   0  0  0  0  0  0  0  0  0  0  0  0
    8.9960   -2.3380   25.5320 C   0  0  0  0  0  0  0  0  0  0  0  0
    9.6730   -3.4710   23.5300 C   0  0  0  0  0  0  0  0  0  0  0  0
   11.1769    2.2099   22.9406 C   0  0  0  0  0  0  0  0  0  0  0  0
    9.3350   -1.0880   23.5010 C   0  0  0  0  0  0  0  0  0  0  0  0
    5.8300    0.9190   18.6970 C   0  0  0  0  0  0  0  0  0  0  0  0
    6.1790    0.5730   19.9990 C   0  0  0  0  0  0  0  0  0  0  0  0
    9.3070   -3.5340   24.8780 C   0  0  0  0  0  0  0  0  0  0  0  0
    9.0420    0.3700   21.5280 C   0  0  0  0  0  0  0  0  0  0  0  0
    9.5176   -4.8600   26.9769 C   0  0  0  0  0  0  0  0  0  0  0  0
    8.5166   -5.8725   24.9805 C   0  0  0  0  0  0  0  0  0  0  0  0
    8.1870   -5.0443   27.6986 C   0  0  0  0  0  0  0  0  0  0  0  0
    7.2201   -6.0348   25.7753 C   0  0  0  0  0  0  0  0  0  0  0  0
   10.9988    0.7103   22.9770 C   0  0  0  0  0  0  0  0  0  0  0  0
    9.4560    0.1560   22.8130 C   0  0  2  0  0  0  0  0  0  0  0  0
    6.7580    0.3810   17.8350 N   0  0  0  0  0  0  0  0  0  0  0  0
    7.6390   -0.2680   18.5410 N   0  0  0  0  0  0  0  0  0  0  0  0
    7.3170   -0.1610   19.8550 N   0  0  0  0  0  0  0  0  0  0  0  0
    9.2564   -4.7368   25.5411 N   0  0  0  0  0  0  0  0  0  0  0  0
    8.1890   -0.7180   20.8700 N   0  0  0  0  0  0  0  0  0  0  0  0
    9.2690    1.4140   20.9380 O   0  0  0  0  0  0  0  0  0  0  0  0
    7.4995   -6.1856   27.1717 O   0  0  0  0  0  0  0  0  0  0  0  0
   11.6328    6.0578   22.8486 H   0  0  0  0  0  0  0  0  0  0  0  0
   13.4494    4.5737   22.0407 H   0  0  0  0  0  0  0  0  0  0  0  0
    9.5243    5.0783   23.7158 H   0  0  0  0  0  0  0  0  0  0  0  0
    3.0136    2.6526   19.3908 H   0  0  0  0  0  0  0  0  0  0  0  0
    3.6480    2.0140   21.6821 H   0  0  0  0  0  0  0  0  0  0  0  0
   13.1634    2.1181   22.0969 H   0  0  0  0  0  0  0  0  0  0  0  0
    9.2286    2.6243   23.7762 H   0  0  0  0  0  0  0  0  0  0  0  0
    8.9214   -0.1986   25.4206 H   0  0  0  0  0  0  0  0  0  0  0  0
   10.0622   -2.2326   21.8251 H   0  0  0  0  0  0  0  0  0  0  0  0
    4.4042    1.9741   17.4524 H   0  0  0  0  0  0  0  0  0  0  0  0
    5.7089    0.6919   22.1150 H   0  0  0  0  0  0  0  0  0  0  0  0
    8.6882   -2.3542   26.5803 H   0  0  0  0  0  0  0  0  0  0  0  0
    9.9258   -4.3896   22.9914 H   0  0  0  0  0  0  0  0  0  0  0  0
   10.0207   -3.9702   27.3608 H   0  0  0  0  0  0  0  0  0  0  0  0
   10.1536   -5.7313   27.1546 H   0  0  0  0  0  0  0  0  0  0  0  0
    9.1181   -6.7774   25.0751 H   0  0  0  0  0  0  0  0  0  0  0  0
    8.2812   -5.7063   23.9302 H   0  0  0  0  0  0  0  0  0  0  0  0
    8.3631   -5.2257   28.7609 H   0  0  0  0  0  0  0  0  0  0  0  0
    7.5532   -4.1574   27.6103 H   0  0  0  0  0  0  0  0  0  0  0  0
    6.5460   -5.1840   25.6220 H   0  0  0  0  0  0  0  0  0  0  0  0
    6.6948   -6.9355   25.4433 H   0  0  0  0  0  0  0  0  0  0  0  0
   11.6488    0.2736   22.2061 H   0  0  0  0  0  0  0  0  0  0  0  0
   11.3815    0.3162   23.9278 H   0  0  0  0  0  0  0  0  0  0  0  0
    8.9230    0.9815   23.4801 H   0  0  0  0  0  0  0  0  0  0  0  0
    8.2487   -1.5564   21.0972 H   0  0  0  0  0  0  0  0  0  0  0  0
  1  2  1  0  0  0  0
  1  3  2  0  0  0  0
  2  6  2  0  0  0  0
  3  7  1  0  0  0  0
  4  5  1  0  0  0  0
  4 10  2  0  0  0  0
  5 11  2  0  0  0  0
  6 14  1  0  0  0  0
  7 14  2  0  0  0  0
  8 12  2  0  0  0  0
  8 15  1  0  0  0  0
  9 13  1  0  0  0  0
  9 15  2  0  0  0  0
 10 16  1  0  0  0  0
 11 17  1  0  0  0  0
 12 18  1  0  0  0  0
 13 18  2  0  0  0  0
 14 24  1  0  0  0  0
 15 25  1  0  0  0  0
 16 17  2  0  0  0  0
 16 26  1  0  0  0  0
 17 28  1  0  0  0  0
 18 29  1  0  0  0  0
 19 25  1  6  0  0  0
 19 30  1  0  0  0  0
 19 31  2  0  0  0  0
 20 22  1  0  0  0  0
 20 29  1  0  0  0  0
 21 23  1  0  0  0  0
 21 29  1  0  0  0  0
 22 32  1  0  0  0  0
 23 32  1  0  0  0  0
 24 25  1  0  0  0  0
 26 27  2  0  0  0  0
 27 28  1  0  0  0  0
 28 30  1  0  0  0  0
  1 33  1  0  0  0  0
  2 34  1  0  0  0  0
  3 35  1  0  0  0  0
  4 36  1  0  0  0  0
  5 37  1  0  0  0  0
  6 38  1  0  0  0  0
  7 39  1  0  0  0  0
  8 40  1  0  0  0  0
  9 41  1  0  0  0  0
 10 42  1  0  0  0  0
 11 43  1  0  0  0  0
 12 44  1  0  0  0  0
 13 45  1  0  0  0  0
 20 46  1  0  0  0  0
 20 47  1  0  0  0  0
 21 48  1  0  0  0  0
 21 49  1  0  0  0  0
 22 50  1  0  0  0  0
 22 51  1  0  0  0  0
 23 52  1  0  0  0  0
 23 53  1  0  0  0  0
 24 54  1  0  0  0  0
 24 55  1  0  0  0  0
 25 56  1  0  0  0  0
 30 57  1  0  0  0  0
M  END
> <clash_score>
0

> <docking_score>
-9.868823051452637

> <overlap_score>
0.9408429265022278

$$$$
BENZO_192_2
  -OEChem-08232013443D

 54 58  0     1  0  0  0  0  0999 V2000
    3.9160    2.0630   19.5520 C   0  0  0  0  0  0  0  0  0  0  0  0
    4.2750    1.7050   20.8490 C   0  0  0  0  0  0  0  0  0  0  0  0
    9.0720   -1.1280   24.8640 C   0  0  0  0  0  0  0  0  0  0  0  0
    9.7200   -2.2600   22.8630 C   0  0  0  0  0  0  0  0  0  0  0  0
    4.6890    1.6810   18.4640 C   0  0  0  0  0  0  0  0  0  0  0  0
    5.4210    0.9600   21.0930 C   0  0  0  0  0  0  0  0  0  0  0  0
    8.9960   -2.3380   25.5320 C   0  0  0  0  0  0  0  0  0  0  0  0
    9.6730   -3.4710   23.5300 C   0  0  0  0  0  0  0  0  0  0  0  0
   12.0511    2.8846   22.0402 C   0  0  0  0  0  0  0  0  0  0  0  0
   12.0243    4.2502   22.2187 C   0  0  0  0  0  0  0  0  0  0  0  0
   10.5154    3.0858   23.7732 C   0  0  0  0  0  0  0  0  0  0  0  0
    9.3350   -1.0880   23.5010 C   0  0  0  0  0  0  0  0  0  0  0  0
   11.1769    2.2099   22.9406 C   0  0  0  0  0  0  0  0  0  0  0  0
    5.8300    0.9190   18.6970 C   0  0  0  0  0  0  0  0  0  0  0  0
    6.1790    0.5730   19.9990 C   0  0  0  0  0  0  0  0  0  0  0  0
    9.3070   -3.5340   24.8780 C   0  0  0  0  0  0  0  0  0  0  0  0
    9.0420    0.3700   21.5280 C   0  0  0  0  0  0  0  0  0  0  0  0
    8.8802   -4.8468   26.9522 C   0  0  0  0  0  0  0  0  0  0  0  0
    9.1312   -5.9971   24.8013 C   0  0  0  0  0  0  0  0  0  0  0  0
    7.4537   -5.3795   27.0345 C   0  0  0  0  0  0  0  0  0  0  0  0
    7.6970   -6.5030   24.9624 C   0  0  0  0  0  0  0  0  0  0  0  0
   10.9988    0.7103   22.9770 C   0  0  0  0  0  0  0  0  0  0  0  0
    9.4560    0.1560   22.8130 C   0  0  2  0  0  0  0  0  0  0  0  0
    6.7580    0.3810   17.8350 N   0  0  0  0  0  0  0  0  0  0  0  0
    7.6390   -0.2680   18.5410 N   0  0  0  0  0  0  0  0  0  0  0  0
    7.3170   -0.1610   19.8550 N   0  0  0  0  0  0  0  0  0  0  0  0
    9.2564   -4.7368   25.5411 N   0  0  0  0  0  0  0  0  0  0  0  0
    8.1890   -0.7180   20.8700 N   0  0  0  0  0  0  0  0  0  0  0  0
    9.2690    1.4140   20.9380 O   0  0  0  0  0  0  0  0  0  0  0  0
    7.3604   -6.6337   26.3481 O   0  0  0  0  0  0  0  0  0  0  0  0
   10.9486    4.7140   23.4677 S   0  0  0  0  0  0  0  0  0  0  0  0
    3.0136    2.6526   19.3908 H   0  0  0  0  0  0  0  0  0  0  0  0
    3.6480    2.0140   21.6821 H   0  0  0  0  0  0  0  0  0  0  0  0
    8.9214   -0.1986   25.4206 H   0  0  0  0  0  0  0  0  0  0  0  0
   10.0622   -2.2326   21.8251 H   0  0  0  0  0  0  0  0  0  0  0  0
    4.4042    1.9741   17.4524 H   0  0  0  0  0  0  0  0  0  0  0  0
    5.7089    0.6919   22.1150 H   0  0  0  0  0  0  0  0  0  0  0  0
    8.6882   -2.3542   26.5803 H   0  0  0  0  0  0  0  0  0  0  0  0
    9.9258   -4.3896   22.9914 H   0  0  0  0  0  0  0  0  0  0  0  0
   12.6704    2.3968   21.2980 H   0  0  0  0  0  0  0  0  0  0  0  0
   12.5855    4.9978   21.6759 H   0  0  0  0  0  0  0  0  0  0  0  0
    9.7987    2.8515   24.5482 H   0  0  0  0  0  0  0  0  0  0  0  0
    8.9362   -3.8759   27.4489 H   0  0  0  0  0  0  0  0  0  0  0  0
    9.5593   -5.5413   27.4538 H   0  0  0  0  0  0  0  0  0  0  0  0
    9.8251   -6.7295   25.2159 H   0  0  0  0  0  0  0  0  0  0  0  0
    9.3501   -5.8539   23.7441 H   0  0  0  0  0  0  0  0  0  0  0  0
    7.1818   -5.5525   28.0779 H   0  0  0  0  0  0  0  0  0  0  0  0
    6.7334   -4.6727   26.6129 H   0  0  0  0  0  0  0  0  0  0  0  0
    6.9790   -5.8386   24.4676 H   0  0  0  0  0  0  0  0  0  0  0  0
    7.6015   -7.4918   24.5034 H   0  0  0  0  0  0  0  0  0  0  0  0
   11.6488    0.2736   22.2061 H   0  0  0  0  0  0  0  0  0  0  0  0
   11.3815    0.3162   23.9278 H   0  0  0  0  0  0  0  0  0  0  0  0
    8.9230    0.9815   23.4801 H   0  0  0  0  0  0  0  0  0  0  0  0
    8.2487   -1.5564   21.0972 H   0  0  0  0  0  0  0  0  0  0  0  0
  1  2  1  0  0  0  0
  1  5  2  0  0  0  0
  2  6  2  0  0  0  0
  3  7  2  0  0  0  0
  3 12  1  0  0  0  0
  4  8  1  0  0  0  0
  4 12  2  0  0  0  0
  5 14  1  0  0  0  0
  6 15  1  0  0  0  0
  7 16  1  0  0  0  0
  8 16  2  0  0  0  0
  9 10  2  0  0  0  0
  9 13  1  0  0  0  0
 10 31  1  0  0  0  0
 11 13  2  0  0  0  0
 11 31  1  0  0  0  0
 12 23  1  0  0  0  0
 13 22  1  0  0  0  0
 14 15  2  0  0  0  0
 14 24  1  0  0  0  0
 15 26  1  0  0  0  0
 16 27  1  0  0  0  0
 17 23  1  6  0  0  0
 17 28  1  0  0  0  0
 17 29  2  0  0  0  0
 18 20  1  0  0  0  0
 18 27  1  0  0  0  0
 19 21  1  0  0  0  0
 19 27  1  0  0  0  0
 20 30  1  0  0  0  0
 21 30  1  0  0  0  0
 22 23  1  0  0  0  0
 24 25  2  0  0  0  0
 25 26  1  0  0  0  0
 26 28  1  0  0  0  0
  1 32  1  0  0  0  0
  2 33  1  0  0  0  0
  3 34  1  0  0  0  0
  4 35  1  0  0  0  0
  5 36  1  0  0  0  0
  6 37  1  0  0  0  0
  7 38  1  0  0  0  0
  8 39  1  0  0  0  0
  9 40  1  0  0  0  0
 10 41  1  0  0  0  0
 11 42  1  0  0  0  0
 18 43  1  0  0  0  0
 18 44  1  0  0  0  0
 19 45  1  0  0  0  0
 19 46  1  0  0  0  0
 20 47  1  0  0  0  0
 20 48  1  0  0  0  0
 21 49  1  0  0  0  0
 21 50  1  0  0  0  0
 22 51  1  0  0  0  0
 22 52  1  0  0  0  0
 23 53  1  0  0  0  0
 28 54  1  0  0  0  0
M  END
> <clash_score>
0

> <docking_score>
-9.237131118774414

> <overlap_score>
0.9348042011260986

$$$$
BENZO_194_1
  -OEChem-08232013453D

 57 61  0     1  0  0  0  0  0999 V2000
    3.9160    2.0630   19.5520 C   0  0  0  0  0  0  0  0  0  0  0  0
    4.2750    1.7050   20.8490 C   0  0  0  0  0  0  0  0  0  0  0  0
    9.6807    4.7078   22.1653 C   0  0  0  0  0  0  0  0  0  0  0  0
    9.0376    3.5049   22.4568 C   0  0  0  0  0  0  0  0  0  0  0  0
    9.0720   -1.1280   24.8640 C   0  0  0  0  0  0  0  0  0  0  0  0
    9.7200   -2.2600   22.8630 C   0  0  0  0  0  0  0  0  0  0  0  0
    4.6890    1.6810   18.4640 C   0  0  0  0  0  0  0  0  0  0  0  0
    5.4210    0.9600   21.0930 C   0  0  0  0  0  0  0  0  0  0  0  0
    8.9960   -2.3380   25.5320 C   0  0  0  0  0  0  0  0  0  0  0  0
    9.6730   -3.4710   23.5300 C   0  0  0  0  0  0  0  0  0  0  0  0
   10.8360    5.0672   22.8595 C   0  0  0  0  0  0  0  0  0  0  0  0
   10.7048    3.0207   24.1370 C   0  0  0  0  0  0  0  0  0  0  0  0
    9.3350   -1.0880   23.5010 C   0  0  0  0  0  0  0  0  0  0  0  0
    9.5496    2.6614   23.4427 C   0  0  0  0  0  0  0  0  0  0  0  0
    5.8300    0.9190   18.6970 C   0  0  0  0  0  0  0  0  0  0  0  0
    6.1790    0.5730   19.9990 C   0  0  0  0  0  0  0  0  0  0  0  0
    9.3070   -3.5340   24.8780 C   0  0  0  0  0  0  0  0  0  0  0  0
   11.3480    4.2236   23.8454 C   0  0  0  0  0  0  0  0  0  0  0  0
    9.0420    0.3700   21.5280 C   0  0  0  0  0  0  0  0  0  0  0  0
    9.5835   -5.9889   24.8508 C   0  0  0  0  0  0  0  0  0  0  0  0
    8.4830   -4.9307   26.7696 C   0  0  0  0  0  0  0  0  0  0  0  0
    8.2780   -6.7382   24.5802 C   0  0  0  0  0  0  0  0  0  0  0  0
    7.2139   -5.7040   26.4277 C   0  0  0  0  0  0  0  0  0  0  0  0
    8.8518    1.3594   23.7587 C   0  0  0  0  0  0  0  0  0  0  0  0
    9.4560    0.1560   22.8130 C   0  0  1  0  0  0  0  0  0  0  0  0
    6.7580    0.3810   17.8350 N   0  0  0  0  0  0  0  0  0  0  0  0
    7.6390   -0.2680   18.5410 N   0  0  0  0  0  0  0  0  0  0  0  0
    7.3170   -0.1610   19.8550 N   0  0  0  0  0  0  0  0  0  0  0  0
    9.2564   -4.7368   25.5411 N   0  0  0  0  0  0  0  0  0  0  0  0
    8.1890   -0.7180   20.8700 N   0  0  0  0  0  0  0  0  0  0  0  0
    9.2690    1.4140   20.9380 O   0  0  0  0  0  0  0  0  0  0  0  0
    7.5531   -6.9453   25.7977 O   0  0  0  0  0  0  0  0  0  0  0  0
   12.7727    4.6681   24.7024 Cl  0  0  0  0  0  0  0  0  0  0  0  0
    3.0136    2.6526   19.3908 H   0  0  0  0  0  0  0  0  0  0  0  0
    3.6480    2.0140   21.6821 H   0  0  0  0  0  0  0  0  0  0  0  0
    9.2816    5.3644   21.3976 H   0  0  0  0  0  0  0  0  0  0  0  0
    8.1379    3.2330   21.9109 H   0  0  0  0  0  0  0  0  0  0  0  0
    8.9214   -0.1986   25.4206 H   0  0  0  0  0  0  0  0  0  0  0  0
   10.0622   -2.2326   21.8251 H   0  0  0  0  0  0  0  0  0  0  0  0
    4.4042    1.9741   17.4524 H   0  0  0  0  0  0  0  0  0  0  0  0
    5.7089    0.6919   22.1150 H   0  0  0  0  0  0  0  0  0  0  0  0
    8.6882   -2.3542   26.5803 H   0  0  0  0  0  0  0  0  0  0  0  0
    9.9258   -4.3896   22.9914 H   0  0  0  0  0  0  0  0  0  0  0  0
   11.3266    6.0079   22.6219 H   0  0  0  0  0  0  0  0  0  0  0  0
   11.1004    2.3593   24.9044 H   0  0  0  0  0  0  0  0  0  0  0  0
   10.2403   -6.6108   25.4579 H   0  0  0  0  0  0  0  0  0  0  0  0
   10.0757   -5.7616   23.9043 H   0  0  0  0  0  0  0  0  0  0  0  0
    8.2168   -3.9556   27.1860 H   0  0  0  0  0  0  0  0  0  0  0  0
    9.0602   -5.4857   27.5117 H   0  0  0  0  0  0  0  0  0  0  0  0
    7.6439   -6.1455   23.9135 H   0  0  0  0  0  0  0  0  0  0  0  0
    8.4620   -7.7014   24.0901 H   0  0  0  0  0  0  0  0  0  0  0  0
    6.6049   -5.8940   27.3159 H   0  0  0  0  0  0  0  0  0  0  0  0
    6.6090   -5.1300   25.7228 H   0  0  0  0  0  0  0  0  0  0  0  0
    8.9481    1.1774   24.8382 H   0  0  0  0  0  0  0  0  0  0  0  0
    7.7730    1.4670   23.5839 H   0  0  0  0  0  0  0  0  0  0  0  0
   10.5990    0.4745   22.8590 H   0  0  0  0  0  0  0  0  0  0  0  0
    8.2487   -1.5564   21.0972 H   0  0  0  0  0  0  0  0  0  0  0  0
  1  2  1  0  0  0  0
  1  7  2  0  0  0  0
  2  8  2  0  0  0  0
  3  4  2  0  0  0  0
  3 11  1  0  0  0  0
  4 14  1  0  0  0  0
  5  9  2  0  0  0  0
  5 13  1  0  0  0  0
  6 10  1  0  0  0  0
  6 13  2  0  0  0  0
  7 15  1  0  0  0  0
  8 16  1  0  0  0  0
  9 17  1  0  0  0  0
 10 17  2  0  0  0  0
 11 18  2  0  0  0  0
 12 14  2  0  0  0  0
 12 18  1  0  0  0  0
 13 25  1  0  0  0  0
 14 24  1  0  0  0  0
 15 16  2  0  0  0  0
 15 26  1  0  0  0  0
 16 28  1  0  0  0  0
 17 29  1  0  0  0  0
 18 33  1  0  0  0  0
 19 25  1  1  0  0  0
 19 30  1  0  0  0  0
 19 31  2  0  0  0  0
 20 22  1  0  0  0  0
 20 29  1  0  0  0  0
 21 23  1  0  0  0  0
 21 29  1  0  0  0  0
 22 32  1  0  0  0  0
 23 32  1  0  0  0  0
 24 25  1  0  0  0  0
 26 27  2  0  0  0  0
 27 28  1  0  0  0  0
 28 30  1  0  0  0  0
  1 34  1  0  0  0  0
  2 35  1  0  0  0  0
  3 36  1  0  0  0  0
  4 37  1  0  0  0  0
  5 38  1  0  0  0  0
  6 39  1  0  0  0  0
  7 40  1  0  0  0  0
  8 41  1  0  0  0  0
  9 42  1  0  0  0  0
 10 43  1  0  0  0  0
 11 44  1  0  0  0  0
 12 45  1  0  0  0  0
 20 46  1  0  0  0  0
 20 47  1  0  0  0  0
 21 48  1  0  0  0  0
 21 49  1  0  0  0  0
 22 50  1  0  0  0  0
 22 51  1  0  0  0  0
 23 52  1  0  0  0  0
 23 53  1  0  0  0  0
 24 54  1  0  0  0  0
 24 55  1  0  0  0  0
 25 56  1  0  0  0  0
 30 57  1  0  0  0  0
M  END
> <clash_score>
0.6123042987570698

> <docking_score>
-5.908616065979004

> <overlap_score>
0.8767106533050537

$$$$
BENZO_197_1
  -OEChem-08232013453D

 53 56  0     1  0  0  0  0  0999 V2000
   11.5406    4.9642   22.9363 C   0  0  0  0  0  0  0  0  0  0  0  0
   12.5552    4.1270   22.4723 C   0  0  0  0  0  0  0  0  0  0  0  0
   10.3502    4.4177   23.4160 C   0  0  0  0  0  0  0  0  0  0  0  0
    3.9160    2.0630   19.5520 C   0  0  0  0  0  0  0  0  0  0  0  0
    4.2750    1.7050   20.8490 C   0  0  0  0  0  0  0  0  0  0  0  0
   12.3795    2.7434   22.4879 C   0  0  0  0  0  0  0  0  0  0  0  0
   10.1745    3.0341   23.4316 C   0  0  0  0  0  0  0  0  0  0  0  0
    9.0720   -1.1280   24.8640 C   0  0  0  0  0  0  0  0  0  0  0  0
    9.7200   -2.2600   22.8630 C   0  0  0  0  0  0  0  0  0  0  0  0
    4.6890    1.6810   18.4640 C   0  0  0  0  0  0  0  0  0  0  0  0
    5.4210    0.9600   21.0930 C   0  0  0  0  0  0  0  0  0  0  0  0
    8.9960   -2.3380   25.5320 C   0  0  0  0  0  0  0  0  0  0  0  0
    9.6730   -3.4710   23.5300 C   0  0  0  0  0  0  0  0  0  0  0  0
    7.6390   -0.2680   18.5410 C   0  0  0  0  0  0  0  0  0  0  0  0
   11.1891    2.1969   22.9675 C   0  0  0  0  0  0  0  0  0  0  0  0
    9.3350   -1.0880   23.5010 C   0  0  0  0  0  0  0  0  0  0  0  0
    5.8300    0.9190   18.6970 C   0  0  0  0  0  0  0  0  0  0  0  0
    6.1790    0.5730   19.9990 C   0  0  0  0  0  0  0  0  0  0  0  0
    9.3070   -3.5340   24.8780 C   0  0  0  0  0  0  0  0  0  0  0  0
    9.0420    0.3700   21.5280 C   0  0  0  0  0  0  0  0  0  0  0  0
    8.0148   -5.2164   26.1419 C   0  0  0  0  0  0  0  0  0  0  0  0
   10.4390   -5.5857   25.6570 C   0  0  0  0  0  0  0  0  0  0  0  0
   10.9980    0.6985   22.9845 C   0  0  0  0  0  0  0  0  0  0  0  0
    9.4560    0.1560   22.8130 C   0  0  1  0  0  0  0  0  0  0  0  0
    6.7580    0.3810   17.8350 N   0  0  0  0  0  0  0  0  0  0  0  0
    7.3170   -0.1610   19.8550 N   0  0  0  0  0  0  0  0  0  0  0  0
    8.1890   -0.7180   20.8700 N   0  0  0  0  0  0  0  0  0  0  0  0
    9.2556   -4.7554   25.5514 N   0  0  0  0  0  0  0  0  0  0  0  0
    9.2690    1.4140   20.9380 O   0  0  0  0  0  0  0  0  0  0  0  0
   11.6782    6.0415   22.9253 H   0  0  0  0  0  0  0  0  0  0  0  0
   13.4826    4.5523   22.0998 H   0  0  0  0  0  0  0  0  0  0  0  0
    9.5605    5.0692   23.7783 H   0  0  0  0  0  0  0  0  0  0  0  0
    3.0134    2.6521   19.3911 H   0  0  0  0  0  0  0  0  0  0  0  0
    3.6460    2.0127   21.6812 H   0  0  0  0  0  0  0  0  0  0  0  0
   13.1754    2.0988   22.1242 H   0  0  0  0  0  0  0  0  0  0  0  0
    9.2436    2.6172   23.8070 H   0  0  0  0  0  0  0  0  0  0  0  0
    8.9214   -0.1986   25.4206 H   0  0  0  0  0  0  0  0  0  0  0  0
   10.0622   -2.2326   21.8251 H   0  0  0  0  0  0  0  0  0  0  0  0
    4.4037    1.9731   17.4543 H   0  0  0  0  0  0  0  0  0  0  0  0
    5.7084    0.6923   22.1132 H   0  0  0  0  0  0  0  0  0  0  0  0
    8.6882   -2.3542   26.5803 H   0  0  0  0  0  0  0  0  0  0  0  0
    9.9258   -4.3896   22.9914 H   0  0  0  0  0  0  0  0  0  0  0  0
    8.4862   -0.8060   18.1787 H   0  0  0  0  0  0  0  0  0  0  0  0
    8.1775   -6.1919   26.6235 H   0  0  0  0  0  0  0  0  0  0  0  0
    7.6740   -4.4889   26.8933 H   0  0  0  0  0  0  0  0  0  0  0  0
    7.2508   -5.3180   25.3570 H   0  0  0  0  0  0  0  0  0  0  0  0
   10.1974   -6.4996   26.2195 H   0  0  0  0  0  0  0  0  0  0  0  0
   10.7877   -5.8568   24.6496 H   0  0  0  0  0  0  0  0  0  0  0  0
   11.2305   -5.0307   26.1819 H   0  0  0  0  0  0  0  0  0  0  0  0
   11.6403    0.2667   22.2043 H   0  0  0  0  0  0  0  0  0  0  0  0
   11.3821    0.2882   23.9279 H   0  0  0  0  0  0  0  0  0  0  0  0
    8.9221    0.9705   23.4866 H   0  0  0  0  0  0  0  0  0  0  0  0
    8.2749   -1.5586   21.1247 H   0  0  0  0  0  0  0  0  0  0  0  0
  1  2  1  0  0  0  0
  1  3  2  0  0  0  0
  2  6  2  0  0  0  0
  3  7  1  0  0  0  0
  4  5  1  0  0  0  0
  4 10  2  0  0  0  0
  5 11  2  0  0  0  0
  6 15  1  0  0  0  0
  7 15  2  0  0  0  0
  8 12  2  0  0  0  0
  8 16  1  0  0  0  0
  9 13  1  0  0  0  0
  9 16  2  0  0  0  0
 10 17  1  0  0  0  0
 11 18  1  0  0  0  0
 12 19  1  0  0  0  0
 13 19  2  0  0  0  0
 14 25  2  0  0  0  0
 14 26  1  0  0  0  0
 15 23  1  0  0  0  0
 16 24  1  0  0  0  0
 17 18  2  0  0  0  0
 17 25  1  0  0  0  0
 18 26  1  0  0  0  0
 19 28  1  0  0  0  0
 20 24  1  0  0  0  0
 20 27  1  0  0  0  0
 20 29  2  0  0  0  0
 21 28  1  0  0  0  0
 22 28  1  0  0  0  0
 23 24  1  1  0  0  0
 26 27  1  0  0  0  0
  1 30  1  0  0  0  0
  2 31  1  0  0  0  0
  3 32  1  0  0  0  0
  4 33  1  0  0  0  0
  5 34  1  0  0  0  0
  6 35  1  0  0  0  0
  7 36  1  0  0  0  0
  8 37  1  0  0  0  0
  9 38  1  0  0  0  0
 10 39  1  0  0  0  0
 11 40  1  0  0  0  0
 12 41  1  0  0  0  0
 13 42  1  0  0  0  0
 14 43  1  0  0  0  0
 21 44  1  0  0  0  0
 21 45  1  0  0  0  0
 21 46  1  0  0  0  0
 22 47  1  0  0  0  0
 22 48  1  0  0  0  0
 22 49  1  0  0  0  0
 23 50  1  0  0  0  0
 23 51  1  0  0  0  0
 24 52  1  0  0  0  0
 27 53  1  0  0  0  0
M  END
> <clash_score>
0

> <docking_score>
-10.95738697052002

> <overlap_score>
0.9264550805091858

$$$$
BENZO_196_1
  -OEChem-08232013453D

 50 53  0     1  0  0  0  0  0999 V2000
    3.9160    2.0630   19.5520 C   0  0  0  0  0  0  0  0  0  0  0  0
    4.2750    1.7050   20.8490 C   0  0  0  0  0  0  0  0  0  0  0  0
    9.0720   -1.1280   24.8640 C   0  0  0  0  0  0  0  0  0  0  0  0
    9.7200   -2.2600   22.8630 C   0  0  0  0  0  0  0  0  0  0  0  0
    4.6890    1.6810   18.4640 C   0  0  0  0  0  0  0  0  0  0  0  0
    5.4210    0.9600   21.0930 C   0  0  0  0  0  0  0  0  0  0  0  0
    8.9960   -2.3380   25.5320 C   0  0  0  0  0  0  0  0  0  0  0  0
    9.6730   -3.4710   23.5300 C   0  0  0  0  0  0  0  0  0  0  0  0
   12.0646    2.8761   22.0718 C   0  0  0  0  0  0  0  0  0  0  0  0
   12.0506    4.2394   22.2689 C   0  0  0  0  0  0  0  0  0  0  0  0
   10.5394    3.0670   23.8153 C   0  0  0  0  0  0  0  0  0  0  0  0
    7.6390   -0.2680   18.5410 C   0  0  0  0  0  0  0  0  0  0  0  0
    9.3350   -1.0880   23.5010 C   0  0  0  0  0  0  0  0  0  0  0  0
   11.1891    2.1969   22.9675 C   0  0  0  0  0  0  0  0  0  0  0  0
    5.8300    0.9190   18.6970 C   0  0  0  0  0  0  0  0  0  0  0  0
    6.1790    0.5730   19.9990 C   0  0  0  0  0  0  0  0  0  0  0  0
    9.3070   -3.5340   24.8780 C   0  0  0  0  0  0  0  0  0  0  0  0
    9.0420    0.3700   21.5280 C   0  0  0  0  0  0  0  0  0  0  0  0
    8.0148   -5.2164   26.1419 C   0  0  0  0  0  0  0  0  0  0  0  0
   10.4390   -5.5857   25.6570 C   0  0  0  0  0  0  0  0  0  0  0  0
   10.9980    0.6985   22.9845 C   0  0  0  0  0  0  0  0  0  0  0  0
    9.4560    0.1560   22.8130 C   0  0  1  0  0  0  0  0  0  0  0  0
    6.7580    0.3810   17.8350 N   0  0  0  0  0  0  0  0  0  0  0  0
    7.3170   -0.1610   19.8550 N   0  0  0  0  0  0  0  0  0  0  0  0
    8.1890   -0.7180   20.8700 N   0  0  0  0  0  0  0  0  0  0  0  0
    9.2556   -4.7554   25.5514 N   0  0  0  0  0  0  0  0  0  0  0  0
    9.2690    1.4140   20.9380 O   0  0  0  0  0  0  0  0  0  0  0  0
   10.9853    4.6955   23.5296 S   0  0  0  0  0  0  0  0  0  0  0  0
    3.0134    2.6521   19.3911 H   0  0  0  0  0  0  0  0  0  0  0  0
    3.6460    2.0127   21.6812 H   0  0  0  0  0  0  0  0  0  0  0  0
    8.9214   -0.1986   25.4206 H   0  0  0  0  0  0  0  0  0  0  0  0
   10.0622   -2.2326   21.8251 H   0  0  0  0  0  0  0  0  0  0  0  0
    4.4037    1.9731   17.4543 H   0  0  0  0  0  0  0  0  0  0  0  0
    5.7084    0.6923   22.1132 H   0  0  0  0  0  0  0  0  0  0  0  0
    8.6882   -2.3542   26.5803 H   0  0  0  0  0  0  0  0  0  0  0  0
    9.9258   -4.3896   22.9914 H   0  0  0  0  0  0  0  0  0  0  0  0
   12.6757    2.3931   21.3198 H   0  0  0  0  0  0  0  0  0  0  0  0
   12.6155    4.9893   21.7334 H   0  0  0  0  0  0  0  0  0  0  0  0
    9.8247    2.8285   24.5908 H   0  0  0  0  0  0  0  0  0  0  0  0
    8.4862   -0.8060   18.1787 H   0  0  0  0  0  0  0  0  0  0  0  0
    8.1775   -6.1919   26.6235 H   0  0  0  0  0  0  0  0  0  0  0  0
    7.6740   -4.4889   26.8933 H   0  0  0  0  0  0  0  0  0  0  0  0
    7.2508   -5.3180   25.3570 H   0  0  0  0  0  0  0  0  0  0  0  0
   10.1974   -6.4996   26.2195 H   0  0  0  0  0  0  0  0  0  0  0  0
   10.7877   -5.8568   24.6496 H   0  0  0  0  0  0  0  0  0  0  0  0
   11.2305   -5.0307   26.1819 H   0  0  0  0  0  0  0  0  0  0  0  0
   11.6403    0.2667   22.2043 H   0  0  0  0  0  0  0  0  0  0  0  0
   11.3821    0.2882   23.9279 H   0  0  0  0  0  0  0  0  0  0  0  0
    8.9221    0.9705   23.4866 H   0  0  0  0  0  0  0  0  0  0  0  0
    8.2749   -1.5586   21.1247 H   0  0  0  0  0  0  0  0  0  0  0  0
  1  2  1  0  0  0  0
  1  5  2  0  0  0  0
  2  6  2  0  0  0  0
  3  7  2  0  0  0  0
  3 13  1  0  0  0  0
  4  8  1  0  0  0  0
  4 13  2  0  0  0  0
  5 15  1  0  0  0  0
  6 16  1  0  0  0  0
  7 17  1  0  0  0  0
  8 17  2  0  0  0  0
  9 10  2  0  0  0  0
  9 14  1  0  0  0  0
 10 28  1  0  0  0  0
 11 14  2  0  0  0  0
 11 28  1  0  0  0  0
 12 23  2  0  0  0  0
 12 24  1  0  0  0  0
 13 22  1  0  0  0  0
 14 21  1  0  0  0  0
 15 16  2  0  0  0  0
 15 23  1  0  0  0  0
 16 24  1  0  0  0  0
 17 26  1  0  0  0  0
 18 22  1  0  0  0  0
 18 25  1  0  0  0  0
 18 27  2  0  0  0  0
 19 26  1  0  0  0  0
 20 26  1  0  0  0  0
 21 22  1  1  0  0  0
 24 25  1  0  0  0  0
  1 29  1  0  0  0  0
  2 30  1  0  0  0  0
  3 31  1  0  0  0  0
  4 32  1  0  0  0  0
  5 33  1  0  0  0  0
  6 34  1  0  0  0  0
  7 35  1  0  0  0  0
  8 36  1  0  0  0  0
  9 37  1  0  0  0  0
 10 38  1  0  0  0  0
 11 39  1  0  0  0  0
 12 40  1  0  0  0  0
 19 41  1  0  0  0  0
 19 42  1  0  0  0  0
 19 43  1  0  0  0  0
 20 44  1  0  0  0  0
 20 45  1  0  0  0  0
 20 46  1  0  0  0  0
 21 47  1  0  0  0  0
 21 48  1  0  0  0  0
 22 49  1  0  0  0  0
 25 50  1  0  0  0  0
M  END
> <clash_score>
0

> <docking_score>
-10.24017333984375

> <overlap_score>
0.9151835441589355

$$$$
BENZO_195_2
  -OEChem-08232013453D

 57 61  0     1  0  0  0  0  0999 V2000
    3.9160    2.0630   19.5520 C   0  0  0  0  0  0  0  0  0  0  0  0
    4.2750    1.7050   20.8490 C   0  0  0  0  0  0  0  0  0  0  0  0
    9.0720   -1.1280   24.8640 C   0  0  0  0  0  0  0  0  0  0  0  0
    9.7200   -2.2600   22.8630 C   0  0  0  0  0  0  0  0  0  0  0  0
    4.6890    1.6810   18.4640 C   0  0  0  0  0  0  0  0  0  0  0  0
    5.4210    0.9600   21.0930 C   0  0  0  0  0  0  0  0  0  0  0  0
    8.9960   -2.3380   25.5320 C   0  0  0  0  0  0  0  0  0  0  0  0
    9.6730   -3.4710   23.5300 C   0  0  0  0  0  0  0  0  0  0  0  0
   10.8679    2.8459   22.9847 C   0  0  0  0  0  0  0  0  0  0  0  0
    9.0373    3.9324   23.5357 C   0  0  0  0  0  0  0  0  0  0  0  0
    9.3350   -1.0880   23.5010 C   0  0  0  0  0  0  0  0  0  0  0  0
    9.5496    2.6614   23.4427 C   0  0  0  0  0  0  0  0  0  0  0  0
    5.8300    0.9190   18.6970 C   0  0  0  0  0  0  0  0  0  0  0  0
    6.1790    0.5730   19.9990 C   0  0  0  0  0  0  0  0  0  0  0  0
    9.3070   -3.5340   24.8780 C   0  0  0  0  0  0  0  0  0  0  0  0
    9.0420    0.3700   21.5280 C   0  0  0  0  0  0  0  0  0  0  0  0
   10.0772   -5.0257   26.7191 C   0  0  0  0  0  0  0  0  0  0  0  0
    8.0927   -5.6196   25.4069 C   0  0  0  0  0  0  0  0  0  0  0  0
    9.1935   -4.9431   27.9590 C   0  0  0  0  0  0  0  0  0  0  0  0
    7.2758   -5.5292   26.6966 C   0  0  0  0  0  0  0  0  0  0  0  0
    9.9774    6.2085   23.0728 C   0  0  0  0  0  0  0  0  0  0  0  0
    8.8518    1.3594   23.7587 C   0  0  0  0  0  0  0  0  0  0  0  0
    9.4560    0.1560   22.8130 C   0  0  2  0  0  0  0  0  0  0  0  0
   11.1740    4.1328   22.7995 N   0  0  0  0  0  0  0  0  0  0  0  0
    6.7580    0.3810   17.8350 N   0  0  0  0  0  0  0  0  0  0  0  0
    7.6390   -0.2680   18.5410 N   0  0  0  0  0  0  0  0  0  0  0  0
   10.0408    4.7684   23.1427 N   0  0  0  0  0  0  0  0  0  0  0  0
    7.3170   -0.1610   19.8550 N   0  0  0  0  0  0  0  0  0  0  0  0
    9.2564   -4.7368   25.5411 N   0  0  0  0  0  0  0  0  0  0  0  0
    8.1890   -0.7180   20.8700 N   0  0  0  0  0  0  0  0  0  0  0  0
    9.2690    1.4140   20.9380 O   0  0  0  0  0  0  0  0  0  0  0  0
    8.0884   -5.8462   27.8322 O   0  0  0  0  0  0  0  0  0  0  0  0
    3.0136    2.6526   19.3908 H   0  0  0  0  0  0  0  0  0  0  0  0
    3.6480    2.0140   21.6821 H   0  0  0  0  0  0  0  0  0  0  0  0
    8.9214   -0.1986   25.4206 H   0  0  0  0  0  0  0  0  0  0  0  0
   10.0622   -2.2326   21.8251 H   0  0  0  0  0  0  0  0  0  0  0  0
    4.4042    1.9741   17.4524 H   0  0  0  0  0  0  0  0  0  0  0  0
    5.7089    0.6919   22.1150 H   0  0  0  0  0  0  0  0  0  0  0  0
    8.6882   -2.3542   26.5803 H   0  0  0  0  0  0  0  0  0  0  0  0
    9.9258   -4.3896   22.9914 H   0  0  0  0  0  0  0  0  0  0  0  0
   11.6198    2.0979   22.7767 H   0  0  0  0  0  0  0  0  0  0  0  0
    8.0679    4.3039   23.8392 H   0  0  0  0  0  0  0  0  0  0  0  0
   10.8986   -4.3117   26.8083 H   0  0  0  0  0  0  0  0  0  0  0  0
   10.4916   -6.0336   26.6319 H   0  0  0  0  0  0  0  0  0  0  0  0
    8.4328   -6.6457   25.2617 H   0  0  0  0  0  0  0  0  0  0  0  0
    7.4726   -5.3240   24.5618 H   0  0  0  0  0  0  0  0  0  0  0  0
    9.7638   -5.2402   28.8416 H   0  0  0  0  0  0  0  0  0  0  0  0
    8.8238   -3.9272   28.1248 H   0  0  0  0  0  0  0  0  0  0  0  0
    6.8340   -4.5339   26.8232 H   0  0  0  0  0  0  0  0  0  0  0  0
    6.4551   -6.2523   26.6641 H   0  0  0  0  0  0  0  0  0  0  0  0
   10.2956    6.6075   24.0395 H   0  0  0  0  0  0  0  0  0  0  0  0
   10.6374    6.5638   22.2766 H   0  0  0  0  0  0  0  0  0  0  0  0
    8.9513    6.5147   22.8506 H   0  0  0  0  0  0  0  0  0  0  0  0
    8.9481    1.1774   24.8382 H   0  0  0  0  0  0  0  0  0  0  0  0
    7.7730    1.4670   23.5839 H   0  0  0  0  0  0  0  0  0  0  0  0
   10.5990    0.4745   22.8590 H   0  0  0  0  0  0  0  0  0  0  0  0
    8.2487   -1.5564   21.0972 H   0  0  0  0  0  0  0  0  0  0  0  0
  1  2  1  0  0  0  0
  1  5  2  0  0  0  0
  2  6  2  0  0  0  0
  3  7  2  0  0  0  0
  3 11  1  0  0  0  0
  4  8  1  0  0  0  0
  4 11  2  0  0  0  0
  5 13  1  0  0  0  0
  6 14  1  0  0  0  0
  7 15  1  0  0  0  0
  8 15  2  0  0  0  0
  9 12  1  0  0  0  0
  9 24  2  0  0  0  0
 10 12  2  0  0  0  0
 10 27  1  0  0  0  0
 11 23  1  0  0  0  0
 12 22  1  0  0  0  0
 13 14  2  0  0  0  0
 13 25  1  0  0  0  0
 14 28  1  0  0  0  0
 15 29  1  0  0  0  0
 16 23  1  0  0  0  0
 16 30  1  0  0  0  0
 16 31  2  0  0  0  0
 17 19  1  0  0  0  0
 17 29  1  0  0  0  0
 18 20  1  0  0  0  0
 18 29  1  0  0  0  0
 19 32  1  0  0  0  0
 20 32  1  0  0  0  0
 21 27  1  0  0  0  0
 22 23  1  6  0  0  0
 24 27  1  0  0  0  0
 25 26  2  0  0  0  0
 26 28  1  0  0  0  0
 28 30  1  0  0  0  0
  1 33  1  0  0  0  0
  2 34  1  0  0  0  0
  3 35  1  0  0  0  0
  4 36  1  0  0  0  0
  5 37  1  0  0  0  0
  6 38  1  0  0  0  0
  7 39  1  0  0  0  0
  8 40  1  0  0  0  0
  9 41  1  0  0  0  0
 10 42  1  0  0  0  0
 17 43  1  0  0  0  0
 17 44  1  0  0  0  0
 18 45  1  0  0  0  0
 18 46  1  0  0  0  0
 19 47  1  0  0  0  0
 19 48  1  0  0  0  0
 20 49  1  0  0  0  0
 20 50  1  0  0  0  0
 21 51  1  0  0  0  0
 21 52  1  0  0  0  0
 21 53  1  0  0  0  0
 22 54  1  0  0  0  0
 22 55  1  0  0  0  0
 23 56  1  0  0  0  0
 30 57  1  0  0  0  0
M  END
> <clash_score>
0

> <docking_score>
-8.538093566894531

> <overlap_score>
0.8746647238731384

$$$$
BENZO_196_2
  -OEChem-08232013453D

 50 53  0     1  0  0  0  0  0999 V2000
    3.9160    2.0630   19.5520 C   0  0  0  0  0  0  0  0  0  0  0  0
    4.2750    1.7050   20.8490 C   0  0  0  0  0  0  0  0  0  0  0  0
    9.0720   -1.1280   24.8640 C   0  0  0  0  0  0  0  0  0  0  0  0
    9.7200   -2.2600   22.8630 C   0  0  0  0  0  0  0  0  0  0  0  0
    4.6890    1.6810   18.4640 C   0  0  0  0  0  0  0  0  0  0  0  0
    5.4210    0.9600   21.0930 C   0  0  0  0  0  0  0  0  0  0  0  0
    8.9960   -2.3380   25.5320 C   0  0  0  0  0  0  0  0  0  0  0  0
    9.6730   -3.4710   23.5300 C   0  0  0  0  0  0  0  0  0  0  0  0
   10.9285    2.7711   23.1427 C   0  0  0  0  0  0  0  0  0  0  0  0
   11.3066    4.0806   22.9428 C   0  0  0  0  0  0  0  0  0  0  0  0
    8.9310    3.8875   23.5503 C   0  0  0  0  0  0  0  0  0  0  0  0
    7.6390   -0.2680   18.5410 C   0  0  0  0  0  0  0  0  0  0  0  0
    9.3350   -1.0880   23.5010 C   0  0  0  0  0  0  0  0  0  0  0  0
    9.5523    2.6591   23.4945 C   0  0  0  0  0  0  0  0  0  0  0  0
    5.8300    0.9190   18.6970 C   0  0  0  0  0  0  0  0  0  0  0  0
    6.1790    0.5730   19.9990 C   0  0  0  0  0  0  0  0  0  0  0  0
    9.3070   -3.5340   24.8780 C   0  0  0  0  0  0  0  0  0  0  0  0
    9.0420    0.3700   21.5280 C   0  0  0  0  0  0  0  0  0  0  0  0
    8.8766   -4.8075   26.9494 C   0  0  0  0  0  0  0  0  0  0  0  0
    9.5669   -5.9896   24.8578 C   0  0  0  0  0  0  0  0  0  0  0  0
    8.8584    1.3468   23.7740 C   0  0  0  0  0  0  0  0  0  0  0  0
    9.4560    0.1560   22.8130 C   0  0  2  0  0  0  0  0  0  0  0  0
    6.7580    0.3810   17.8350 N   0  0  0  0  0  0  0  0  0  0  0  0
    7.3170   -0.1610   19.8550 N   0  0  0  0  0  0  0  0  0  0  0  0
    8.1890   -0.7180   20.8700 N   0  0  0  0  0  0  0  0  0  0  0  0
    9.2556   -4.7554   25.5514 N   0  0  0  0  0  0  0  0  0  0  0  0
    9.2690    1.4140   20.9380 O   0  0  0  0  0  0  0  0  0  0  0  0
   10.0053    5.1683   23.1793 S   0  0  0  0  0  0  0  0  0  0  0  0
    3.0134    2.6521   19.3911 H   0  0  0  0  0  0  0  0  0  0  0  0
    3.6460    2.0127   21.6812 H   0  0  0  0  0  0  0  0  0  0  0  0
    8.9214   -0.1986   25.4206 H   0  0  0  0  0  0  0  0  0  0  0  0
   10.0622   -2.2326   21.8251 H   0  0  0  0  0  0  0  0  0  0  0  0
    4.4037    1.9731   17.4543 H   0  0  0  0  0  0  0  0  0  0  0  0
    5.7084    0.6923   22.1132 H   0  0  0  0  0  0  0  0  0  0  0  0
    8.6882   -2.3542   26.5803 H   0  0  0  0  0  0  0  0  0  0  0  0
    9.9258   -4.3896   22.9914 H   0  0  0  0  0  0  0  0  0  0  0  0
   11.6102    1.9362   23.0408 H   0  0  0  0  0  0  0  0  0  0  0  0
   12.2848    4.4506   22.6700 H   0  0  0  0  0  0  0  0  0  0  0  0
    7.8985    4.0985   23.7919 H   0  0  0  0  0  0  0  0  0  0  0  0
    8.4862   -0.8060   18.1787 H   0  0  0  0  0  0  0  0  0  0  0  0
    8.8955   -5.8512   27.2963 H   0  0  0  0  0  0  0  0  0  0  0  0
    9.5845   -4.2109   27.5435 H   0  0  0  0  0  0  0  0  0  0  0  0
    7.8621   -4.3996   27.0696 H   0  0  0  0  0  0  0  0  0  0  0  0
    9.4707   -6.8361   25.5536 H   0  0  0  0  0  0  0  0  0  0  0  0
    8.8693   -6.1242   24.0181 H   0  0  0  0  0  0  0  0  0  0  0  0
   10.5972   -5.9451   24.4750 H   0  0  0  0  0  0  0  0  0  0  0  0
    8.9548    1.1352   24.8480 H   0  0  0  0  0  0  0  0  0  0  0  0
    7.7793    1.4560   23.6018 H   0  0  0  0  0  0  0  0  0  0  0  0
   10.5986    0.4624   22.8633 H   0  0  0  0  0  0  0  0  0  0  0  0
    8.2749   -1.5586   21.1247 H   0  0  0  0  0  0  0  0  0  0  0  0
  1  2  1  0  0  0  0
  1  5  2  0  0  0  0
  2  6  2  0  0  0  0
  3  7  2  0  0  0  0
  3 13  1  0  0  0  0
  4  8  1  0  0  0  0
  4 13  2  0  0  0  0
  5 15  1  0  0  0  0
  6 16  1  0  0  0  0
  7 17  1  0  0  0  0
  8 17  2  0  0  0  0
  9 10  2  0  0  0  0
  9 14  1  0  0  0  0
 10 28  1  0  0  0  0
 11 14  2  0  0  0  0
 11 28  1  0  0  0  0
 12 23  2  0  0  0  0
 12 24  1  0  0  0  0
 13 22  1  0  0  0  0
 14 21  1  0  0  0  0
 15 16  2  0  0  0  0
 15 23  1  0  0  0  0
 16 24  1  0  0  0  0
 17 26  1  0  0  0  0
 18 22  1  0  0  0  0
 18 25  1  0  0  0  0
 18 27  2  0  0  0  0
 19 26  1  0  0  0  0
 20 26  1  0  0  0  0
 21 22  1  6  0  0  0
 24 25  1  0  0  0  0
  1 29  1  0  0  0  0
  2 30  1  0  0  0  0
  3 31  1  0  0  0  0
  4 32  1  0  0  0  0
  5 33  1  0  0  0  0
  6 34  1  0  0  0  0
  7 35  1  0  0  0  0
  8 36  1  0  0  0  0
  9 37  1  0  0  0  0
 10 38  1  0  0  0  0
 11 39  1  0  0  0  0
 12 40  1  0  0  0  0
 19 41  1  0  0  0  0
 19 42  1  0  0  0  0
 19 43  1  0  0  0  0
 20 44  1  0  0  0  0
 20 45  1  0  0  0  0
 20 46  1  0  0  0  0
 21 47  1  0  0  0  0
 21 48  1  0  0  0  0
 22 49  1  0  0  0  0
 25 50  1  0  0  0  0
M  END
> <clash_score>
0

> <docking_score>
-9.0570068359375

> <overlap_score>
0.8732236623764038

$$$$
BENZO_197_2
  -OEChem-08232013453D

 53 56  0     1  0  0  0  0  0999 V2000
   10.8333    5.0828   22.9771 C   0  0  0  0  0  0  0  0  0  0  0  0
   11.3431    4.2172   23.9447 C   0  0  0  0  0  0  0  0  0  0  0  0
    9.6829    4.7367   22.2682 C   0  0  0  0  0  0  0  0  0  0  0  0
    3.9160    2.0630   19.5520 C   0  0  0  0  0  0  0  0  0  0  0  0
    4.2750    1.7050   20.8490 C   0  0  0  0  0  0  0  0  0  0  0  0
   10.7027    3.0054   24.2034 C   0  0  0  0  0  0  0  0  0  0  0  0
    9.0424    3.5248   22.5269 C   0  0  0  0  0  0  0  0  0  0  0  0
    9.0720   -1.1280   24.8640 C   0  0  0  0  0  0  0  0  0  0  0  0
    9.7200   -2.2600   22.8630 C   0  0  0  0  0  0  0  0  0  0  0  0
    4.6890    1.6810   18.4640 C   0  0  0  0  0  0  0  0  0  0  0  0
    5.4210    0.9600   21.0930 C   0  0  0  0  0  0  0  0  0  0  0  0
    8.9960   -2.3380   25.5320 C   0  0  0  0  0  0  0  0  0  0  0  0
    9.6730   -3.4710   23.5300 C   0  0  0  0  0  0  0  0  0  0  0  0
    7.6390   -0.2680   18.5410 C   0  0  0  0  0  0  0  0  0  0  0  0
    9.5523    2.6591   23.4945 C   0  0  0  0  0  0  0  0  0  0  0  0
    9.3350   -1.0880   23.5010 C   0  0  0  0  0  0  0  0  0  0  0  0
    5.8300    0.9190   18.6970 C   0  0  0  0  0  0  0  0  0  0  0  0
    6.1790    0.5730   19.9990 C   0  0  0  0  0  0  0  0  0  0  0  0
    9.3070   -3.5340   24.8780 C   0  0  0  0  0  0  0  0  0  0  0  0
    9.0420    0.3700   21.5280 C   0  0  0  0  0  0  0  0  0  0  0  0
    8.8766   -4.8075   26.9494 C   0  0  0  0  0  0  0  0  0  0  0  0
    9.5669   -5.9896   24.8578 C   0  0  0  0  0  0  0  0  0  0  0  0
    8.8584    1.3468   23.7740 C   0  0  0  0  0  0  0  0  0  0  0  0
    9.4560    0.1560   22.8130 C   0  0  2  0  0  0  0  0  0  0  0  0
    6.7580    0.3810   17.8350 N   0  0  0  0  0  0  0  0  0  0  0  0
    7.3170   -0.1610   19.8550 N   0  0  0  0  0  0  0  0  0  0  0  0
    8.1890   -0.7180   20.8700 N   0  0  0  0  0  0  0  0  0  0  0  0
    9.2556   -4.7554   25.5514 N   0  0  0  0  0  0  0  0  0  0  0  0
    9.2690    1.4140   20.9380 O   0  0  0  0  0  0  0  0  0  0  0  0
   11.3313    6.0270   22.7767 H   0  0  0  0  0  0  0  0  0  0  0  0
   12.2382    4.4870   24.4976 H   0  0  0  0  0  0  0  0  0  0  0  0
    9.2850    5.4109   21.5155 H   0  0  0  0  0  0  0  0  0  0  0  0
    3.0134    2.6521   19.3911 H   0  0  0  0  0  0  0  0  0  0  0  0
    3.6460    2.0127   21.6812 H   0  0  0  0  0  0  0  0  0  0  0  0
   11.1072    2.3370   24.9590 H   0  0  0  0  0  0  0  0  0  0  0  0
    8.1468    3.2634   21.9695 H   0  0  0  0  0  0  0  0  0  0  0  0
    8.9214   -0.1986   25.4206 H   0  0  0  0  0  0  0  0  0  0  0  0
   10.0622   -2.2326   21.8251 H   0  0  0  0  0  0  0  0  0  0  0  0
    4.4037    1.9731   17.4543 H   0  0  0  0  0  0  0  0  0  0  0  0
    5.7084    0.6923   22.1132 H   0  0  0  0  0  0  0  0  0  0  0  0
    8.6882   -2.3542   26.5803 H   0  0  0  0  0  0  0  0  0  0  0  0
    9.9258   -4.3896   22.9914 H   0  0  0  0  0  0  0  0  0  0  0  0
    8.4862   -0.8060   18.1787 H   0  0  0  0  0  0  0  0  0  0  0  0
    8.8955   -5.8512   27.2963 H   0  0  0  0  0  0  0  0  0  0  0  0
    9.5845   -4.2109   27.5435 H   0  0  0  0  0  0  0  0  0  0  0  0
    7.8621   -4.3996   27.0696 H   0  0  0  0  0  0  0  0  0  0  0  0
    9.4707   -6.8361   25.5536 H   0  0  0  0  0  0  0  0  0  0  0  0
    8.8693   -6.1242   24.0181 H   0  0  0  0  0  0  0  0  0  0  0  0
   10.5972   -5.9451   24.4750 H   0  0  0  0  0  0  0  0  0  0  0  0
    8.9548    1.1352   24.8480 H   0  0  0  0  0  0  0  0  0  0  0  0
    7.7793    1.4560   23.6018 H   0  0  0  0  0  0  0  0  0  0  0  0
   10.5986    0.4624   22.8633 H   0  0  0  0  0  0  0  0  0  0  0  0
    8.2749   -1.5586   21.1247 H   0  0  0  0  0  0  0  0  0  0  0  0
  1  2  1  0  0  0  0
  1  3  2  0  0  0  0
  2  6  2  0  0  0  0
  3  7  1  0  0  0  0
  4  5  1  0  0  0  0
  4 10  2  0  0  0  0
  5 11  2  0  0  0  0
  6 15  1  0  0  0  0
  7 15  2  0  0  0  0
  8 12  2  0  0  0  0
  8 16  1  0  0  0  0
  9 13  1  0  0  0  0
  9 16  2  0  0  0  0
 10 17  1  0  0  0  0
 11 18  1  0  0  0  0
 12 19  1  0  0  0  0
 13 19  2  0  0  0  0
 14 25  2  0  0  0  0
 14 26  1  0  0  0  0
 15 23  1  0  0  0  0
 16 24  1  0  0  0  0
 17 18  2  0  0  0  0
 17 25  1  0  0  0  0
 18 26  1  0  0  0  0
 19 28  1  0  0  0  0
 20 24  1  0  0  0  0
 20 27  1  0  0  0  0
 20 29  2  0  0  0  0
 21 28  1  0  0  0  0
 22 28  1  0  0  0  0
 23 24  1  6  0  0  0
 26 27  1  0  0  0  0
  1 30  1  0  0  0  0
  2 31  1  0  0  0  0
  3 32  1  0  0  0  0
  4 33  1  0  0  0  0
  5 34  1  0  0  0  0
  6 35  1  0  0  0  0
  7 36  1  0  0  0  0
  8 37  1  0  0  0  0
  9 38  1  0  0  0  0
 10 39  1  0  0  0  0
 11 40  1  0  0  0  0
 12 41  1  0  0  0  0
 13 42  1  0  0  0  0
 14 43  1  0  0  0  0
 21 44  1  0  0  0  0
 21 45  1  0  0  0  0
 21 46  1  0  0  0  0
 22 47  1  0  0  0  0
 22 48  1  0  0  0  0
 22 49  1  0  0  0  0
 23 50  1  0  0  0  0
 23 51  1  0  0  0  0
 24 52  1  0  0  0  0
 27 53  1  0  0  0  0
M  END
> <clash_score>
0

> <docking_score>
-7.843320846557617

> <overlap_score>
0.858109176158905

$$$$
BENZO_194_2
  -OEChem-08232013453D

 57 61  0     1  0  0  0  0  0999 V2000
    3.9160    2.0630   19.5520 C   0  0  0  0  0  0  0  0  0  0  0  0
    4.2750    1.7050   20.8490 C   0  0  0  0  0  0  0  0  0  0  0  0
   10.3202    4.4289   23.3636 C   0  0  0  0  0  0  0  0  0  0  0  0
   10.1559    3.0442   23.3958 C   0  0  0  0  0  0  0  0  0  0  0  0
    9.0720   -1.1280   24.8640 C   0  0  0  0  0  0  0  0  0  0  0  0
    9.7200   -2.2600   22.8630 C   0  0  0  0  0  0  0  0  0  0  0  0
    4.6890    1.6810   18.4640 C   0  0  0  0  0  0  0  0  0  0  0  0
    5.4210    0.9600   21.0930 C   0  0  0  0  0  0  0  0  0  0  0  0
    8.9960   -2.3380   25.5320 C   0  0  0  0  0  0  0  0  0  0  0  0
    9.6730   -3.4710   23.5300 C   0  0  0  0  0  0  0  0  0  0  0  0
   11.5055    4.9795   22.8761 C   0  0  0  0  0  0  0  0  0  0  0  0
   12.3623    2.7604   22.4532 C   0  0  0  0  0  0  0  0  0  0  0  0
    9.3350   -1.0880   23.5010 C   0  0  0  0  0  0  0  0  0  0  0  0
   11.1769    2.2099   22.9406 C   0  0  0  0  0  0  0  0  0  0  0  0
    5.8300    0.9190   18.6970 C   0  0  0  0  0  0  0  0  0  0  0  0
    6.1790    0.5730   19.9990 C   0  0  0  0  0  0  0  0  0  0  0  0
    9.3070   -3.5340   24.8780 C   0  0  0  0  0  0  0  0  0  0  0  0
   12.5266    4.1452   22.4210 C   0  0  0  0  0  0  0  0  0  0  0  0
    9.0420    0.3700   21.5280 C   0  0  0  0  0  0  0  0  0  0  0  0
    9.5176   -4.8600   26.9769 C   0  0  0  0  0  0  0  0  0  0  0  0
    8.5166   -5.8725   24.9805 C   0  0  0  0  0  0  0  0  0  0  0  0
    8.1870   -5.0443   27.6986 C   0  0  0  0  0  0  0  0  0  0  0  0
    7.2201   -6.0348   25.7753 C   0  0  0  0  0  0  0  0  0  0  0  0
   10.9988    0.7103   22.9770 C   0  0  0  0  0  0  0  0  0  0  0  0
    9.4560    0.1560   22.8130 C   0  0  2  0  0  0  0  0  0  0  0  0
    6.7580    0.3810   17.8350 N   0  0  0  0  0  0  0  0  0  0  0  0
    7.6390   -0.2680   18.5410 N   0  0  0  0  0  0  0  0  0  0  0  0
    7.3170   -0.1610   19.8550 N   0  0  0  0  0  0  0  0  0  0  0  0
    9.2564   -4.7368   25.5411 N   0  0  0  0  0  0  0  0  0  0  0  0
    8.1890   -0.7180   20.8700 N   0  0  0  0  0  0  0  0  0  0  0  0
    9.2690    1.4140   20.9380 O   0  0  0  0  0  0  0  0  0  0  0  0
    7.4995   -6.1856   27.1717 O   0  0  0  0  0  0  0  0  0  0  0  0
   13.9892    4.8250   21.8208 Cl  0  0  0  0  0  0  0  0  0  0  0  0
    3.0136    2.6526   19.3908 H   0  0  0  0  0  0  0  0  0  0  0  0
    3.6480    2.0140   21.6821 H   0  0  0  0  0  0  0  0  0  0  0  0
    9.5249    5.0782   23.7182 H   0  0  0  0  0  0  0  0  0  0  0  0
    9.2290    2.6239   23.7773 H   0  0  0  0  0  0  0  0  0  0  0  0
    8.9214   -0.1986   25.4206 H   0  0  0  0  0  0  0  0  0  0  0  0
   10.0622   -2.2326   21.8251 H   0  0  0  0  0  0  0  0  0  0  0  0
    4.4042    1.9741   17.4524 H   0  0  0  0  0  0  0  0  0  0  0  0
    5.7089    0.6919   22.1150 H   0  0  0  0  0  0  0  0  0  0  0  0
    8.6882   -2.3542   26.5803 H   0  0  0  0  0  0  0  0  0  0  0  0
    9.9258   -4.3896   22.9914 H   0  0  0  0  0  0  0  0  0  0  0  0
   11.6198    6.0605   22.8572 H   0  0  0  0  0  0  0  0  0  0  0  0
   13.1552    2.1057   22.0990 H   0  0  0  0  0  0  0  0  0  0  0  0
   10.0207   -3.9702   27.3608 H   0  0  0  0  0  0  0  0  0  0  0  0
   10.1536   -5.7313   27.1546 H   0  0  0  0  0  0  0  0  0  0  0  0
    9.1181   -6.7774   25.0751 H   0  0  0  0  0  0  0  0  0  0  0  0
    8.2812   -5.7063   23.9302 H   0  0  0  0  0  0  0  0  0  0  0  0
    8.3631   -5.2257   28.7609 H   0  0  0  0  0  0  0  0  0  0  0  0
    7.5532   -4.1574   27.6103 H   0  0  0  0  0  0  0  0  0  0  0  0
    6.5460   -5.1840   25.6220 H   0  0  0  0  0  0  0  0  0  0  0  0
    6.6948   -6.9355   25.4433 H   0  0  0  0  0  0  0  0  0  0  0  0
   11.6488    0.2736   22.2061 H   0  0  0  0  0  0  0  0  0  0  0  0
   11.3815    0.3162   23.9278 H   0  0  0  0  0  0  0  0  0  0  0  0
    8.9230    0.9815   23.4801 H   0  0  0  0  0  0  0  0  0  0  0  0
    8.2487   -1.5564   21.0972 H   0  0  0  0  0  0  0  0  0  0  0  0
  1  2  1  0  0  0  0
  1  7  2  0  0  0  0
  2  8  2  0  0  0  0
  3  4  2  0  0  0  0
  3 11  1  0  0  0  0
  4 14  1  0  0  0  0
  5  9  2  0  0  0  0
  5 13  1  0  0  0  0
  6 10  1  0  0  0  0
  6 13  2  0  0  0  0
  7 15  1  0  0  0  0
  8 16  1  0  0  0  0
  9 17  1  0  0  0  0
 10 17  2  0  0  0  0
 11 18  2  0  0  0  0
 12 14  2  0  0  0  0
 12 18  1  0  0  0  0
 13 25  1  0  0  0  0
 14 24  1  0  0  0  0
 15 16  2  0  0  0  0
 15 26  1  0  0  0  0
 16 28  1  0  0  0  0
 17 29  1  0  0  0  0
 18 33  1  0  0  0  0
 19 25  1  6  0  0  0
 19 30  1  0  0  0  0
 19 31  2  0  0  0  0
 20 22  1  0  0  0  0
 20 29  1  0  0  0  0
 21 23  1  0  0  0  0
 21 29  1  0  0  0  0
 22 32  1  0  0  0  0
 23 32  1  0  0  0  0
 24 25  1  0  0  0  0
 26 27  2  0  0  0  0
 27 28  1  0  0  0  0
 28 30  1  0  0  0  0
  1 34  1  0  0  0  0
  2 35  1  0  0  0  0
  3 36  1  0  0  0  0
  4 37  1  0  0  0  0
  5 38  1  0  0  0  0
  6 39  1  0  0  0  0
  7 40  1  0  0  0  0
  8 41  1  0  0  0  0
  9 42  1  0  0  0  0
 10 43  1  0  0  0  0
 11 44  1  0  0  0  0
 12 45  1  0  0  0  0
 20 46  1  0  0  0  0
 20 47  1  0  0  0  0
 21 48  1  0  0  0  0
 21 49  1  0  0  0  0
 22 50  1  0  0  0  0
 22 51  1  0  0  0  0
 23 52  1  0  0  0  0
 23 53  1  0  0  0  0
 24 54  1  0  0  0  0
 24 55  1  0  0  0  0
 25 56  1  0  0  0  0
 30 57  1  0  0  0  0
M  END
> <clash_score>
0

> <docking_score>
-10.162781715393066

> <overlap_score>
0.9415144324302673

$$$$
BENZO_195_1
  -OEChem-08232013453D

 57 61  0     1  0  0  0  0  0999 V2000
    3.9160    2.0630   19.5520 C   0  0  0  0  0  0  0  0  0  0  0  0
    4.2750    1.7050   20.8490 C   0  0  0  0  0  0  0  0  0  0  0  0
    9.0720   -1.1280   24.8640 C   0  0  0  0  0  0  0  0  0  0  0  0
    9.7200   -2.2600   22.8630 C   0  0  0  0  0  0  0  0  0  0  0  0
    4.6890    1.6810   18.4640 C   0  0  0  0  0  0  0  0  0  0  0  0
    5.4210    0.9600   21.0930 C   0  0  0  0  0  0  0  0  0  0  0  0
    8.9960   -2.3380   25.5320 C   0  0  0  0  0  0  0  0  0  0  0  0
    9.6730   -3.4710   23.5300 C   0  0  0  0  0  0  0  0  0  0  0  0
   10.2646    3.1985   23.3556 C   0  0  0  0  0  0  0  0  0  0  0  0
   12.2689    2.9150   22.4968 C   0  0  0  0  0  0  0  0  0  0  0  0
    9.3350   -1.0880   23.5010 C   0  0  0  0  0  0  0  0  0  0  0  0
   11.1769    2.2099   22.9406 C   0  0  0  0  0  0  0  0  0  0  0  0
    5.8300    0.9190   18.6970 C   0  0  0  0  0  0  0  0  0  0  0  0
    6.1790    0.5730   19.9990 C   0  0  0  0  0  0  0  0  0  0  0  0
    9.3070   -3.5340   24.8780 C   0  0  0  0  0  0  0  0  0  0  0  0
    9.0420    0.3700   21.5280 C   0  0  0  0  0  0  0  0  0  0  0  0
   10.0772   -5.0257   26.7191 C   0  0  0  0  0  0  0  0  0  0  0  0
    8.0927   -5.6196   25.4069 C   0  0  0  0  0  0  0  0  0  0  0  0
    9.1935   -4.9431   27.9590 C   0  0  0  0  0  0  0  0  0  0  0  0
    7.2758   -5.5292   26.6966 C   0  0  0  0  0  0  0  0  0  0  0  0
   12.7964    5.3596   22.3418 C   0  0  0  0  0  0  0  0  0  0  0  0
   10.9988    0.7103   22.9770 C   0  0  0  0  0  0  0  0  0  0  0  0
    9.4560    0.1560   22.8130 C   0  0  1  0  0  0  0  0  0  0  0  0
   10.7361    4.4372   23.1902 N   0  0  0  0  0  0  0  0  0  0  0  0
    6.7580    0.3810   17.8350 N   0  0  0  0  0  0  0  0  0  0  0  0
    7.6390   -0.2680   18.5410 N   0  0  0  0  0  0  0  0  0  0  0  0
   11.9566    4.2317   22.6666 N   0  0  0  0  0  0  0  0  0  0  0  0
    7.3170   -0.1610   19.8550 N   0  0  0  0  0  0  0  0  0  0  0  0
    9.2564   -4.7368   25.5411 N   0  0  0  0  0  0  0  0  0  0  0  0
    8.1890   -0.7180   20.8700 N   0  0  0  0  0  0  0  0  0  0  0  0
    9.2690    1.4140   20.9380 O   0  0  0  0  0  0  0  0  0  0  0  0
    8.0884   -5.8462   27.8322 O   0  0  0  0  0  0  0  0  0  0  0  0
    3.0136    2.6526   19.3908 H   0  0  0  0  0  0  0  0  0  0  0  0
    3.6480    2.0140   21.6821 H   0  0  0  0  0  0  0  0  0  0  0  0
    8.9214   -0.1986   25.4206 H   0  0  0  0  0  0  0  0  0  0  0  0
   10.0622   -2.2326   21.8251 H   0  0  0  0  0  0  0  0  0  0  0  0
    4.4042    1.9741   17.4524 H   0  0  0  0  0  0  0  0  0  0  0  0
    5.7089    0.6919   22.1150 H   0  0  0  0  0  0  0  0  0  0  0  0
    8.6882   -2.3542   26.5803 H   0  0  0  0  0  0  0  0  0  0  0  0
    9.9258   -4.3896   22.9914 H   0  0  0  0  0  0  0  0  0  0  0  0
    9.2758    3.0704   23.7726 H   0  0  0  0  0  0  0  0  0  0  0  0
   13.2185    2.5997   22.0860 H   0  0  0  0  0  0  0  0  0  0  0  0
   10.8986   -4.3117   26.8083 H   0  0  0  0  0  0  0  0  0  0  0  0
   10.4916   -6.0336   26.6319 H   0  0  0  0  0  0  0  0  0  0  0  0
    8.4328   -6.6457   25.2617 H   0  0  0  0  0  0  0  0  0  0  0  0
    7.4726   -5.3240   24.5618 H   0  0  0  0  0  0  0  0  0  0  0  0
    9.7638   -5.2402   28.8416 H   0  0  0  0  0  0  0  0  0  0  0  0
    8.8238   -3.9272   28.1248 H   0  0  0  0  0  0  0  0  0  0  0  0
    6.8340   -4.5339   26.8232 H   0  0  0  0  0  0  0  0  0  0  0  0
    6.4551   -6.2523   26.6641 H   0  0  0  0  0  0  0  0  0  0  0  0
   12.5864    5.6503   21.3091 H   0  0  0  0  0  0  0  0  0  0  0  0
   12.5763    6.1858   23.0237 H   0  0  0  0  0  0  0  0  0  0  0  0
   13.8458    5.0729   22.4536 H   0  0  0  0  0  0  0  0  0  0  0  0
   11.6488    0.2736   22.2061 H   0  0  0  0  0  0  0  0  0  0  0  0
   11.3815    0.3162   23.9278 H   0  0  0  0  0  0  0  0  0  0  0  0
    8.9230    0.9815   23.4801 H   0  0  0  0  0  0  0  0  0  0  0  0
    8.2487   -1.5564   21.0972 H   0  0  0  0  0  0  0  0  0  0  0  0
  1  2  1  0  0  0  0
  1  5  2  0  0  0  0
  2  6  2  0  0  0  0
  3  7  2  0  0  0  0
  3 11  1  0  0  0  0
  4  8  1  0  0  0  0
  4 11  2  0  0  0  0
  5 13  1  0  0  0  0
  6 14  1  0  0  0  0
  7 15  1  0  0  0  0
  8 15  2  0  0  0  0
  9 12  1  0  0  0  0
  9 24  2  0  0  0  0
 10 12  2  0  0  0  0
 10 27  1  0  0  0  0
 11 23  1  0  0  0  0
 12 22  1  0  0  0  0
 13 14  2  0  0  0  0
 13 25  1  0  0  0  0
 14 28  1  0  0  0  0
 15 29  1  0  0  0  0
 16 23  1  0  0  0  0
 16 30  1  0  0  0  0
 16 31  2  0  0  0  0
 17 19  1  0  0  0  0
 17 29  1  0  0  0  0
 18 20  1  0  0  0  0
 18 29  1  0  0  0  0
 19 32  1  0  0  0  0
 20 32  1  0  0  0  0
 21 27  1  0  0  0  0
 22 23  1  1  0  0  0
 24 27  1  0  0  0  0
 25 26  2  0  0  0  0
 26 28  1  0  0  0  0
 28 30  1  0  0  0  0
  1 33  1  0  0  0  0
  2 34  1  0  0  0  0
  3 35  1  0  0  0  0
  4 36  1  0  0  0  0
  5 37  1  0  0  0  0
  6 38  1  0  0  0  0
  7 39  1  0  0  0  0
  8 40  1  0  0  0  0
  9 41  1  0  0  0  0
 10 42  1  0  0  0  0
 17 43  1  0  0  0  0
 17 44  1  0  0  0  0
 18 45  1  0  0  0  0
 18 46  1  0  0  0  0
 19 47  1  0  0  0  0
 19 48  1  0  0  0  0
 20 49  1  0  0  0  0
 20 50  1  0  0  0  0
 21 51  1  0  0  0  0
 21 52  1  0  0  0  0
 21 53  1  0  0  0  0
 22 54  1  0  0  0  0
 22 55  1  0  0  0  0
 23 56  1  0  0  0  0
 30 57  1  0  0  0  0
M  END
> <clash_score>
0

> <docking_score>
-9.838611602783203

> <overlap_score>
0.933799147605896

$$$$
BENZO_199_2
  -OEChem-08232013453D

 53 56  0     1  0  0  0  0  0999 V2000
    3.9160    2.0630   19.5520 C   0  0  0  0  0  0  0  0  0  0  0  0
    4.2750    1.7050   20.8490 C   0  0  0  0  0  0  0  0  0  0  0  0
    9.0720   -1.1280   24.8640 C   0  0  0  0  0  0  0  0  0  0  0  0
    9.7200   -2.2600   22.8630 C   0  0  0  0  0  0  0  0  0  0  0  0
    4.6890    1.6810   18.4640 C   0  0  0  0  0  0  0  0  0  0  0  0
    5.4210    0.9600   21.0930 C   0  0  0  0  0  0  0  0  0  0  0  0
    8.9960   -2.3380   25.5320 C   0  0  0  0  0  0  0  0  0  0  0  0
    9.6730   -3.4710   23.5300 C   0  0  0  0  0  0  0  0  0  0  0  0
   10.8722    2.8605   23.0481 C   0  0  0  0  0  0  0  0  0  0  0  0
    9.0344    3.9253   23.6169 C   0  0  0  0  0  0  0  0  0  0  0  0
    7.6390   -0.2680   18.5410 C   0  0  0  0  0  0  0  0  0  0  0  0
    9.3350   -1.0880   23.5010 C   0  0  0  0  0  0  0  0  0  0  0  0
    9.5523    2.6591   23.4945 C   0  0  0  0  0  0  0  0  0  0  0  0
    5.8300    0.9190   18.6970 C   0  0  0  0  0  0  0  0  0  0  0  0
    6.1790    0.5730   19.9990 C   0  0  0  0  0  0  0  0  0  0  0  0
    9.3070   -3.5340   24.8780 C   0  0  0  0  0  0  0  0  0  0  0  0
    9.0420    0.3700   21.5280 C   0  0  0  0  0  0  0  0  0  0  0  0
    9.9673    6.2162   23.2165 C   0  0  0  0  0  0  0  0  0  0  0  0
    8.8766   -4.8075   26.9494 C   0  0  0  0  0  0  0  0  0  0  0  0
    9.5669   -5.9896   24.8578 C   0  0  0  0  0  0  0  0  0  0  0  0
    8.8584    1.3468   23.7740 C   0  0  0  0  0  0  0  0  0  0  0  0
    9.4560    0.1560   22.8130 C   0  0  2  0  0  0  0  0  0  0  0  0
   11.1739    4.1528   22.8970 N   0  0  0  0  0  0  0  0  0  0  0  0
    6.7580    0.3810   17.8350 N   0  0  0  0  0  0  0  0  0  0  0  0
   10.0363    4.7750   23.2503 N   0  0  0  0  0  0  0  0  0  0  0  0
    7.3170   -0.1610   19.8550 N   0  0  0  0  0  0  0  0  0  0  0  0
    8.1890   -0.7180   20.8700 N   0  0  0  0  0  0  0  0  0  0  0  0
    9.2556   -4.7554   25.5514 N   0  0  0  0  0  0  0  0  0  0  0  0
    9.2690    1.4140   20.9380 O   0  0  0  0  0  0  0  0  0  0  0  0
    3.0134    2.6521   19.3911 H   0  0  0  0  0  0  0  0  0  0  0  0
    3.6460    2.0127   21.6812 H   0  0  0  0  0  0  0  0  0  0  0  0
    8.9214   -0.1986   25.4206 H   0  0  0  0  0  0  0  0  0  0  0  0
   10.0622   -2.2326   21.8251 H   0  0  0  0  0  0  0  0  0  0  0  0
    4.4037    1.9731   17.4543 H   0  0  0  0  0  0  0  0  0  0  0  0
    5.7084    0.6923   22.1132 H   0  0  0  0  0  0  0  0  0  0  0  0
    8.6882   -2.3542   26.5803 H   0  0  0  0  0  0  0  0  0  0  0  0
    9.9258   -4.3896   22.9914 H   0  0  0  0  0  0  0  0  0  0  0  0
   11.6282    2.1210   22.8251 H   0  0  0  0  0  0  0  0  0  0  0  0
    8.0619    4.2851   23.9247 H   0  0  0  0  0  0  0  0  0  0  0  0
    8.4862   -0.8060   18.1787 H   0  0  0  0  0  0  0  0  0  0  0  0
   10.2789    6.5919   24.1946 H   0  0  0  0  0  0  0  0  0  0  0  0
   10.6298    6.5942   22.4329 H   0  0  0  0  0  0  0  0  0  0  0  0
    8.9411    6.5238   22.9969 H   0  0  0  0  0  0  0  0  0  0  0  0
    8.8955   -5.8512   27.2963 H   0  0  0  0  0  0  0  0  0  0  0  0
    9.5845   -4.2109   27.5435 H   0  0  0  0  0  0  0  0  0  0  0  0
    7.8621   -4.3996   27.0696 H   0  0  0  0  0  0  0  0  0  0  0  0
    9.4707   -6.8361   25.5536 H   0  0  0  0  0  0  0  0  0  0  0  0
    8.8693   -6.1242   24.0181 H   0  0  0  0  0  0  0  0  0  0  0  0
   10.5972   -5.9451   24.4750 H   0  0  0  0  0  0  0  0  0  0  0  0
    8.9548    1.1352   24.8480 H   0  0  0  0  0  0  0  0  0  0  0  0
    7.7793    1.4560   23.6018 H   0  0  0  0  0  0  0  0  0  0  0  0
   10.5986    0.4624   22.8633 H   0  0  0  0  0  0  0  0  0  0  0  0
    8.2749   -1.5586   21.1247 H   0  0  0  0  0  0  0  0  0  0  0  0
  1  2  1  0  0  0  0
  1  5  2  0  0  0  0
  2  6  2  0  0  0  0
  3  7  2  0  0  0  0
  3 12  1  0  0  0  0
  4  8  1  0  0  0  0
  4 12  2  0  0  0  0
  5 14  1  0  0  0  0
  6 15  1  0  0  0  0
  7 16  1  0  0  0  0
  8 16  2  0  0  0  0
  9 13  1  0  0  0  0
  9 23  2  0  0  0  0
 10 13  2  0  0  0  0
 10 25  1  0  0  0  0
 11 24  2  0  0  0  0
 11 26  1  0  0  0  0
 12 22  1  0  0  0  0
 13 21  1  0  0  0  0
 14 15  2  0  0  0  0
 14 24  1  0  0  0  0
 15 26  1  0  0  0  0
 16 28  1  0  0  0  0
 17 22  1  0  0  0  0
 17 27  1  0  0  0  0
 17 29  2  0  0  0  0
 18 25  1  0  0  0  0
 19 28  1  0  0  0  0
 20 28  1  0  0  0  0
 21 22  1  6  0  0  0
 23 25  1  0  0  0  0
 26 27  1  0  0  0  0
  1 30  1  0  0  0  0
  2 31  1  0  0  0  0
  3 32  1  0  0  0  0
  4 33  1  0  0  0  0
  5 34  1  0  0  0  0
  6 35  1  0  0  0  0
  7 36  1  0  0  0  0
  8 37  1  0  0  0  0
  9 38  1  0  0  0  0
 10 39  1  0  0  0  0
 11 40  1  0  0  0  0
 18 41  1  0  0  0  0
 18 42  1  0  0  0  0
 18 43  1  0  0  0  0
 19 44  1  0  0  0  0
 19 45  1  0  0  0  0
 19 46  1  0  0  0  0
 20 47  1  0  0  0  0
 20 48  1  0  0  0  0
 20 49  1  0  0  0  0
 21 50  1  0  0  0  0
 21 51  1  0  0  0  0
 22 52  1  0  0  0  0
 27 53  1  0  0  0  0
M  END
> <clash_score>
0

> <docking_score>
-9.355780601501465

> <overlap_score>
0.8678901791572571

$$$$
BENZO_199_1
  -OEChem-08232013453D

 53 56  0     1  0  0  0  0  0999 V2000
    3.9160    2.0630   19.5520 C   0  0  0  0  0  0  0  0  0  0  0  0
    4.2750    1.7050   20.8490 C   0  0  0  0  0  0  0  0  0  0  0  0
    9.0720   -1.1280   24.8640 C   0  0  0  0  0  0  0  0  0  0  0  0
    9.7200   -2.2600   22.8630 C   0  0  0  0  0  0  0  0  0  0  0  0
    4.6890    1.6810   18.4640 C   0  0  0  0  0  0  0  0  0  0  0  0
    5.4210    0.9600   21.0930 C   0  0  0  0  0  0  0  0  0  0  0  0
    8.9960   -2.3380   25.5320 C   0  0  0  0  0  0  0  0  0  0  0  0
    9.6730   -3.4710   23.5300 C   0  0  0  0  0  0  0  0  0  0  0  0
   10.2850    3.1879   23.3945 C   0  0  0  0  0  0  0  0  0  0  0  0
   12.2874    2.8981   22.5336 C   0  0  0  0  0  0  0  0  0  0  0  0
    7.6390   -0.2680   18.5410 C   0  0  0  0  0  0  0  0  0  0  0  0
    9.3350   -1.0880   23.5010 C   0  0  0  0  0  0  0  0  0  0  0  0
   11.1891    2.1969   22.9675 C   0  0  0  0  0  0  0  0  0  0  0  0
    5.8300    0.9190   18.6970 C   0  0  0  0  0  0  0  0  0  0  0  0
    6.1790    0.5730   19.9990 C   0  0  0  0  0  0  0  0  0  0  0  0
    9.3070   -3.5340   24.8780 C   0  0  0  0  0  0  0  0  0  0  0  0
    9.0420    0.3700   21.5280 C   0  0  0  0  0  0  0  0  0  0  0  0
   12.8361    5.3400   22.4104 C   0  0  0  0  0  0  0  0  0  0  0  0
    8.0148   -5.2164   26.1419 C   0  0  0  0  0  0  0  0  0  0  0  0
   10.4390   -5.5857   25.6570 C   0  0  0  0  0  0  0  0  0  0  0  0
   10.9980    0.6985   22.9845 C   0  0  0  0  0  0  0  0  0  0  0  0
    9.4560    0.1560   22.8130 C   0  0  1  0  0  0  0  0  0  0  0  0
   10.7672    4.4245   23.2454 N   0  0  0  0  0  0  0  0  0  0  0  0
    6.7580    0.3810   17.8350 N   0  0  0  0  0  0  0  0  0  0  0  0
   11.9863    4.2152   22.7200 N   0  0  0  0  0  0  0  0  0  0  0  0
    7.3170   -0.1610   19.8550 N   0  0  0  0  0  0  0  0  0  0  0  0
    8.1890   -0.7180   20.8700 N   0  0  0  0  0  0  0  0  0  0  0  0
    9.2556   -4.7554   25.5514 N   0  0  0  0  0  0  0  0  0  0  0  0
    9.2690    1.4140   20.9380 O   0  0  0  0  0  0  0  0  0  0  0  0
    3.0134    2.6521   19.3911 H   0  0  0  0  0  0  0  0  0  0  0  0
    3.6460    2.0127   21.6812 H   0  0  0  0  0  0  0  0  0  0  0  0
    8.9214   -0.1986   25.4206 H   0  0  0  0  0  0  0  0  0  0  0  0
   10.0622   -2.2326   21.8251 H   0  0  0  0  0  0  0  0  0  0  0  0
    4.4037    1.9731   17.4543 H   0  0  0  0  0  0  0  0  0  0  0  0
    5.7084    0.6923   22.1132 H   0  0  0  0  0  0  0  0  0  0  0  0
    8.6882   -2.3542   26.5803 H   0  0  0  0  0  0  0  0  0  0  0  0
    9.9258   -4.3896   22.9914 H   0  0  0  0  0  0  0  0  0  0  0  0
    9.2947    3.0629   23.8092 H   0  0  0  0  0  0  0  0  0  0  0  0
   13.2346    2.5800   22.1195 H   0  0  0  0  0  0  0  0  0  0  0  0
    8.4862   -0.8060   18.1787 H   0  0  0  0  0  0  0  0  0  0  0  0
   12.6295    5.6456   21.3814 H   0  0  0  0  0  0  0  0  0  0  0  0
   12.6226    6.1591   23.1027 H   0  0  0  0  0  0  0  0  0  0  0  0
   13.8829    5.0428   22.5193 H   0  0  0  0  0  0  0  0  0  0  0  0
    8.1775   -6.1919   26.6235 H   0  0  0  0  0  0  0  0  0  0  0  0
    7.6740   -4.4889   26.8933 H   0  0  0  0  0  0  0  0  0  0  0  0
    7.2508   -5.3180   25.3570 H   0  0  0  0  0  0  0  0  0  0  0  0
   10.1974   -6.4996   26.2195 H   0  0  0  0  0  0  0  0  0  0  0  0
   10.7877   -5.8568   24.6496 H   0  0  0  0  0  0  0  0  0  0  0  0
   11.2305   -5.0307   26.1819 H   0  0  0  0  0  0  0  0  0  0  0  0
   11.6403    0.2667   22.2043 H   0  0  0  0  0  0  0  0  0  0  0  0
   11.3821    0.2882   23.9279 H   0  0  0  0  0  0  0  0  0  0  0  0
    8.9221    0.9705   23.4866 H   0  0  0  0  0  0  0  0  0  0  0  0
    8.2749   -1.5586   21.1247 H   0  0  0  0  0  0  0  0  0  0  0  0
  1  2  1  0  0  0  0
  1  5  2  0  0  0  0
  2  6  2  0  0  0  0
  3  7  2  0  0  0  0
  3 12  1  0  0  0  0
  4  8  1  0  0  0  0
  4 12  2  0  0  0  0
  5 14  1  0  0  0  0
  6 15  1  0  0  0  0
  7 16  1  0  0  0  0
  8 16  2  0  0  0  0
  9 13  1  0  0  0  0
  9 23  2  0  0  0  0
 10 13  2  0  0  0  0
 10 25  1  0  0  0  0
 11 24  2  0  0  0  0
 11 26  1  0  0  0  0
 12 22  1  0  0  0  0
 13 21  1  0  0  0  0
 14 15  2  0  0  0  0
 14 24  1  0  0  0  0
 15 26  1  0  0  0  0
 16 28  1  0  0  0  0
 17 22  1  0  0  0  0
 17 27  1  0  0  0  0
 17 29  2  0  0  0  0
 18 25  1  0  0  0  0
 19 28  1  0  0  0  0
 20 28  1  0  0  0  0
 21 22  1  1  0  0  0
 23 25  1  0  0  0  0
 26 27  1  0  0  0  0
  1 30  1  0  0  0  0
  2 31  1  0  0  0  0
  3 32  1  0  0  0  0
  4 33  1  0  0  0  0
  5 34  1  0  0  0  0
  6 35  1  0  0  0  0
  7 36  1  0  0  0  0
  8 37  1  0  0  0  0
  9 38  1  0  0  0  0
 10 39  1  0  0  0  0
 11 40  1  0  0  0  0
 18 41  1  0  0  0  0
 18 42  1  0  0  0  0
 18 43  1  0  0  0  0
 19 44  1  0  0  0  0
 19 45  1  0  0  0  0
 19 46  1  0  0  0  0
 20 47  1  0  0  0  0
 20 48  1  0  0  0  0
 20 49  1  0  0  0  0
 21 50  1  0  0  0  0
 21 51  1  0  0  0  0
 22 52  1  0  0  0  0
 27 53  1  0  0  0  0
M  END
> <clash_score>
0

> <docking_score>
-10.856950759887695

> <overlap_score>
0.9231193661689758

$$$$
BENZO_198_1
  -OEChem-08232013453D

 53 56  0     1  0  0  0  0  0999 V2000
    3.9160    2.0630   19.5520 C   0  0  0  0  0  0  0  0  0  0  0  0
    4.2750    1.7050   20.8490 C   0  0  0  0  0  0  0  0  0  0  0  0
   10.3511    4.4175   23.4183 C   0  0  0  0  0  0  0  0  0  0  0  0
   10.1749    3.0340   23.4326 C   0  0  0  0  0  0  0  0  0  0  0  0
    9.0720   -1.1280   24.8640 C   0  0  0  0  0  0  0  0  0  0  0  0
    9.7200   -2.2600   22.8630 C   0  0  0  0  0  0  0  0  0  0  0  0
    4.6890    1.6810   18.4640 C   0  0  0  0  0  0  0  0  0  0  0  0
    5.4210    0.9600   21.0930 C   0  0  0  0  0  0  0  0  0  0  0  0
    8.9960   -2.3380   25.5320 C   0  0  0  0  0  0  0  0  0  0  0  0
    9.6730   -3.4710   23.5300 C   0  0  0  0  0  0  0  0  0  0  0  0
   11.5416    4.9641   22.9388 C   0  0  0  0  0  0  0  0  0  0  0  0
   12.3796    2.7434   22.4881 C   0  0  0  0  0  0  0  0  0  0  0  0
    7.6390   -0.2680   18.5410 C   0  0  0  0  0  0  0  0  0  0  0  0
    9.3350   -1.0880   23.5010 C   0  0  0  0  0  0  0  0  0  0  0  0
   11.1891    2.1969   22.9675 C   0  0  0  0  0  0  0  0  0  0  0  0
    5.8300    0.9190   18.6970 C   0  0  0  0  0  0  0  0  0  0  0  0
    6.1790    0.5730   19.9990 C   0  0  0  0  0  0  0  0  0  0  0  0
    9.3070   -3.5340   24.8780 C   0  0  0  0  0  0  0  0  0  0  0  0
   12.5558    4.1270   22.4738 C   0  0  0  0  0  0  0  0  0  0  0  0
    9.0420    0.3700   21.5280 C   0  0  0  0  0  0  0  0  0  0  0  0
    8.0148   -5.2164   26.1419 C   0  0  0  0  0  0  0  0  0  0  0  0
   10.4390   -5.5857   25.6570 C   0  0  0  0  0  0  0  0  0  0  0  0
   10.9980    0.6985   22.9845 C   0  0  0  0  0  0  0  0  0  0  0  0
    9.4560    0.1560   22.8130 C   0  0  1  0  0  0  0  0  0  0  0  0
    6.7580    0.3810   17.8350 N   0  0  0  0  0  0  0  0  0  0  0  0
    7.3170   -0.1610   19.8550 N   0  0  0  0  0  0  0  0  0  0  0  0
    8.1890   -0.7180   20.8700 N   0  0  0  0  0  0  0  0  0  0  0  0
    9.2556   -4.7554   25.5514 N   0  0  0  0  0  0  0  0  0  0  0  0
    9.2690    1.4140   20.9380 O   0  0  0  0  0  0  0  0  0  0  0  0
   14.0247    4.8018   21.8834 Cl  0  0  0  0  0  0  0  0  0  0  0  0
    3.0134    2.6521   19.3911 H   0  0  0  0  0  0  0  0  0  0  0  0
    3.6460    2.0127   21.6812 H   0  0  0  0  0  0  0  0  0  0  0  0
    9.5612    5.0691   23.7807 H   0  0  0  0  0  0  0  0  0  0  0  0
    9.2441    2.6169   23.8081 H   0  0  0  0  0  0  0  0  0  0  0  0
    8.9214   -0.1986   25.4206 H   0  0  0  0  0  0  0  0  0  0  0  0
   10.0622   -2.2326   21.8251 H   0  0  0  0  0  0  0  0  0  0  0  0
    4.4037    1.9731   17.4543 H   0  0  0  0  0  0  0  0  0  0  0  0
    5.7084    0.6923   22.1132 H   0  0  0  0  0  0  0  0  0  0  0  0
    8.6882   -2.3542   26.5803 H   0  0  0  0  0  0  0  0  0  0  0  0
    9.9258   -4.3896   22.9914 H   0  0  0  0  0  0  0  0  0  0  0  0
   11.6652    6.0443   22.9339 H   0  0  0  0  0  0  0  0  0  0  0  0
   13.1671    2.0865   22.1261 H   0  0  0  0  0  0  0  0  0  0  0  0
    8.4862   -0.8060   18.1787 H   0  0  0  0  0  0  0  0  0  0  0  0
    8.1775   -6.1919   26.6235 H   0  0  0  0  0  0  0  0  0  0  0  0
    7.6740   -4.4889   26.8933 H   0  0  0  0  0  0  0  0  0  0  0  0
    7.2508   -5.3180   25.3570 H   0  0  0  0  0  0  0  0  0  0  0  0
   10.1974   -6.4996   26.2195 H   0  0  0  0  0  0  0  0  0  0  0  0
   10.7877   -5.8568   24.6496 H   0  0  0  0  0  0  0  0  0  0  0  0
   11.2305   -5.0307   26.1819 H   0  0  0  0  0  0  0  0  0  0  0  0
   11.6403    0.2667   22.2043 H   0  0  0  0  0  0  0  0  0  0  0  0
   11.3821    0.2882   23.9279 H   0  0  0  0  0  0  0  0  0  0  0  0
    8.9221    0.9705   23.4866 H   0  0  0  0  0  0  0  0  0  0  0  0
    8.2749   -1.5586   21.1247 H   0  0  0  0  0  0  0  0  0  0  0  0
  1  2  1  0  0  0  0
  1  7  2  0  0  0  0
  2  8  2  0  0  0  0
  3  4  2  0  0  0  0
  3 11  1  0  0  0  0
  4 15  1  0  0  0  0
  5  9  2  0  0  0  0
  5 14  1  0  0  0  0
  6 10  1  0  0  0  0
  6 14  2  0  0  0  0
  7 16  1  0  0  0  0
  8 17  1  0  0  0  0
  9 18  1  0  0  0  0
 10 18  2  0  0  0  0
 11 19  2  0  0  0  0
 12 15  2  0  0  0  0
 12 19  1  0  0  0  0
 13 25  2  0  0  0  0
 13 26  1  0  0  0  0
 14 24  1  0  0  0  0
 15 23  1  0  0  0  0
 16 17  2  0  0  0  0
 16 25  1  0  0  0  0
 17 26  1  0  0  0  0
 18 28  1  0  0  0  0
 19 30  1  0  0  0  0
 20 24  1  0  0  0  0
 20 27  1  0  0  0  0
 20 29  2  0  0  0  0
 21 28  1  0  0  0  0
 22 28  1  0  0  0  0
 23 24  1  1  0  0  0
 26 27  1  0  0  0  0
  1 31  1  0  0  0  0
  2 32  1  0  0  0  0
  3 33  1  0  0  0  0
  4 34  1  0  0  0  0
  5 35  1  0  0  0  0
  6 36  1  0  0  0  0
  7 37  1  0  0  0  0
  8 38  1  0  0  0  0
  9 39  1  0  0  0  0
 10 40  1  0  0  0  0
 11 41  1  0  0  0  0
 12 42  1  0  0  0  0
 13 43  1  0  0  0  0
 21 44  1  0  0  0  0
 21 45  1  0  0  0  0
 21 46  1  0  0  0  0
 22 47  1  0  0  0  0
 22 48  1  0  0  0  0
 22 49  1  0  0  0  0
 23 50  1  0  0  0  0
 23 51  1  0  0  0  0
 24 52  1  0  0  0  0
 27 53  1  0  0  0  0
M  END
> <clash_score>
0

> <docking_score>
-11.22627067565918

> <overlap_score>
0.9272754788398743

$$$$
BENZO_198_2
  -OEChem-08232013453D

 53 56  0     1  0  0  0  0  0999 V2000
    3.9160    2.0630   19.5520 C   0  0  0  0  0  0  0  0  0  0  0  0
    4.2750    1.7050   20.8490 C   0  0  0  0  0  0  0  0  0  0  0  0
    9.6814    4.7377   22.2699 C   0  0  0  0  0  0  0  0  0  0  0  0
    9.0418    3.5253   22.5276 C   0  0  0  0  0  0  0  0  0  0  0  0
    9.0720   -1.1280   24.8640 C   0  0  0  0  0  0  0  0  0  0  0  0
    9.7200   -2.2600   22.8630 C   0  0  0  0  0  0  0  0  0  0  0  0
    4.6890    1.6810   18.4640 C   0  0  0  0  0  0  0  0  0  0  0  0
    5.4210    0.9600   21.0930 C   0  0  0  0  0  0  0  0  0  0  0  0
    8.9960   -2.3380   25.5320 C   0  0  0  0  0  0  0  0  0  0  0  0
    9.6730   -3.4710   23.5300 C   0  0  0  0  0  0  0  0  0  0  0  0
   10.8316    5.0840   22.9789 C   0  0  0  0  0  0  0  0  0  0  0  0
   10.7025    3.0055   24.2036 C   0  0  0  0  0  0  0  0  0  0  0  0
    7.6390   -0.2680   18.5410 C   0  0  0  0  0  0  0  0  0  0  0  0
    9.3350   -1.0880   23.5010 C   0  0  0  0  0  0  0  0  0  0  0  0
    9.5523    2.6591   23.4945 C   0  0  0  0  0  0  0  0  0  0  0  0
    5.8300    0.9190   18.6970 C   0  0  0  0  0  0  0  0  0  0  0  0
    6.1790    0.5730   19.9990 C   0  0  0  0  0  0  0  0  0  0  0  0
    9.3070   -3.5340   24.8780 C   0  0  0  0  0  0  0  0  0  0  0  0
   11.3422    4.2179   23.9458 C   0  0  0  0  0  0  0  0  0  0  0  0
    9.0420    0.3700   21.5280 C   0  0  0  0  0  0  0  0  0  0  0  0
    8.8766   -4.8075   26.9494 C   0  0  0  0  0  0  0  0  0  0  0  0
    9.5669   -5.9896   24.8578 C   0  0  0  0  0  0  0  0  0  0  0  0
    8.8584    1.3468   23.7740 C   0  0  0  0  0  0  0  0  0  0  0  0
    9.4560    0.1560   22.8130 C   0  0  2  0  0  0  0  0  0  0  0  0
    6.7580    0.3810   17.8350 N   0  0  0  0  0  0  0  0  0  0  0  0
    7.3170   -0.1610   19.8550 N   0  0  0  0  0  0  0  0  0  0  0  0
    8.1890   -0.7180   20.8700 N   0  0  0  0  0  0  0  0  0  0  0  0
    9.2556   -4.7554   25.5514 N   0  0  0  0  0  0  0  0  0  0  0  0
    9.2690    1.4140   20.9380 O   0  0  0  0  0  0  0  0  0  0  0  0
   12.7607    4.6463   24.8211 Cl  0  0  0  0  0  0  0  0  0  0  0  0
    3.0134    2.6521   19.3911 H   0  0  0  0  0  0  0  0  0  0  0  0
    3.6460    2.0127   21.6812 H   0  0  0  0  0  0  0  0  0  0  0  0
    9.2834    5.4119   21.5170 H   0  0  0  0  0  0  0  0  0  0  0  0
    8.1460    3.2636   21.9704 H   0  0  0  0  0  0  0  0  0  0  0  0
    8.9214   -0.1986   25.4206 H   0  0  0  0  0  0  0  0  0  0  0  0
   10.0622   -2.2326   21.8251 H   0  0  0  0  0  0  0  0  0  0  0  0
    4.4037    1.9731   17.4543 H   0  0  0  0  0  0  0  0  0  0  0  0
    5.7084    0.6923   22.1132 H   0  0  0  0  0  0  0  0  0  0  0  0
    8.6882   -2.3542   26.5803 H   0  0  0  0  0  0  0  0  0  0  0  0
    9.9258   -4.3896   22.9914 H   0  0  0  0  0  0  0  0  0  0  0  0
   11.3195    6.0324   22.7676 H   0  0  0  0  0  0  0  0  0  0  0  0
   11.0970    2.3265   24.9561 H   0  0  0  0  0  0  0  0  0  0  0  0
    8.4862   -0.8060   18.1787 H   0  0  0  0  0  0  0  0  0  0  0  0
    8.8955   -5.8512   27.2963 H   0  0  0  0  0  0  0  0  0  0  0  0
    9.5845   -4.2109   27.5435 H   0  0  0  0  0  0  0  0  0  0  0  0
    7.8621   -4.3996   27.0696 H   0  0  0  0  0  0  0  0  0  0  0  0
    9.4707   -6.8361   25.5536 H   0  0  0  0  0  0  0  0  0  0  0  0
    8.8693   -6.1242   24.0181 H   0  0  0  0  0  0  0  0  0  0  0  0
   10.5972   -5.9451   24.4750 H   0  0  0  0  0  0  0  0  0  0  0  0
    8.9548    1.1352   24.8480 H   0  0  0  0  0  0  0  0  0  0  0  0
    7.7793    1.4560   23.6018 H   0  0  0  0  0  0  0  0  0  0  0  0
   10.5986    0.4624   22.8633 H   0  0  0  0  0  0  0  0  0  0  0  0
    8.2749   -1.5586   21.1247 H   0  0  0  0  0  0  0  0  0  0  0  0
  1  2  1  0  0  0  0
  1  7  2  0  0  0  0
  2  8  2  0  0  0  0
  3  4  2  0  0  0  0
  3 11  1  0  0  0  0
  4 15  1  0  0  0  0
  5  9  2  0  0  0  0
  5 14  1  0  0  0  0
  6 10  1  0  0  0  0
  6 14  2  0  0  0  0
  7 16  1  0  0  0  0
  8 17  1  0  0  0  0
  9 18  1  0  0  0  0
 10 18  2  0  0  0  0
 11 19  2  0  0  0  0
 12 15  2  0  0  0  0
 12 19  1  0  0  0  0
 13 25  2  0  0  0  0
 13 26  1  0  0  0  0
 14 24  1  0  0  0  0
 15 23  1  0  0  0  0
 16 17  2  0  0  0  0
 16 25  1  0  0  0  0
 17 26  1  0  0  0  0
 18 28  1  0  0  0  0
 19 30  1  0  0  0  0
 20 24  1  0  0  0  0
 20 27  1  0  0  0  0
 20 29  2  0  0  0  0
 21 28  1  0  0  0  0
 22 28  1  0  0  0  0
 23 24  1  6  0  0  0
 26 27  1  0  0  0  0
  1 31  1  0  0  0  0
  2 32  1  0  0  0  0
  3 33  1  0  0  0  0
  4 34  1  0  0  0  0
  5 35  1  0  0  0  0
  6 36  1  0  0  0  0
  7 37  1  0  0  0  0
  8 38  1  0  0  0  0
  9 39  1  0  0  0  0
 10 40  1  0  0  0  0
 11 41  1  0  0  0  0
 12 42  1  0  0  0  0
 13 43  1  0  0  0  0
 21 44  1  0  0  0  0
 21 45  1  0  0  0  0
 21 46  1  0  0  0  0
 22 47  1  0  0  0  0
 22 48  1  0  0  0  0
 22 49  1  0  0  0  0
 23 50  1  0  0  0  0
 23 51  1  0  0  0  0
 24 52  1  0  0  0  0
 27 53  1  0  0  0  0
M  END
> <clash_score>
0

> <docking_score>
-7.109759330749512

> <overlap_score>
0.8584544658660889

$$$$
BENZO_201_2
  -OEChem-08232013453D

 55 58  0     1  0  0  0  0  0999 V2000
   10.8333    5.0828   22.9771 C   0  0  0  0  0  0  0  0  0  0  0  0
   11.3431    4.2172   23.9447 C   0  0  0  0  0  0  0  0  0  0  0  0
    9.6829    4.7367   22.2682 C   0  0  0  0  0  0  0  0  0  0  0  0
    3.9160    2.0630   19.5520 C   0  0  0  0  0  0  0  0  0  0  0  0
    4.2750    1.7050   20.8490 C   0  0  0  0  0  0  0  0  0  0  0  0
   10.7027    3.0054   24.2034 C   0  0  0  0  0  0  0  0  0  0  0  0
    9.0424    3.5248   22.5269 C   0  0  0  0  0  0  0  0  0  0  0  0
    9.0720   -1.1280   24.8640 C   0  0  0  0  0  0  0  0  0  0  0  0
    9.7200   -2.2600   22.8630 C   0  0  0  0  0  0  0  0  0  0  0  0
    4.6890    1.6810   18.4640 C   0  0  0  0  0  0  0  0  0  0  0  0
    5.4210    0.9600   21.0930 C   0  0  0  0  0  0  0  0  0  0  0  0
    8.9960   -2.3380   25.5320 C   0  0  0  0  0  0  0  0  0  0  0  0
    9.6730   -3.4710   23.5300 C   0  0  0  0  0  0  0  0  0  0  0  0
    7.6390   -0.2680   18.5410 C   0  0  0  0  0  0  0  0  0  0  0  0
    9.5523    2.6591   23.4945 C   0  0  0  0  0  0  0  0  0  0  0  0
    9.3350   -1.0880   23.5010 C   0  0  0  0  0  0  0  0  0  0  0  0
    5.8300    0.9190   18.6970 C   0  0  0  0  0  0  0  0  0  0  0  0
    6.1790    0.5730   19.9990 C   0  0  0  0  0  0  0  0  0  0  0  0
    9.3070   -3.5340   24.8780 C   0  0  0  0  0  0  0  0  0  0  0  0
    8.4228   -5.1089   26.6141 C   0  0  0  0  0  0  0  0  0  0  0  0
    9.0420    0.3700   21.5280 C   0  0  0  0  0  0  0  0  0  0  0  0
    8.4173   -7.5520   25.9532 C   0  0  0  0  0  0  0  0  0  0  0  0
    8.8584    1.3468   23.7740 C   0  0  0  0  0  0  0  0  0  0  0  0
    8.6900   -6.5411   27.0525 C   0  0  0  0  0  0  0  0  0  0  0  0
    9.4560    0.1560   22.8130 C   0  0  2  0  0  0  0  0  0  0  0  0
    6.7580    0.3810   17.8350 N   0  0  0  0  0  0  0  0  0  0  0  0
    7.3170   -0.1610   19.8550 N   0  0  0  0  0  0  0  0  0  0  0  0
    9.2546   -4.7423   25.5437 N   0  0  0  0  0  0  0  0  0  0  0  0
    8.1890   -0.7180   20.8700 N   0  0  0  0  0  0  0  0  0  0  0  0
    7.5768   -4.4085   27.1603 O   0  0  0  0  0  0  0  0  0  0  0  0
    9.2690    1.4140   20.9380 O   0  0  0  0  0  0  0  0  0  0  0  0
   11.3313    6.0270   22.7767 H   0  0  0  0  0  0  0  0  0  0  0  0
   12.2382    4.4870   24.4976 H   0  0  0  0  0  0  0  0  0  0  0  0
    9.2850    5.4109   21.5155 H   0  0  0  0  0  0  0  0  0  0  0  0
    3.0134    2.6521   19.3911 H   0  0  0  0  0  0  0  0  0  0  0  0
    3.6460    2.0127   21.6812 H   0  0  0  0  0  0  0  0  0  0  0  0
   11.1072    2.3370   24.9590 H   0  0  0  0  0  0  0  0  0  0  0  0
    8.1468    3.2634   21.9695 H   0  0  0  0  0  0  0  0  0  0  0  0
    8.9202   -0.1986   25.4206 H   0  0  0  0  0  0  0  0  0  0  0  0
   10.0631   -2.2319   21.8252 H   0  0  0  0  0  0  0  0  0  0  0  0
    4.4037    1.9731   17.4543 H   0  0  0  0  0  0  0  0  0  0  0  0
    5.7084    0.6923   22.1132 H   0  0  0  0  0  0  0  0  0  0  0  0
    8.6898   -2.3534   26.5810 H   0  0  0  0  0  0  0  0  0  0  0  0
    9.9254   -4.3899   22.9914 H   0  0  0  0  0  0  0  0  0  0  0  0
    8.4862   -0.8060   18.1787 H   0  0  0  0  0  0  0  0  0  0  0  0
    7.3765   -7.4970   25.6177 H   0  0  0  0  0  0  0  0  0  0  0  0
    8.6071   -8.5677   26.3138 H   0  0  0  0  0  0  0  0  0  0  0  0
    9.0598   -7.3717   25.0851 H   0  0  0  0  0  0  0  0  0  0  0  0
    8.9548    1.1352   24.8480 H   0  0  0  0  0  0  0  0  0  0  0  0
    7.7793    1.4560   23.6018 H   0  0  0  0  0  0  0  0  0  0  0  0
    9.7367   -6.6182   27.3684 H   0  0  0  0  0  0  0  0  0  0  0  0
    8.0565   -6.7633   27.9189 H   0  0  0  0  0  0  0  0  0  0  0  0
   10.5986    0.4624   22.8633 H   0  0  0  0  0  0  0  0  0  0  0  0
    9.9034   -5.4689   25.2194 H   0  0  0  0  0  0  0  0  0  0  0  0
    8.2749   -1.5586   21.1247 H   0  0  0  0  0  0  0  0  0  0  0  0
  1  2  1  0  0  0  0
  1  3  2  0  0  0  0
  2  6  2  0  0  0  0
  3  7  1  0  0  0  0
  4  5  1  0  0  0  0
  4 10  2  0  0  0  0
  5 11  2  0  0  0  0
  6 15  1  0  0  0  0
  7 15  2  0  0  0  0
  8 12  2  0  0  0  0
  8 16  1  0  0  0  0
  9 13  1  0  0  0  0
  9 16  2  0  0  0  0
 10 17  1  0  0  0  0
 11 18  1  0  0  0  0
 12 19  1  0  0  0  0
 13 19  2  0  0  0  0
 14 26  2  0  0  0  0
 14 27  1  0  0  0  0
 15 23  1  0  0  0  0
 16 25  1  0  0  0  0
 17 18  2  0  0  0  0
 17 26  1  0  0  0  0
 18 27  1  0  0  0  0
 19 28  1  0  0  0  0
 20 24  1  0  0  0  0
 20 28  1  0  0  0  0
 20 30  2  0  0  0  0
 21 25  1  0  0  0  0
 21 29  1  0  0  0  0
 21 31  2  0  0  0  0
 22 24  1  0  0  0  0
 23 25  1  6  0  0  0
 27 29  1  0  0  0  0
  1 32  1  0  0  0  0
  2 33  1  0  0  0  0
  3 34  1  0  0  0  0
  4 35  1  0  0  0  0
  5 36  1  0  0  0  0
  6 37  1  0  0  0  0
  7 38  1  0  0  0  0
  8 39  1  0  0  0  0
  9 40  1  0  0  0  0
 10 41  1  0  0  0  0
 11 42  1  0  0  0  0
 12 43  1  0  0  0  0
 13 44  1  0  0  0  0
 14 45  1  0  0  0  0
 22 46  1  0  0  0  0
 22 47  1  0  0  0  0
 22 48  1  0  0  0  0
 23 49  1  0  0  0  0
 23 50  1  0  0  0  0
 24 51  1  0  0  0  0
 24 52  1  0  0  0  0
 25 53  1  0  0  0  0
 28 54  1  0  0  0  0
 29 55  1  0  0  0  0
M  END
> <clash_score>
0.6426251740901496

> <docking_score>
-6.4883198738098145

> <overlap_score>
0.8555610775947571

$$$$
BENZO_201_1
  -OEChem-08232013453D

 55 58  0     1  0  0  0  0  0999 V2000
   11.5406    4.9642   22.9363 C   0  0  0  0  0  0  0  0  0  0  0  0
   12.5552    4.1270   22.4723 C   0  0  0  0  0  0  0  0  0  0  0  0
   10.3502    4.4177   23.4160 C   0  0  0  0  0  0  0  0  0  0  0  0
    3.9160    2.0630   19.5520 C   0  0  0  0  0  0  0  0  0  0  0  0
    4.2750    1.7050   20.8490 C   0  0  0  0  0  0  0  0  0  0  0  0
   12.3795    2.7434   22.4879 C   0  0  0  0  0  0  0  0  0  0  0  0
   10.1745    3.0341   23.4316 C   0  0  0  0  0  0  0  0  0  0  0  0
    9.0720   -1.1280   24.8640 C   0  0  0  0  0  0  0  0  0  0  0  0
    9.7200   -2.2600   22.8630 C   0  0  0  0  0  0  0  0  0  0  0  0
    4.6890    1.6810   18.4640 C   0  0  0  0  0  0  0  0  0  0  0  0
    5.4210    0.9600   21.0930 C   0  0  0  0  0  0  0  0  0  0  0  0
    8.9960   -2.3380   25.5320 C   0  0  0  0  0  0  0  0  0  0  0  0
    9.6730   -3.4710   23.5300 C   0  0  0  0  0  0  0  0  0  0  0  0
    7.6390   -0.2680   18.5410 C   0  0  0  0  0  0  0  0  0  0  0  0
   11.1891    2.1969   22.9675 C   0  0  0  0  0  0  0  0  0  0  0  0
    9.3350   -1.0880   23.5010 C   0  0  0  0  0  0  0  0  0  0  0  0
    5.8300    0.9190   18.6970 C   0  0  0  0  0  0  0  0  0  0  0  0
    6.1790    0.5730   19.9990 C   0  0  0  0  0  0  0  0  0  0  0  0
    9.3070   -3.5340   24.8780 C   0  0  0  0  0  0  0  0  0  0  0  0
    8.4228   -5.1089   26.6141 C   0  0  0  0  0  0  0  0  0  0  0  0
    9.0420    0.3700   21.5280 C   0  0  0  0  0  0  0  0  0  0  0  0
    8.4173   -7.5520   25.9532 C   0  0  0  0  0  0  0  0  0  0  0  0
   10.9980    0.6985   22.9845 C   0  0  0  0  0  0  0  0  0  0  0  0
    8.6900   -6.5411   27.0525 C   0  0  0  0  0  0  0  0  0  0  0  0
    9.4560    0.1560   22.8130 C   0  0  1  0  0  0  0  0  0  0  0  0
    6.7580    0.3810   17.8350 N   0  0  0  0  0  0  0  0  0  0  0  0
    7.3170   -0.1610   19.8550 N   0  0  0  0  0  0  0  0  0  0  0  0
    9.2546   -4.7423   25.5437 N   0  0  0  0  0  0  0  0  0  0  0  0
    8.1890   -0.7180   20.8700 N   0  0  0  0  0  0  0  0  0  0  0  0
    7.5768   -4.4085   27.1603 O   0  0  0  0  0  0  0  0  0  0  0  0
    9.2690    1.4140   20.9380 O   0  0  0  0  0  0  0  0  0  0  0  0
   11.6782    6.0415   22.9253 H   0  0  0  0  0  0  0  0  0  0  0  0
   13.4826    4.5523   22.0998 H   0  0  0  0  0  0  0  0  0  0  0  0
    9.5605    5.0692   23.7783 H   0  0  0  0  0  0  0  0  0  0  0  0
    3.0134    2.6521   19.3911 H   0  0  0  0  0  0  0  0  0  0  0  0
    3.6460    2.0127   21.6812 H   0  0  0  0  0  0  0  0  0  0  0  0
   13.1754    2.0988   22.1242 H   0  0  0  0  0  0  0  0  0  0  0  0
    9.2436    2.6172   23.8070 H   0  0  0  0  0  0  0  0  0  0  0  0
    8.9202   -0.1986   25.4206 H   0  0  0  0  0  0  0  0  0  0  0  0
   10.0631   -2.2319   21.8252 H   0  0  0  0  0  0  0  0  0  0  0  0
    4.4037    1.9731   17.4543 H   0  0  0  0  0  0  0  0  0  0  0  0
    5.7084    0.6923   22.1132 H   0  0  0  0  0  0  0  0  0  0  0  0
    8.6898   -2.3534   26.5810 H   0  0  0  0  0  0  0  0  0  0  0  0
    9.9254   -4.3899   22.9914 H   0  0  0  0  0  0  0  0  0  0  0  0
    8.4862   -0.8060   18.1787 H   0  0  0  0  0  0  0  0  0  0  0  0
    7.3765   -7.4970   25.6177 H   0  0  0  0  0  0  0  0  0  0  0  0
    8.6071   -8.5677   26.3138 H   0  0  0  0  0  0  0  0  0  0  0  0
    9.0598   -7.3717   25.0851 H   0  0  0  0  0  0  0  0  0  0  0  0
   11.6403    0.2667   22.2043 H   0  0  0  0  0  0  0  0  0  0  0  0
   11.3821    0.2882   23.9279 H   0  0  0  0  0  0  0  0  0  0  0  0
    9.7367   -6.6182   27.3684 H   0  0  0  0  0  0  0  0  0  0  0  0
    8.0565   -6.7633   27.9189 H   0  0  0  0  0  0  0  0  0  0  0  0
    8.9221    0.9705   23.4866 H   0  0  0  0  0  0  0  0  0  0  0  0
    9.9034   -5.4689   25.2194 H   0  0  0  0  0  0  0  0  0  0  0  0
    8.2749   -1.5586   21.1247 H   0  0  0  0  0  0  0  0  0  0  0  0
  1  2  1  0  0  0  0
  1  3  2  0  0  0  0
  2  6  2  0  0  0  0
  3  7  1  0  0  0  0
  4  5  1  0  0  0  0
  4 10  2  0  0  0  0
  5 11  2  0  0  0  0
  6 15  1  0  0  0  0
  7 15  2  0  0  0  0
  8 12  2  0  0  0  0
  8 16  1  0  0  0  0
  9 13  1  0  0  0  0
  9 16  2  0  0  0  0
 10 17  1  0  0  0  0
 11 18  1  0  0  0  0
 12 19  1  0  0  0  0
 13 19  2  0  0  0  0
 14 26  2  0  0  0  0
 14 27  1  0  0  0  0
 15 23  1  0  0  0  0
 16 25  1  0  0  0  0
 17 18  2  0  0  0  0
 17 26  1  0  0  0  0
 18 27  1  0  0  0  0
 19 28  1  0  0  0  0
 20 24  1  0  0  0  0
 20 28  1  0  0  0  0
 20 30  2  0  0  0  0
 21 25  1  0  0  0  0
 21 29  1  0  0  0  0
 21 31  2  0  0  0  0
 22 24  1  0  0  0  0
 23 25  1  1  0  0  0
 27 29  1  0  0  0  0
  1 32  1  0  0  0  0
  2 33  1  0  0  0  0
  3 34  1  0  0  0  0
  4 35  1  0  0  0  0
  5 36  1  0  0  0  0
  6 37  1  0  0  0  0
  7 38  1  0  0  0  0
  8 39  1  0  0  0  0
  9 40  1  0  0  0  0
 10 41  1  0  0  0  0
 11 42  1  0  0  0  0
 12 43  1  0  0  0  0
 13 44  1  0  0  0  0
 14 45  1  0  0  0  0
 22 46  1  0  0  0  0
 22 47  1  0  0  0  0
 22 48  1  0  0  0  0
 23 49  1  0  0  0  0
 23 50  1  0  0  0  0
 24 51  1  0  0  0  0
 24 52  1  0  0  0  0
 25 53  1  0  0  0  0
 28 54  1  0  0  0  0
 29 55  1  0  0  0  0
M  END
> <clash_score>
0.6426251740901496

> <docking_score>
-9.281177520751953

> <overlap_score>
0.930009126663208

$$$$
BENZO_200_2
  -OEChem-08232013453D

 52 55  0     1  0  0  0  0  0999 V2000
    3.9160    2.0630   19.5520 C   0  0  0  0  0  0  0  0  0  0  0  0
    4.2750    1.7050   20.8490 C   0  0  0  0  0  0  0  0  0  0  0  0
    9.0720   -1.1280   24.8640 C   0  0  0  0  0  0  0  0  0  0  0  0
    9.7200   -2.2600   22.8630 C   0  0  0  0  0  0  0  0  0  0  0  0
    4.6890    1.6810   18.4640 C   0  0  0  0  0  0  0  0  0  0  0  0
    5.4210    0.9600   21.0930 C   0  0  0  0  0  0  0  0  0  0  0  0
    8.9960   -2.3380   25.5320 C   0  0  0  0  0  0  0  0  0  0  0  0
    9.6730   -3.4710   23.5300 C   0  0  0  0  0  0  0  0  0  0  0  0
   10.9285    2.7711   23.1427 C   0  0  0  0  0  0  0  0  0  0  0  0
   11.3066    4.0806   22.9428 C   0  0  0  0  0  0  0  0  0  0  0  0
    8.9310    3.8875   23.5503 C   0  0  0  0  0  0  0  0  0  0  0  0
    7.6390   -0.2680   18.5410 C   0  0  0  0  0  0  0  0  0  0  0  0
    9.3350   -1.0880   23.5010 C   0  0  0  0  0  0  0  0  0  0  0  0
    9.5523    2.6591   23.4945 C   0  0  0  0  0  0  0  0  0  0  0  0
    5.8300    0.9190   18.6970 C   0  0  0  0  0  0  0  0  0  0  0  0
    6.1790    0.5730   19.9990 C   0  0  0  0  0  0  0  0  0  0  0  0
    9.3070   -3.5340   24.8780 C   0  0  0  0  0  0  0  0  0  0  0  0
    8.4228   -5.1089   26.6141 C   0  0  0  0  0  0  0  0  0  0  0  0
    9.0420    0.3700   21.5280 C   0  0  0  0  0  0  0  0  0  0  0  0
    8.4173   -7.5520   25.9532 C   0  0  0  0  0  0  0  0  0  0  0  0
    8.8584    1.3468   23.7740 C   0  0  0  0  0  0  0  0  0  0  0  0
    8.6900   -6.5411   27.0525 C   0  0  0  0  0  0  0  0  0  0  0  0
    9.4560    0.1560   22.8130 C   0  0  2  0  0  0  0  0  0  0  0  0
    6.7580    0.3810   17.8350 N   0  0  0  0  0  0  0  0  0  0  0  0
    7.3170   -0.1610   19.8550 N   0  0  0  0  0  0  0  0  0  0  0  0
    9.2546   -4.7423   25.5437 N   0  0  0  0  0  0  0  0  0  0  0  0
    8.1890   -0.7180   20.8700 N   0  0  0  0  0  0  0  0  0  0  0  0
    7.5768   -4.4085   27.1603 O   0  0  0  0  0  0  0  0  0  0  0  0
    9.2690    1.4140   20.9380 O   0  0  0  0  0  0  0  0  0  0  0  0
   10.0053    5.1683   23.1793 S   0  0  0  0  0  0  0  0  0  0  0  0
    3.0134    2.6521   19.3911 H   0  0  0  0  0  0  0  0  0  0  0  0
    3.6460    2.0127   21.6812 H   0  0  0  0  0  0  0  0  0  0  0  0
    8.9202   -0.1986   25.4206 H   0  0  0  0  0  0  0  0  0  0  0  0
   10.0631   -2.2319   21.8252 H   0  0  0  0  0  0  0  0  0  0  0  0
    4.4037    1.9731   17.4543 H   0  0  0  0  0  0  0  0  0  0  0  0
    5.7084    0.6923   22.1132 H   0  0  0  0  0  0  0  0  0  0  0  0
    8.6898   -2.3534   26.5810 H   0  0  0  0  0  0  0  0  0  0  0  0
    9.9254   -4.3899   22.9914 H   0  0  0  0  0  0  0  0  0  0  0  0
   11.6102    1.9362   23.0408 H   0  0  0  0  0  0  0  0  0  0  0  0
   12.2848    4.4506   22.6700 H   0  0  0  0  0  0  0  0  0  0  0  0
    7.8985    4.0985   23.7919 H   0  0  0  0  0  0  0  0  0  0  0  0
    8.4862   -0.8060   18.1787 H   0  0  0  0  0  0  0  0  0  0  0  0
    7.3765   -7.4970   25.6177 H   0  0  0  0  0  0  0  0  0  0  0  0
    8.6071   -8.5677   26.3138 H   0  0  0  0  0  0  0  0  0  0  0  0
    9.0598   -7.3717   25.0851 H   0  0  0  0  0  0  0  0  0  0  0  0
    8.9548    1.1352   24.8480 H   0  0  0  0  0  0  0  0  0  0  0  0
    7.7793    1.4560   23.6018 H   0  0  0  0  0  0  0  0  0  0  0  0
    9.7367   -6.6182   27.3684 H   0  0  0  0  0  0  0  0  0  0  0  0
    8.0565   -6.7633   27.9189 H   0  0  0  0  0  0  0  0  0  0  0  0
   10.5986    0.4624   22.8633 H   0  0  0  0  0  0  0  0  0  0  0  0
    9.9034   -5.4689   25.2194 H   0  0  0  0  0  0  0  0  0  0  0  0
    8.2749   -1.5586   21.1247 H   0  0  0  0  0  0  0  0  0  0  0  0
  1  2  1  0  0  0  0
  1  5  2  0  0  0  0
  2  6  2  0  0  0  0
  3  7  2  0  0  0  0
  3 13  1  0  0  0  0
  4  8  1  0  0  0  0
  4 13  2  0  0  0  0
  5 15  1  0  0  0  0
  6 16  1  0  0  0  0
  7 17  1  0  0  0  0
  8 17  2  0  0  0  0
  9 10  2  0  0  0  0
  9 14  1  0  0  0  0
 10 30  1  0  0  0  0
 11 14  2  0  0  0  0
 11 30  1  0  0  0  0
 12 24  2  0  0  0  0
 12 25  1  0  0  0  0
 13 23  1  0  0  0  0
 14 21  1  0  0  0  0
 15 16  2  0  0  0  0
 15 24  1  0  0  0  0
 16 25  1  0  0  0  0
 17 26  1  0  0  0  0
 18 22  1  0  0  0  0
 18 26  1  0  0  0  0
 18 28  2  0  0  0  0
 19 23  1  0  0  0  0
 19 27  1  0  0  0  0
 19 29  2  0  0  0  0
 20 22  1  0  0  0  0
 21 23  1  6  0  0  0
 25 27  1  0  0  0  0
  1 31  1  0  0  0  0
  2 32  1  0  0  0  0
  3 33  1  0  0  0  0
  4 34  1  0  0  0  0
  5 35  1  0  0  0  0
  6 36  1  0  0  0  0
  7 37  1  0  0  0  0
  8 38  1  0  0  0  0
  9 39  1  0  0  0  0
 10 40  1  0  0  0  0
 11 41  1  0  0  0  0
 12 42  1  0  0  0  0
 20 43  1  0  0  0  0
 20 44  1  0  0  0  0
 20 45  1  0  0  0  0
 21 46  1  0  0  0  0
 21 47  1  0  0  0  0
 22 48  1  0  0  0  0
 22 49  1  0  0  0  0
 23 50  1  0  0  0  0
 26 51  1  0  0  0  0
 27 52  1  0  0  0  0
M  END
> <clash_score>
0.6426251740901496

> <docking_score>
-7.70200252532959

> <overlap_score>
0.8706194758415222

$$$$
BENZO_200_1
  -OEChem-08232013453D

 52 55  0     1  0  0  0  0  0999 V2000
    3.9160    2.0630   19.5520 C   0  0  0  0  0  0  0  0  0  0  0  0
    4.2750    1.7050   20.8490 C   0  0  0  0  0  0  0  0  0  0  0  0
    9.0720   -1.1280   24.8640 C   0  0  0  0  0  0  0  0  0  0  0  0
    9.7200   -2.2600   22.8630 C   0  0  0  0  0  0  0  0  0  0  0  0
    4.6890    1.6810   18.4640 C   0  0  0  0  0  0  0  0  0  0  0  0
    5.4210    0.9600   21.0930 C   0  0  0  0  0  0  0  0  0  0  0  0
    8.9960   -2.3380   25.5320 C   0  0  0  0  0  0  0  0  0  0  0  0
    9.6730   -3.4710   23.5300 C   0  0  0  0  0  0  0  0  0  0  0  0
   12.0646    2.8761   22.0718 C   0  0  0  0  0  0  0  0  0  0  0  0
   12.0506    4.2394   22.2689 C   0  0  0  0  0  0  0  0  0  0  0  0
   10.5394    3.0670   23.8153 C   0  0  0  0  0  0  0  0  0  0  0  0
    7.6390   -0.2680   18.5410 C   0  0  0  0  0  0  0  0  0  0  0  0
    9.3350   -1.0880   23.5010 C   0  0  0  0  0  0  0  0  0  0  0  0
   11.1891    2.1969   22.9675 C   0  0  0  0  0  0  0  0  0  0  0  0
    5.8300    0.9190   18.6970 C   0  0  0  0  0  0  0  0  0  0  0  0
    6.1790    0.5730   19.9990 C   0  0  0  0  0  0  0  0  0  0  0  0
    9.3070   -3.5340   24.8780 C   0  0  0  0  0  0  0  0  0  0  0  0
    8.4228   -5.1089   26.6141 C   0  0  0  0  0  0  0  0  0  0  0  0
    9.0420    0.3700   21.5280 C   0  0  0  0  0  0  0  0  0  0  0  0
    8.4173   -7.5520   25.9532 C   0  0  0  0  0  0  0  0  0  0  0  0
   10.9980    0.6985   22.9845 C   0  0  0  0  0  0  0  0  0  0  0  0
    8.6900   -6.5411   27.0525 C   0  0  0  0  0  0  0  0  0  0  0  0
    9.4560    0.1560   22.8130 C   0  0  1  0  0  0  0  0  0  0  0  0
    6.7580    0.3810   17.8350 N   0  0  0  0  0  0  0  0  0  0  0  0
    7.3170   -0.1610   19.8550 N   0  0  0  0  0  0  0  0  0  0  0  0
    9.2546   -4.7423   25.5437 N   0  0  0  0  0  0  0  0  0  0  0  0
    8.1890   -0.7180   20.8700 N   0  0  0  0  0  0  0  0  0  0  0  0
    7.5768   -4.4085   27.1603 O   0  0  0  0  0  0  0  0  0  0  0  0
    9.2690    1.4140   20.9380 O   0  0  0  0  0  0  0  0  0  0  0  0
   10.9853    4.6955   23.5296 S   0  0  0  0  0  0  0  0  0  0  0  0
    3.0134    2.6521   19.3911 H   0  0  0  0  0  0  0  0  0  0  0  0
    3.6460    2.0127   21.6812 H   0  0  0  0  0  0  0  0  0  0  0  0
    8.9202   -0.1986   25.4206 H   0  0  0  0  0  0  0  0  0  0  0  0
   10.0631   -2.2319   21.8252 H   0  0  0  0  0  0  0  0  0  0  0  0
    4.4037    1.9731   17.4543 H   0  0  0  0  0  0  0  0  0  0  0  0
    5.7084    0.6923   22.1132 H   0  0  0  0  0  0  0  0  0  0  0  0
    8.6898   -2.3534   26.5810 H   0  0  0  0  0  0  0  0  0  0  0  0
    9.9254   -4.3899   22.9914 H   0  0  0  0  0  0  0  0  0  0  0  0
   12.6757    2.3931   21.3198 H   0  0  0  0  0  0  0  0  0  0  0  0
   12.6155    4.9893   21.7334 H   0  0  0  0  0  0  0  0  0  0  0  0
    9.8247    2.8285   24.5908 H   0  0  0  0  0  0  0  0  0  0  0  0
    8.4862   -0.8060   18.1787 H   0  0  0  0  0  0  0  0  0  0  0  0
    7.3765   -7.4970   25.6177 H   0  0  0  0  0  0  0  0  0  0  0  0
    8.6071   -8.5677   26.3138 H   0  0  0  0  0  0  0  0  0  0  0  0
    9.0598   -7.3717   25.0851 H   0  0  0  0  0  0  0  0  0  0  0  0
   11.6403    0.2667   22.2043 H   0  0  0  0  0  0  0  0  0  0  0  0
   11.3821    0.2882   23.9279 H   0  0  0  0  0  0  0  0  0  0  0  0
    9.7367   -6.6182   27.3684 H   0  0  0  0  0  0  0  0  0  0  0  0
    8.0565   -6.7633   27.9189 H   0  0  0  0  0  0  0  0  0  0  0  0
    8.9221    0.9705   23.4866 H   0  0  0  0  0  0  0  0  0  0  0  0
    9.9034   -5.4689   25.2194 H   0  0  0  0  0  0  0  0  0  0  0  0
    8.2749   -1.5586   21.1247 H   0  0  0  0  0  0  0  0  0  0  0  0
  1  2  1  0  0  0  0
  1  5  2  0  0  0  0
  2  6  2  0  0  0  0
  3  7  2  0  0  0  0
  3 13  1  0  0  0  0
  4  8  1  0  0  0  0
  4 13  2  0  0  0  0
  5 15  1  0  0  0  0
  6 16  1  0  0  0  0
  7 17  1  0  0  0  0
  8 17  2  0  0  0  0
  9 10  2  0  0  0  0
  9 14  1  0  0  0  0
 10 30  1  0  0  0  0
 11 14  2  0  0  0  0
 11 30  1  0  0  0  0
 12 24  2  0  0  0  0
 12 25  1  0  0  0  0
 13 23  1  0  0  0  0
 14 21  1  0  0  0  0
 15 16  2  0  0  0  0
 15 24  1  0  0  0  0
 16 25  1  0  0  0  0
 17 26  1  0  0  0  0
 18 22  1  0  0  0  0
 18 26  1  0  0  0  0
 18 28  2  0  0  0  0
 19 23  1  0  0  0  0
 19 27  1  0  0  0  0
 19 29  2  0  0  0  0
 20 22  1  0  0  0  0
 21 23  1  1  0  0  0
 25 27  1  0  0  0  0
  1 31  1  0  0  0  0
  2 32  1  0  0  0  0
  3 33  1  0  0  0  0
  4 34  1  0  0  0  0
  5 35  1  0  0  0  0
  6 36  1  0  0  0  0
  7 37  1  0  0  0  0
  8 38  1  0  0  0  0
  9 39  1  0  0  0  0
 10 40  1  0  0  0  0
 11 41  1  0  0  0  0
 12 42  1  0  0  0  0
 20 43  1  0  0  0  0
 20 44  1  0  0  0  0
 20 45  1  0  0  0  0
 21 46  1  0  0  0  0
 21 47  1  0  0  0  0
 22 48  1  0  0  0  0
 22 49  1  0  0  0  0
 23 50  1  0  0  0  0
 26 51  1  0  0  0  0
 27 52  1  0  0  0  0
M  END
> <clash_score>
0.6426251740901496

> <docking_score>
-8.563963890075684

> <overlap_score>
0.9187834858894348

$$$$
BENZO_202_2
  -OEChem-08232013453D

 55 58  0     1  0  0  0  0  0999 V2000
    3.9160    2.0630   19.5520 C   0  0  0  0  0  0  0  0  0  0  0  0
    4.2750    1.7050   20.8490 C   0  0  0  0  0  0  0  0  0  0  0  0
    9.6814    4.7377   22.2699 C   0  0  0  0  0  0  0  0  0  0  0  0
    9.0418    3.5253   22.5276 C   0  0  0  0  0  0  0  0  0  0  0  0
    9.0720   -1.1280   24.8640 C   0  0  0  0  0  0  0  0  0  0  0  0
    9.7200   -2.2600   22.8630 C   0  0  0  0  0  0  0  0  0  0  0  0
    4.6890    1.6810   18.4640 C   0  0  0  0  0  0  0  0  0  0  0  0
    5.4210    0.9600   21.0930 C   0  0  0  0  0  0  0  0  0  0  0  0
    8.9960   -2.3380   25.5320 C   0  0  0  0  0  0  0  0  0  0  0  0
    9.6730   -3.4710   23.5300 C   0  0  0  0  0  0  0  0  0  0  0  0
   10.8316    5.0840   22.9789 C   0  0  0  0  0  0  0  0  0  0  0  0
   10.7025    3.0055   24.2036 C   0  0  0  0  0  0  0  0  0  0  0  0
    7.6390   -0.2680   18.5410 C   0  0  0  0  0  0  0  0  0  0  0  0
    9.3350   -1.0880   23.5010 C   0  0  0  0  0  0  0  0  0  0  0  0
    9.5523    2.6591   23.4945 C   0  0  0  0  0  0  0  0  0  0  0  0
    5.8300    0.9190   18.6970 C   0  0  0  0  0  0  0  0  0  0  0  0
    6.1790    0.5730   19.9990 C   0  0  0  0  0  0  0  0  0  0  0  0
    9.3070   -3.5340   24.8780 C   0  0  0  0  0  0  0  0  0  0  0  0
   11.3422    4.2179   23.9458 C   0  0  0  0  0  0  0  0  0  0  0  0
    8.4228   -5.1089   26.6141 C   0  0  0  0  0  0  0  0  0  0  0  0
    9.0420    0.3700   21.5280 C   0  0  0  0  0  0  0  0  0  0  0  0
    8.4173   -7.5520   25.9532 C   0  0  0  0  0  0  0  0  0  0  0  0
    8.8584    1.3468   23.7740 C   0  0  0  0  0  0  0  0  0  0  0  0
    8.6900   -6.5411   27.0525 C   0  0  0  0  0  0  0  0  0  0  0  0
    9.4560    0.1560   22.8130 C   0  0  2  0  0  0  0  0  0  0  0  0
    6.7580    0.3810   17.8350 N   0  0  0  0  0  0  0  0  0  0  0  0
    7.3170   -0.1610   19.8550 N   0  0  0  0  0  0  0  0  0  0  0  0
    9.2546   -4.7423   25.5437 N   0  0  0  0  0  0  0  0  0  0  0  0
    8.1890   -0.7180   20.8700 N   0  0  0  0  0  0  0  0  0  0  0  0
    7.5768   -4.4085   27.1603 O   0  0  0  0  0  0  0  0  0  0  0  0
    9.2690    1.4140   20.9380 O   0  0  0  0  0  0  0  0  0  0  0  0
   12.7607    4.6463   24.8211 Cl  0  0  0  0  0  0  0  0  0  0  0  0
    3.0134    2.6521   19.3911 H   0  0  0  0  0  0  0  0  0  0  0  0
    3.6460    2.0127   21.6812 H   0  0  0  0  0  0  0  0  0  0  0  0
    9.2834    5.4119   21.5170 H   0  0  0  0  0  0  0  0  0  0  0  0
    8.1460    3.2636   21.9704 H   0  0  0  0  0  0  0  0  0  0  0  0
    8.9202   -0.1986   25.4206 H   0  0  0  0  0  0  0  0  0  0  0  0
   10.0631   -2.2319   21.8252 H   0  0  0  0  0  0  0  0  0  0  0  0
    4.4037    1.9731   17.4543 H   0  0  0  0  0  0  0  0  0  0  0  0
    5.7084    0.6923   22.1132 H   0  0  0  0  0  0  0  0  0  0  0  0
    8.6898   -2.3534   26.5810 H   0  0  0  0  0  0  0  0  0  0  0  0
    9.9254   -4.3899   22.9914 H   0  0  0  0  0  0  0  0  0  0  0  0
   11.3195    6.0324   22.7676 H   0  0  0  0  0  0  0  0  0  0  0  0
   11.0970    2.3265   24.9561 H   0  0  0  0  0  0  0  0  0  0  0  0
    8.4862   -0.8060   18.1787 H   0  0  0  0  0  0  0  0  0  0  0  0
    7.3765   -7.4970   25.6177 H   0  0  0  0  0  0  0  0  0  0  0  0
    8.6071   -8.5677   26.3138 H   0  0  0  0  0  0  0  0  0  0  0  0
    9.0598   -7.3717   25.0851 H   0  0  0  0  0  0  0  0  0  0  0  0
    8.9548    1.1352   24.8480 H   0  0  0  0  0  0  0  0  0  0  0  0
    7.7793    1.4560   23.6018 H   0  0  0  0  0  0  0  0  0  0  0  0
    9.7367   -6.6182   27.3684 H   0  0  0  0  0  0  0  0  0  0  0  0
    8.0565   -6.7633   27.9189 H   0  0  0  0  0  0  0  0  0  0  0  0
   10.5986    0.4624   22.8633 H   0  0  0  0  0  0  0  0  0  0  0  0
    9.9034   -5.4689   25.2194 H   0  0  0  0  0  0  0  0  0  0  0  0
    8.2749   -1.5586   21.1247 H   0  0  0  0  0  0  0  0  0  0  0  0
  1  2  1  0  0  0  0
  1  7  2  0  0  0  0
  2  8  2  0  0  0  0
  3  4  2  0  0  0  0
  3 11  1  0  0  0  0
  4 15  1  0  0  0  0
  5  9  2  0  0  0  0
  5 14  1  0  0  0  0
  6 10  1  0  0  0  0
  6 14  2  0  0  0  0
  7 16  1  0  0  0  0
  8 17  1  0  0  0  0
  9 18  1  0  0  0  0
 10 18  2  0  0  0  0
 11 19  2  0  0  0  0
 12 15  2  0  0  0  0
 12 19  1  0  0  0  0
 13 26  2  0  0  0  0
 13 27  1  0  0  0  0
 14 25  1  0  0  0  0
 15 23  1  0  0  0  0
 16 17  2  0  0  0  0
 16 26  1  0  0  0  0
 17 27  1  0  0  0  0
 18 28  1  0  0  0  0
 19 32  1  0  0  0  0
 20 24  1  0  0  0  0
 20 28  1  0  0  0  0
 20 30  2  0  0  0  0
 21 25  1  0  0  0  0
 21 29  1  0  0  0  0
 21 31  2  0  0  0  0
 22 24  1  0  0  0  0
 23 25  1  6  0  0  0
 27 29  1  0  0  0  0
  1 33  1  0  0  0  0
  2 34  1  0  0  0  0
  3 35  1  0  0  0  0
  4 36  1  0  0  0  0
  5 37  1  0  0  0  0
  6 38  1  0  0  0  0
  7 39  1  0  0  0  0
  8 40  1  0  0  0  0
  9 41  1  0  0  0  0
 10 42  1  0  0  0  0
 11 43  1  0  0  0  0
 12 44  1  0  0  0  0
 13 45  1  0  0  0  0
 22 46  1  0  0  0  0
 22 47  1  0  0  0  0
 22 48  1  0  0  0  0
 23 49  1  0  0  0  0
 23 50  1  0  0  0  0
 24 51  1  0  0  0  0
 24 52  1  0  0  0  0
 25 53  1  0  0  0  0
 28 54  1  0  0  0  0
 29 55  1  0  0  0  0
M  END
> <clash_score>
0.6426251740901496

> <docking_score>
-5.75475549697876

> <overlap_score>
0.8559086918830872

$$$$
BENZO_203_2
  -OEChem-08232013453D

 55 58  0     1  0  0  0  0  0999 V2000
    3.9160    2.0630   19.5520 C   0  0  0  0  0  0  0  0  0  0  0  0
    4.2750    1.7050   20.8490 C   0  0  0  0  0  0  0  0  0  0  0  0
    9.0720   -1.1280   24.8640 C   0  0  0  0  0  0  0  0  0  0  0  0
    9.7200   -2.2600   22.8630 C   0  0  0  0  0  0  0  0  0  0  0  0
    4.6890    1.6810   18.4640 C   0  0  0  0  0  0  0  0  0  0  0  0
    5.4210    0.9600   21.0930 C   0  0  0  0  0  0  0  0  0  0  0  0
    8.9960   -2.3380   25.5320 C   0  0  0  0  0  0  0  0  0  0  0  0
    9.6730   -3.4710   23.5300 C   0  0  0  0  0  0  0  0  0  0  0  0
   10.8722    2.8605   23.0481 C   0  0  0  0  0  0  0  0  0  0  0  0
    9.0344    3.9253   23.6169 C   0  0  0  0  0  0  0  0  0  0  0  0
    7.6390   -0.2680   18.5410 C   0  0  0  0  0  0  0  0  0  0  0  0
    9.3350   -1.0880   23.5010 C   0  0  0  0  0  0  0  0  0  0  0  0
    9.5523    2.6591   23.4945 C   0  0  0  0  0  0  0  0  0  0  0  0
    5.8300    0.9190   18.6970 C   0  0  0  0  0  0  0  0  0  0  0  0
    6.1790    0.5730   19.9990 C   0  0  0  0  0  0  0  0  0  0  0  0
    9.3070   -3.5340   24.8780 C   0  0  0  0  0  0  0  0  0  0  0  0
    8.4228   -5.1089   26.6141 C   0  0  0  0  0  0  0  0  0  0  0  0
    9.0420    0.3700   21.5280 C   0  0  0  0  0  0  0  0  0  0  0  0
    8.4173   -7.5520   25.9532 C   0  0  0  0  0  0  0  0  0  0  0  0
    9.9673    6.2162   23.2165 C   0  0  0  0  0  0  0  0  0  0  0  0
    8.8584    1.3468   23.7740 C   0  0  0  0  0  0  0  0  0  0  0  0
    8.6900   -6.5411   27.0525 C   0  0  0  0  0  0  0  0  0  0  0  0
    9.4560    0.1560   22.8130 C   0  0  2  0  0  0  0  0  0  0  0  0
   11.1739    4.1528   22.8970 N   0  0  0  0  0  0  0  0  0  0  0  0
    6.7580    0.3810   17.8350 N   0  0  0  0  0  0  0  0  0  0  0  0
   10.0363    4.7750   23.2503 N   0  0  0  0  0  0  0  0  0  0  0  0
    7.3170   -0.1610   19.8550 N   0  0  0  0  0  0  0  0  0  0  0  0
    9.2546   -4.7423   25.5437 N   0  0  0  0  0  0  0  0  0  0  0  0
    8.1890   -0.7180   20.8700 N   0  0  0  0  0  0  0  0  0  0  0  0
    7.5768   -4.4085   27.1603 O   0  0  0  0  0  0  0  0  0  0  0  0
    9.2690    1.4140   20.9380 O   0  0  0  0  0  0  0  0  0  0  0  0
    3.0134    2.6521   19.3911 H   0  0  0  0  0  0  0  0  0  0  0  0
    3.6460    2.0127   21.6812 H   0  0  0  0  0  0  0  0  0  0  0  0
    8.9202   -0.1986   25.4206 H   0  0  0  0  0  0  0  0  0  0  0  0
   10.0631   -2.2319   21.8252 H   0  0  0  0  0  0  0  0  0  0  0  0
    4.4037    1.9731   17.4543 H   0  0  0  0  0  0  0  0  0  0  0  0
    5.7084    0.6923   22.1132 H   0  0  0  0  0  0  0  0  0  0  0  0
    8.6898   -2.3534   26.5810 H   0  0  0  0  0  0  0  0  0  0  0  0
    9.9254   -4.3899   22.9914 H   0  0  0  0  0  0  0  0  0  0  0  0
   11.6282    2.1210   22.8251 H   0  0  0  0  0  0  0  0  0  0  0  0
    8.0619    4.2851   23.9247 H   0  0  0  0  0  0  0  0  0  0  0  0
    8.4862   -0.8060   18.1787 H   0  0  0  0  0  0  0  0  0  0  0  0
    7.3765   -7.4970   25.6177 H   0  0  0  0  0  0  0  0  0  0  0  0
    8.6071   -8.5677   26.3138 H   0  0  0  0  0  0  0  0  0  0  0  0
    9.0598   -7.3717   25.0851 H   0  0  0  0  0  0  0  0  0  0  0  0
   10.2789    6.5919   24.1946 H   0  0  0  0  0  0  0  0  0  0  0  0
   10.6298    6.5942   22.4329 H   0  0  0  0  0  0  0  0  0  0  0  0
    8.9411    6.5238   22.9969 H   0  0  0  0  0  0  0  0  0  0  0  0
    8.9548    1.1352   24.8480 H   0  0  0  0  0  0  0  0  0  0  0  0
    7.7793    1.4560   23.6018 H   0  0  0  0  0  0  0  0  0  0  0  0
    9.7367   -6.6182   27.3684 H   0  0  0  0  0  0  0  0  0  0  0  0
    8.0565   -6.7633   27.9189 H   0  0  0  0  0  0  0  0  0  0  0  0
   10.5986    0.4624   22.8633 H   0  0  0  0  0  0  0  0  0  0  0  0
    9.9034   -5.4689   25.2194 H   0  0  0  0  0  0  0  0  0  0  0  0
    8.2749   -1.5586   21.1247 H   0  0  0  0  0  0  0  0  0  0  0  0
  1  2  1  0  0  0  0
  1  5  2  0  0  0  0
  2  6  2  0  0  0  0
  3  7  2  0  0  0  0
  3 12  1  0  0  0  0
  4  8  1  0  0  0  0
  4 12  2  0  0  0  0
  5 14  1  0  0  0  0
  6 15  1  0  0  0  0
  7 16  1  0  0  0  0
  8 16  2  0  0  0  0
  9 13  1  0  0  0  0
  9 24  2  0  0  0  0
 10 13  2  0  0  0  0
 10 26  1  0  0  0  0
 11 25  2  0  0  0  0
 11 27  1  0  0  0  0
 12 23  1  0  0  0  0
 13 21  1  0  0  0  0
 14 15  2  0  0  0  0
 14 25  1  0  0  0  0
 15 27  1  0  0  0  0
 16 28  1  0  0  0  0
 17 22  1  0  0  0  0
 17 28  1  0  0  0  0
 17 30  2  0  0  0  0
 18 23  1  0  0  0  0
 18 29  1  0  0  0  0
 18 31  2  0  0  0  0
 19 22  1  0  0  0  0
 20 26  1  0  0  0  0
 21 23  1  6  0  0  0
 24 26  1  0  0  0  0
 27 29  1  0  0  0  0
  1 32  1  0  0  0  0
  2 33  1  0  0  0  0
  3 34  1  0  0  0  0
  4 35  1  0  0  0  0
  5 36  1  0  0  0  0
  6 37  1  0  0  0  0
  7 38  1  0  0  0  0
  8 39  1  0  0  0  0
  9 40  1  0  0  0  0
 10 41  1  0  0  0  0
 11 42  1  0  0  0  0
 19 43  1  0  0  0  0
 19 44  1  0  0  0  0
 19 45  1  0  0  0  0
 20 46  1  0  0  0  0
 20 47  1  0  0  0  0
 20 48  1  0  0  0  0
 21 49  1  0  0  0  0
 21 50  1  0  0  0  0
 22 51  1  0  0  0  0
 22 52  1  0  0  0  0
 23 53  1  0  0  0  0
 28 54  1  0  0  0  0
 29 55  1  0  0  0  0
M  END
> <clash_score>
0.6426251740901496

> <docking_score>
-8.000778198242188

> <overlap_score>
0.8653103113174438

$$$$
BENZO_205_1
  -OEChem-08232013453D

 60 64  0     1  0  0  0  0  0999 V2000
   10.8376    5.0659   22.8578 C   0  0  0  0  0  0  0  0  0  0  0  0
   11.3489    4.2229   23.8444 C   0  0  0  0  0  0  0  0  0  0  0  0
    9.6822    4.7067   22.1636 C   0  0  0  0  0  0  0  0  0  0  0  0
    3.9160    2.0630   19.5520 C   0  0  0  0  0  0  0  0  0  0  0  0
    4.2750    1.7050   20.8490 C   0  0  0  0  0  0  0  0  0  0  0  0
   10.7049    3.0206   24.1368 C   0  0  0  0  0  0  0  0  0  0  0  0
    9.0382    3.5045   22.4561 C   0  0  0  0  0  0  0  0  0  0  0  0
    9.0720   -1.1280   24.8640 C   0  0  0  0  0  0  0  0  0  0  0  0
    9.7200   -2.2600   22.8630 C   0  0  0  0  0  0  0  0  0  0  0  0
    4.6890    1.6810   18.4640 C   0  0  0  0  0  0  0  0  0  0  0  0
    5.4210    0.9600   21.0930 C   0  0  0  0  0  0  0  0  0  0  0  0
    8.9960   -2.3380   25.5320 C   0  0  0  0  0  0  0  0  0  0  0  0
    9.6730   -3.4710   23.5300 C   0  0  0  0  0  0  0  0  0  0  0  0
    7.6390   -0.2680   18.5410 C   0  0  0  0  0  0  0  0  0  0  0  0
    9.5496    2.6614   23.4427 C   0  0  0  0  0  0  0  0  0  0  0  0
    9.3350   -1.0880   23.5010 C   0  0  0  0  0  0  0  0  0  0  0  0
    5.8300    0.9190   18.6970 C   0  0  0  0  0  0  0  0  0  0  0  0
    6.1790    0.5730   19.9990 C   0  0  0  0  0  0  0  0  0  0  0  0
    9.3070   -3.5340   24.8780 C   0  0  0  0  0  0  0  0  0  0  0  0
    9.0420    0.3700   21.5280 C   0  0  0  0  0  0  0  0  0  0  0  0
    7.2237   -6.6201   26.3005 C   0  0  0  0  0  0  0  0  0  0  0  0
    7.4295   -5.3104   27.0650 C   0  0  0  0  0  0  0  0  0  0  0  0
    7.7218   -6.5099   24.8576 C   0  0  0  0  0  0  0  0  0  0  0  0
    8.8783   -4.8360   26.9547 C   0  0  0  0  0  0  0  0  0  0  0  0
    9.1653   -6.0007   24.7991 C   0  0  0  0  0  0  0  0  0  0  0  0
    8.8518    1.3594   23.7587 C   0  0  0  0  0  0  0  0  0  0  0  0
    9.4560    0.1560   22.8130 C   0  0  1  0  0  0  0  0  0  0  0  0
    6.7580    0.3810   17.8350 N   0  0  0  0  0  0  0  0  0  0  0  0
    7.3170   -0.1610   19.8550 N   0  0  0  0  0  0  0  0  0  0  0  0
    9.2563   -4.7385   25.5420 N   0  0  0  0  0  0  0  0  0  0  0  0
    8.1890   -0.7180   20.8700 N   0  0  0  0  0  0  0  0  0  0  0  0
    9.2690    1.4140   20.9380 O   0  0  0  0  0  0  0  0  0  0  0  0
   11.3383    6.0026   22.6311 H   0  0  0  0  0  0  0  0  0  0  0  0
   12.2479    4.5029   24.3857 H   0  0  0  0  0  0  0  0  0  0  0  0
    9.2832    5.3633   21.3962 H   0  0  0  0  0  0  0  0  0  0  0  0
    3.0134    2.6521   19.3911 H   0  0  0  0  0  0  0  0  0  0  0  0
    3.6460    2.0128   21.6812 H   0  0  0  0  0  0  0  0  0  0  0  0
   11.1107    2.3699   24.9070 H   0  0  0  0  0  0  0  0  0  0  0  0
    8.1387    3.2328   21.9100 H   0  0  0  0  0  0  0  0  0  0  0  0
    8.9214   -0.1986   25.4206 H   0  0  0  0  0  0  0  0  0  0  0  0
   10.0622   -2.2326   21.8251 H   0  0  0  0  0  0  0  0  0  0  0  0
    4.4037    1.9731   17.4543 H   0  0  0  0  0  0  0  0  0  0  0  0
    5.7084    0.6923   22.1132 H   0  0  0  0  0  0  0  0  0  0  0  0
    8.6882   -2.3542   26.5803 H   0  0  0  0  0  0  0  0  0  0  0  0
    9.9258   -4.3896   22.9914 H   0  0  0  0  0  0  0  0  0  0  0  0
    8.4862   -0.8060   18.1787 H   0  0  0  0  0  0  0  0  0  0  0  0
    7.7561   -7.4351   26.8143 H   0  0  0  0  0  0  0  0  0  0  0  0
    6.1574   -6.8886   26.3051 H   0  0  0  0  0  0  0  0  0  0  0  0
    6.7603   -4.5438   26.6651 H   0  0  0  0  0  0  0  0  0  0  0  0
    7.1686   -5.4557   28.1153 H   0  0  0  0  0  0  0  0  0  0  0  0
    7.6596   -7.4899   24.3731 H   0  0  0  0  0  0  0  0  0  0  0  0
    7.0707   -5.8316   24.2940 H   0  0  0  0  0  0  0  0  0  0  0  0
    8.9682   -3.8625   27.4435 H   0  0  0  0  0  0  0  0  0  0  0  0
    9.5389   -5.5394   27.4694 H   0  0  0  0  0  0  0  0  0  0  0  0
    9.8375   -6.7414   25.2339 H   0  0  0  0  0  0  0  0  0  0  0  0
    9.4414   -5.8513   23.7549 H   0  0  0  0  0  0  0  0  0  0  0  0
    8.9481    1.1774   24.8382 H   0  0  0  0  0  0  0  0  0  0  0  0
    7.7730    1.4670   23.5839 H   0  0  0  0  0  0  0  0  0  0  0  0
   10.5990    0.4745   22.8590 H   0  0  0  0  0  0  0  0  0  0  0  0
    8.2487   -1.5564   21.0972 H   0  0  0  0  0  0  0  0  0  0  0  0
  1  2  1  0  0  0  0
  1  3  2  0  0  0  0
  2  6  2  0  0  0  0
  3  7  1  0  0  0  0
  4  5  1  0  0  0  0
  4 10  2  0  0  0  0
  5 11  2  0  0  0  0
  6 15  1  0  0  0  0
  7 15  2  0  0  0  0
  8 12  2  0  0  0  0
  8 16  1  0  0  0  0
  9 13  1  0  0  0  0
  9 16  2  0  0  0  0
 10 17  1  0  0  0  0
 11 18  1  0  0  0  0
 12 19  1  0  0  0  0
 13 19  2  0  0  0  0
 14 28  2  0  0  0  0
 14 29  1  0  0  0  0
 15 26  1  0  0  0  0
 16 27  1  0  0  0  0
 17 18  2  0  0  0  0
 17 28  1  0  0  0  0
 18 29  1  0  0  0  0
 19 30  1  0  0  0  0
 20 27  1  1  0  0  0
 20 31  1  0  0  0  0
 20 32  2  0  0  0  0
 21 22  1  0  0  0  0
 21 23  1  0  0  0  0
 22 24  1  0  0  0  0
 23 25  1  0  0  0  0
 24 30  1  0  0  0  0
 25 30  1  0  0  0  0
 26 27  1  0  0  0  0
 29 31  1  0  0  0  0
  1 33  1  0  0  0  0
  2 34  1  0  0  0  0
  3 35  1  0  0  0  0
  4 36  1  0  0  0  0
  5 37  1  0  0  0  0
  6 38  1  0  0  0  0
  7 39  1  0  0  0  0
  8 40  1  0  0  0  0
  9 41  1  0  0  0  0
 10 42  1  0  0  0  0
 11 43  1  0  0  0  0
 12 44  1  0  0  0  0
 13 45  1  0  0  0  0
 14 46  1  0  0  0  0
 21 47  1  0  0  0  0
 21 48  1  0  0  0  0
 22 49  1  0  0  0  0
 22 50  1  0  0  0  0
 23 51  1  0  0  0  0
 23 52  1  0  0  0  0
 24 53  1  0  0  0  0
 24 54  1  0  0  0  0
 25 55  1  0  0  0  0
 25 56  1  0  0  0  0
 26 57  1  0  0  0  0
 26 58  1  0  0  0  0
 27 59  1  0  0  0  0
 31 60  1  0  0  0  0
M  END
> <clash_score>
0.6129039234413879

> <docking_score>
-7.016935348510742

> <overlap_score>
0.8740067481994629

$$$$
BENZO_203_1
  -OEChem-08232013453D

 55 58  0     1  0  0  0  0  0999 V2000
    3.9160    2.0630   19.5520 C   0  0  0  0  0  0  0  0  0  0  0  0
    4.2750    1.7050   20.8490 C   0  0  0  0  0  0  0  0  0  0  0  0
    9.0720   -1.1280   24.8640 C   0  0  0  0  0  0  0  0  0  0  0  0
    9.7200   -2.2600   22.8630 C   0  0  0  0  0  0  0  0  0  0  0  0
    4.6890    1.6810   18.4640 C   0  0  0  0  0  0  0  0  0  0  0  0
    5.4210    0.9600   21.0930 C   0  0  0  0  0  0  0  0  0  0  0  0
    8.9960   -2.3380   25.5320 C   0  0  0  0  0  0  0  0  0  0  0  0
    9.6730   -3.4710   23.5300 C   0  0  0  0  0  0  0  0  0  0  0  0
   10.2850    3.1879   23.3945 C   0  0  0  0  0  0  0  0  0  0  0  0
   12.2874    2.8981   22.5336 C   0  0  0  0  0  0  0  0  0  0  0  0
    7.6390   -0.2680   18.5410 C   0  0  0  0  0  0  0  0  0  0  0  0
    9.3350   -1.0880   23.5010 C   0  0  0  0  0  0  0  0  0  0  0  0
   11.1891    2.1969   22.9675 C   0  0  0  0  0  0  0  0  0  0  0  0
    5.8300    0.9190   18.6970 C   0  0  0  0  0  0  0  0  0  0  0  0
    6.1790    0.5730   19.9990 C   0  0  0  0  0  0  0  0  0  0  0  0
    9.3070   -3.5340   24.8780 C   0  0  0  0  0  0  0  0  0  0  0  0
    8.4228   -5.1089   26.6141 C   0  0  0  0  0  0  0  0  0  0  0  0
    9.0420    0.3700   21.5280 C   0  0  0  0  0  0  0  0  0  0  0  0
    8.4173   -7.5520   25.9532 C   0  0  0  0  0  0  0  0  0  0  0  0
   12.8361    5.3400   22.4104 C   0  0  0  0  0  0  0  0  0  0  0  0
   10.9980    0.6985   22.9845 C   0  0  0  0  0  0  0  0  0  0  0  0
    8.6900   -6.5411   27.0525 C   0  0  0  0  0  0  0  0  0  0  0  0
    9.4560    0.1560   22.8130 C   0  0  1  0  0  0  0  0  0  0  0  0
   10.7672    4.4245   23.2454 N   0  0  0  0  0  0  0  0  0  0  0  0
    6.7580    0.3810   17.8350 N   0  0  0  0  0  0  0  0  0  0  0  0
   11.9863    4.2152   22.7200 N   0  0  0  0  0  0  0  0  0  0  0  0
    7.3170   -0.1610   19.8550 N   0  0  0  0  0  0  0  0  0  0  0  0
    9.2546   -4.7423   25.5437 N   0  0  0  0  0  0  0  0  0  0  0  0
    8.1890   -0.7180   20.8700 N   0  0  0  0  0  0  0  0  0  0  0  0
    7.5768   -4.4085   27.1603 O   0  0  0  0  0  0  0  0  0  0  0  0
    9.2690    1.4140   20.9380 O   0  0  0  0  0  0  0  0  0  0  0  0
    3.0134    2.6521   19.3911 H   0  0  0  0  0  0  0  0  0  0  0  0
    3.6460    2.0127   21.6812 H   0  0  0  0  0  0  0  0  0  0  0  0
    8.9202   -0.1986   25.4206 H   0  0  0  0  0  0  0  0  0  0  0  0
   10.0631   -2.2319   21.8252 H   0  0  0  0  0  0  0  0  0  0  0  0
    4.4037    1.9731   17.4543 H   0  0  0  0  0  0  0  0  0  0  0  0
    5.7084    0.6923   22.1132 H   0  0  0  0  0  0  0  0  0  0  0  0
    8.6898   -2.3534   26.5810 H   0  0  0  0  0  0  0  0  0  0  0  0
    9.9254   -4.3899   22.9914 H   0  0  0  0  0  0  0  0  0  0  0  0
    9.2947    3.0629   23.8092 H   0  0  0  0  0  0  0  0  0  0  0  0
   13.2346    2.5800   22.1195 H   0  0  0  0  0  0  0  0  0  0  0  0
    8.4862   -0.8060   18.1787 H   0  0  0  0  0  0  0  0  0  0  0  0
    7.3765   -7.4970   25.6177 H   0  0  0  0  0  0  0  0  0  0  0  0
    8.6071   -8.5677   26.3138 H   0  0  0  0  0  0  0  0  0  0  0  0
    9.0598   -7.3717   25.0851 H   0  0  0  0  0  0  0  0  0  0  0  0
   12.6295    5.6456   21.3814 H   0  0  0  0  0  0  0  0  0  0  0  0
   12.6226    6.1591   23.1027 H   0  0  0  0  0  0  0  0  0  0  0  0
   13.8829    5.0428   22.5193 H   0  0  0  0  0  0  0  0  0  0  0  0
   11.6403    0.2667   22.2043 H   0  0  0  0  0  0  0  0  0  0  0  0
   11.3821    0.2882   23.9279 H   0  0  0  0  0  0  0  0  0  0  0  0
    9.7367   -6.6182   27.3684 H   0  0  0  0  0  0  0  0  0  0  0  0
    8.0565   -6.7633   27.9189 H   0  0  0  0  0  0  0  0  0  0  0  0
    8.9221    0.9705   23.4866 H   0  0  0  0  0  0  0  0  0  0  0  0
    9.9034   -5.4689   25.2194 H   0  0  0  0  0  0  0  0  0  0  0  0
    8.2749   -1.5586   21.1247 H   0  0  0  0  0  0  0  0  0  0  0  0
  1  2  1  0  0  0  0
  1  5  2  0  0  0  0
  2  6  2  0  0  0  0
  3  7  2  0  0  0  0
  3 12  1  0  0  0  0
  4  8  1  0  0  0  0
  4 12  2  0  0  0  0
  5 14  1  0  0  0  0
  6 15  1  0  0  0  0
  7 16  1  0  0  0  0
  8 16  2  0  0  0  0
  9 13  1  0  0  0  0
  9 24  2  0  0  0  0
 10 13  2  0  0  0  0
 10 26  1  0  0  0  0
 11 25  2  0  0  0  0
 11 27  1  0  0  0  0
 12 23  1  0  0  0  0
 13 21  1  0  0  0  0
 14 15  2  0  0  0  0
 14 25  1  0  0  0  0
 15 27  1  0  0  0  0
 16 28  1  0  0  0  0
 17 22  1  0  0  0  0
 17 28  1  0  0  0  0
 17 30  2  0  0  0  0
 18 23  1  0  0  0  0
 18 29  1  0  0  0  0
 18 31  2  0  0  0  0
 19 22  1  0  0  0  0
 20 26  1  0  0  0  0
 21 23  1  1  0  0  0
 24 26  1  0  0  0  0
 27 29  1  0  0  0  0
  1 32  1  0  0  0  0
  2 33  1  0  0  0  0
  3 34  1  0  0  0  0
  4 35  1  0  0  0  0
  5 36  1  0  0  0  0
  6 37  1  0  0  0  0
  7 38  1  0  0  0  0
  8 39  1  0  0  0  0
  9 40  1  0  0  0  0
 10 41  1  0  0  0  0
 11 42  1  0  0  0  0
 19 43  1  0  0  0  0
 19 44  1  0  0  0  0
 19 45  1  0  0  0  0
 20 46  1  0  0  0  0
 20 47  1  0  0  0  0
 20 48  1  0  0  0  0
 21 49  1  0  0  0  0
 21 50  1  0  0  0  0
 22 51  1  0  0  0  0
 22 52  1  0  0  0  0
 23 53  1  0  0  0  0
 28 54  1  0  0  0  0
 29 55  1  0  0  0  0
M  END
> <clash_score>
0.6426251740901496

> <docking_score>
-9.180740356445312

> <overlap_score>
0.9266833066940308

$$$$
BENZO_202_1
  -OEChem-08232013453D

 55 58  0     1  0  0  0  0  0999 V2000
    3.9160    2.0630   19.5520 C   0  0  0  0  0  0  0  0  0  0  0  0
    4.2750    1.7050   20.8490 C   0  0  0  0  0  0  0  0  0  0  0  0
   10.3511    4.4175   23.4183 C   0  0  0  0  0  0  0  0  0  0  0  0
   10.1749    3.0340   23.4326 C   0  0  0  0  0  0  0  0  0  0  0  0
    9.0720   -1.1280   24.8640 C   0  0  0  0  0  0  0  0  0  0  0  0
    9.7200   -2.2600   22.8630 C   0  0  0  0  0  0  0  0  0  0  0  0
    4.6890    1.6810   18.4640 C   0  0  0  0  0  0  0  0  0  0  0  0
    5.4210    0.9600   21.0930 C   0  0  0  0  0  0  0  0  0  0  0  0
    8.9960   -2.3380   25.5320 C   0  0  0  0  0  0  0  0  0  0  0  0
    9.6730   -3.4710   23.5300 C   0  0  0  0  0  0  0  0  0  0  0  0
   11.5416    4.9641   22.9388 C   0  0  0  0  0  0  0  0  0  0  0  0
   12.3796    2.7434   22.4881 C   0  0  0  0  0  0  0  0  0  0  0  0
    7.6390   -0.2680   18.5410 C   0  0  0  0  0  0  0  0  0  0  0  0
    9.3350   -1.0880   23.5010 C   0  0  0  0  0  0  0  0  0  0  0  0
   11.1891    2.1969   22.9675 C   0  0  0  0  0  0  0  0  0  0  0  0
    5.8300    0.9190   18.6970 C   0  0  0  0  0  0  0  0  0  0  0  0
    6.1790    0.5730   19.9990 C   0  0  0  0  0  0  0  0  0  0  0  0
    9.3070   -3.5340   24.8780 C   0  0  0  0  0  0  0  0  0  0  0  0
   12.5558    4.1270   22.4738 C   0  0  0  0  0  0  0  0  0  0  0  0
    8.4228   -5.1089   26.6141 C   0  0  0  0  0  0  0  0  0  0  0  0
    9.0420    0.3700   21.5280 C   0  0  0  0  0  0  0  0  0  0  0  0
    8.4173   -7.5520   25.9532 C   0  0  0  0  0  0  0  0  0  0  0  0
   10.9980    0.6985   22.9845 C   0  0  0  0  0  0  0  0  0  0  0  0
    8.6900   -6.5411   27.0525 C   0  0  0  0  0  0  0  0  0  0  0  0
    9.4560    0.1560   22.8130 C   0  0  1  0  0  0  0  0  0  0  0  0
    6.7580    0.3810   17.8350 N   0  0  0  0  0  0  0  0  0  0  0  0
    7.3170   -0.1610   19.8550 N   0  0  0  0  0  0  0  0  0  0  0  0
    9.2546   -4.7423   25.5437 N   0  0  0  0  0  0  0  0  0  0  0  0
    8.1890   -0.7180   20.8700 N   0  0  0  0  0  0  0  0  0  0  0  0
    7.5768   -4.4085   27.1603 O   0  0  0  0  0  0  0  0  0  0  0  0
    9.2690    1.4140   20.9380 O   0  0  0  0  0  0  0  0  0  0  0  0
   14.0247    4.8018   21.8834 Cl  0  0  0  0  0  0  0  0  0  0  0  0
    3.0134    2.6521   19.3911 H   0  0  0  0  0  0  0  0  0  0  0  0
    3.6460    2.0127   21.6812 H   0  0  0  0  0  0  0  0  0  0  0  0
    9.5612    5.0691   23.7807 H   0  0  0  0  0  0  0  0  0  0  0  0
    9.2441    2.6169   23.8081 H   0  0  0  0  0  0  0  0  0  0  0  0
    8.9202   -0.1986   25.4206 H   0  0  0  0  0  0  0  0  0  0  0  0
   10.0631   -2.2319   21.8252 H   0  0  0  0  0  0  0  0  0  0  0  0
    4.4037    1.9731   17.4543 H   0  0  0  0  0  0  0  0  0  0  0  0
    5.7084    0.6923   22.1132 H   0  0  0  0  0  0  0  0  0  0  0  0
    8.6898   -2.3534   26.5810 H   0  0  0  0  0  0  0  0  0  0  0  0
    9.9254   -4.3899   22.9914 H   0  0  0  0  0  0  0  0  0  0  0  0
   11.6652    6.0443   22.9339 H   0  0  0  0  0  0  0  0  0  0  0  0
   13.1671    2.0865   22.1261 H   0  0  0  0  0  0  0  0  0  0  0  0
    8.4862   -0.8060   18.1787 H   0  0  0  0  0  0  0  0  0  0  0  0
    7.3765   -7.4970   25.6177 H   0  0  0  0  0  0  0  0  0  0  0  0
    8.6071   -8.5677   26.3138 H   0  0  0  0  0  0  0  0  0  0  0  0
    9.0598   -7.3717   25.0851 H   0  0  0  0  0  0  0  0  0  0  0  0
   11.6403    0.2667   22.2043 H   0  0  0  0  0  0  0  0  0  0  0  0
   11.3821    0.2882   23.9279 H   0  0  0  0  0  0  0  0  0  0  0  0
    9.7367   -6.6182   27.3684 H   0  0  0  0  0  0  0  0  0  0  0  0
    8.0565   -6.7633   27.9189 H   0  0  0  0  0  0  0  0  0  0  0  0
    8.9221    0.9705   23.4866 H   0  0  0  0  0  0  0  0  0  0  0  0
    9.9034   -5.4689   25.2194 H   0  0  0  0  0  0  0  0  0  0  0  0
    8.2749   -1.5586   21.1247 H   0  0  0  0  0  0  0  0  0  0  0  0
  1  2  1  0  0  0  0
  1  7  2  0  0  0  0
  2  8  2  0  0  0  0
  3  4  2  0  0  0  0
  3 11  1  0  0  0  0
  4 15  1  0  0  0  0
  5  9  2  0  0  0  0
  5 14  1  0  0  0  0
  6 10  1  0  0  0  0
  6 14  2  0  0  0  0
  7 16  1  0  0  0  0
  8 17  1  0  0  0  0
  9 18  1  0  0  0  0
 10 18  2  0  0  0  0
 11 19  2  0  0  0  0
 12 15  2  0  0  0  0
 12 19  1  0  0  0  0
 13 26  2  0  0  0  0
 13 27  1  0  0  0  0
 14 25  1  0  0  0  0
 15 23  1  0  0  0  0
 16 17  2  0  0  0  0
 16 26  1  0  0  0  0
 17 27  1  0  0  0  0
 18 28  1  0  0  0  0
 19 32  1  0  0  0  0
 20 24  1  0  0  0  0
 20 28  1  0  0  0  0
 20 30  2  0  0  0  0
 21 25  1  0  0  0  0
 21 29  1  0  0  0  0
 21 31  2  0  0  0  0
 22 24  1  0  0  0  0
 23 25  1  1  0  0  0
 27 29  1  0  0  0  0
  1 33  1  0  0  0  0
  2 34  1  0  0  0  0
  3 35  1  0  0  0  0
  4 36  1  0  0  0  0
  5 37  1  0  0  0  0
  6 38  1  0  0  0  0
  7 39  1  0  0  0  0
  8 40  1  0  0  0  0
  9 41  1  0  0  0  0
 10 42  1  0  0  0  0
 11 43  1  0  0  0  0
 12 44  1  0  0  0  0
 13 45  1  0  0  0  0
 22 46  1  0  0  0  0
 22 47  1  0  0  0  0
 22 48  1  0  0  0  0
 23 49  1  0  0  0  0
 23 50  1  0  0  0  0
 24 51  1  0  0  0  0
 24 52  1  0  0  0  0
 25 53  1  0  0  0  0
 28 54  1  0  0  0  0
 29 55  1  0  0  0  0
M  END
> <clash_score>
0.6426251740901496

> <docking_score>
-9.550061225891113

> <overlap_score>
0.9308215975761414

$$$$
BENZO_204_1
  -OEChem-08232013453D

 57 61  0     1  0  0  0  0  0999 V2000
    3.9160    2.0630   19.5520 C   0  0  0  0  0  0  0  0  0  0  0  0
    4.2750    1.7050   20.8490 C   0  0  0  0  0  0  0  0  0  0  0  0
    9.0720   -1.1280   24.8640 C   0  0  0  0  0  0  0  0  0  0  0  0
    9.7200   -2.2600   22.8630 C   0  0  0  0  0  0  0  0  0  0  0  0
    4.6890    1.6810   18.4640 C   0  0  0  0  0  0  0  0  0  0  0  0
    5.4210    0.9600   21.0930 C   0  0  0  0  0  0  0  0  0  0  0  0
    8.9960   -2.3380   25.5320 C   0  0  0  0  0  0  0  0  0  0  0  0
    9.6730   -3.4710   23.5300 C   0  0  0  0  0  0  0  0  0  0  0  0
   10.9259    2.7594   23.0875 C   0  0  0  0  0  0  0  0  0  0  0  0
   11.3079    4.0616   22.8512 C   0  0  0  0  0  0  0  0  0  0  0  0
    8.9320    3.8927   23.4646 C   0  0  0  0  0  0  0  0  0  0  0  0
    7.6390   -0.2680   18.5410 C   0  0  0  0  0  0  0  0  0  0  0  0
    9.3350   -1.0880   23.5010 C   0  0  0  0  0  0  0  0  0  0  0  0
    9.5496    2.6614   23.4427 C   0  0  0  0  0  0  0  0  0  0  0  0
    5.8300    0.9190   18.6970 C   0  0  0  0  0  0  0  0  0  0  0  0
    6.1790    0.5730   19.9990 C   0  0  0  0  0  0  0  0  0  0  0  0
    9.3070   -3.5340   24.8780 C   0  0  0  0  0  0  0  0  0  0  0  0
    9.0420    0.3700   21.5280 C   0  0  0  0  0  0  0  0  0  0  0  0
    7.2237   -6.6201   26.3005 C   0  0  0  0  0  0  0  0  0  0  0  0
    7.4295   -5.3104   27.0650 C   0  0  0  0  0  0  0  0  0  0  0  0
    7.7218   -6.5099   24.8576 C   0  0  0  0  0  0  0  0  0  0  0  0
    8.8783   -4.8360   26.9547 C   0  0  0  0  0  0  0  0  0  0  0  0
    9.1653   -6.0007   24.7991 C   0  0  0  0  0  0  0  0  0  0  0  0
    8.8518    1.3594   23.7587 C   0  0  0  0  0  0  0  0  0  0  0  0
    9.4560    0.1560   22.8130 C   0  0  1  0  0  0  0  0  0  0  0  0
    6.7580    0.3810   17.8350 N   0  0  0  0  0  0  0  0  0  0  0  0
    7.3170   -0.1610   19.8550 N   0  0  0  0  0  0  0  0  0  0  0  0
    9.2563   -4.7385   25.5420 N   0  0  0  0  0  0  0  0  0  0  0  0
    8.1890   -0.7180   20.8700 N   0  0  0  0  0  0  0  0  0  0  0  0
    9.2690    1.4140   20.9380 O   0  0  0  0  0  0  0  0  0  0  0  0
   10.0100    5.1594   23.0577 S   0  0  0  0  0  0  0  0  0  0  0  0
    3.0134    2.6521   19.3911 H   0  0  0  0  0  0  0  0  0  0  0  0
    3.6460    2.0128   21.6812 H   0  0  0  0  0  0  0  0  0  0  0  0
    8.9214   -0.1986   25.4206 H   0  0  0  0  0  0  0  0  0  0  0  0
   10.0622   -2.2326   21.8251 H   0  0  0  0  0  0  0  0  0  0  0  0
    4.4037    1.9731   17.4543 H   0  0  0  0  0  0  0  0  0  0  0  0
    5.7084    0.6923   22.1132 H   0  0  0  0  0  0  0  0  0  0  0  0
    8.6882   -2.3542   26.5803 H   0  0  0  0  0  0  0  0  0  0  0  0
    9.9258   -4.3896   22.9914 H   0  0  0  0  0  0  0  0  0  0  0  0
   11.6051    1.9199   23.0085 H   0  0  0  0  0  0  0  0  0  0  0  0
   12.2871    4.4210   22.5679 H   0  0  0  0  0  0  0  0  0  0  0  0
    7.9002    4.1134   23.7006 H   0  0  0  0  0  0  0  0  0  0  0  0
    8.4862   -0.8060   18.1787 H   0  0  0  0  0  0  0  0  0  0  0  0
    7.7561   -7.4351   26.8143 H   0  0  0  0  0  0  0  0  0  0  0  0
    6.1574   -6.8886   26.3051 H   0  0  0  0  0  0  0  0  0  0  0  0
    6.7603   -4.5438   26.6651 H   0  0  0  0  0  0  0  0  0  0  0  0
    7.1686   -5.4557   28.1153 H   0  0  0  0  0  0  0  0  0  0  0  0
    7.6596   -7.4899   24.3731 H   0  0  0  0  0  0  0  0  0  0  0  0
    7.0707   -5.8316   24.2940 H   0  0  0  0  0  0  0  0  0  0  0  0
    8.9682   -3.8625   27.4435 H   0  0  0  0  0  0  0  0  0  0  0  0
    9.5389   -5.5394   27.4694 H   0  0  0  0  0  0  0  0  0  0  0  0
    9.8375   -6.7414   25.2339 H   0  0  0  0  0  0  0  0  0  0  0  0
    9.4414   -5.8513   23.7549 H   0  0  0  0  0  0  0  0  0  0  0  0
    8.9481    1.1774   24.8382 H   0  0  0  0  0  0  0  0  0  0  0  0
    7.7730    1.4670   23.5839 H   0  0  0  0  0  0  0  0  0  0  0  0
   10.5990    0.4745   22.8590 H   0  0  0  0  0  0  0  0  0  0  0  0
    8.2487   -1.5564   21.0972 H   0  0  0  0  0  0  0  0  0  0  0  0
  1  2  1  0  0  0  0
  1  5  2  0  0  0  0
  2  6  2  0  0  0  0
  3  7  2  0  0  0  0
  3 13  1  0  0  0  0
  4  8  1  0  0  0  0
  4 13  2  0  0  0  0
  5 15  1  0  0  0  0
  6 16  1  0  0  0  0
  7 17  1  0  0  0  0
  8 17  2  0  0  0  0
  9 10  2  0  0  0  0
  9 14  1  0  0  0  0
 10 31  1  0  0  0  0
 11 14  2  0  0  0  0
 11 31  1  0  0  0  0
 12 26  2  0  0  0  0
 12 27  1  0  0  0  0
 13 25  1  0  0  0  0
 14 24  1  0  0  0  0
 15 16  2  0  0  0  0
 15 26  1  0  0  0  0
 16 27  1  0  0  0  0
 17 28  1  0  0  0  0
 18 25  1  1  0  0  0
 18 29  1  0  0  0  0
 18 30  2  0  0  0  0
 19 20  1  0  0  0  0
 19 21  1  0  0  0  0
 20 22  1  0  0  0  0
 21 23  1  0  0  0  0
 22 28  1  0  0  0  0
 23 28  1  0  0  0  0
 24 25  1  0  0  0  0
 27 29  1  0  0  0  0
  1 32  1  0  0  0  0
  2 33  1  0  0  0  0
  3 34  1  0  0  0  0
  4 35  1  0  0  0  0
  5 36  1  0  0  0  0
  6 37  1  0  0  0  0
  7 38  1  0  0  0  0
  8 39  1  0  0  0  0
  9 40  1  0  0  0  0
 10 41  1  0  0  0  0
 11 42  1  0  0  0  0
 12 43  1  0  0  0  0
 19 44  1  0  0  0  0
 19 45  1  0  0  0  0
 20 46  1  0  0  0  0
 20 47  1  0  0  0  0
 21 48  1  0  0  0  0
 21 49  1  0  0  0  0
 22 50  1  0  0  0  0
 22 51  1  0  0  0  0
 23 52  1  0  0  0  0
 23 53  1  0  0  0  0
 24 54  1  0  0  0  0
 24 55  1  0  0  0  0
 25 56  1  0  0  0  0
 29 57  1  0  0  0  0
M  END
> <clash_score>
0

> <docking_score>
-8.057723999023438

> <overlap_score>
0.8882747292518616

$$$$
BENZO_205_2
  -OEChem-08232013453D

 60 64  0     1  0  0  0  0  0999 V2000
   11.5046    4.9795   22.8735 C   0  0  0  0  0  0  0  0  0  0  0  0
   12.5260    4.1452   22.4195 C   0  0  0  0  0  0  0  0  0  0  0  0
   10.3193    4.4290   23.3612 C   0  0  0  0  0  0  0  0  0  0  0  0
    3.9160    2.0630   19.5520 C   0  0  0  0  0  0  0  0  0  0  0  0
    4.2750    1.7050   20.8490 C   0  0  0  0  0  0  0  0  0  0  0  0
   12.3622    2.7604   22.4530 C   0  0  0  0  0  0  0  0  0  0  0  0
   10.1555    3.0442   23.3947 C   0  0  0  0  0  0  0  0  0  0  0  0
    9.0720   -1.1280   24.8640 C   0  0  0  0  0  0  0  0  0  0  0  0
    9.7200   -2.2600   22.8630 C   0  0  0  0  0  0  0  0  0  0  0  0
    4.6890    1.6810   18.4640 C   0  0  0  0  0  0  0  0  0  0  0  0
    5.4210    0.9600   21.0930 C   0  0  0  0  0  0  0  0  0  0  0  0
    8.9960   -2.3380   25.5320 C   0  0  0  0  0  0  0  0  0  0  0  0
    9.6730   -3.4710   23.5300 C   0  0  0  0  0  0  0  0  0  0  0  0
    7.6390   -0.2680   18.5410 C   0  0  0  0  0  0  0  0  0  0  0  0
   11.1769    2.2099   22.9406 C   0  0  0  0  0  0  0  0  0  0  0  0
    9.3350   -1.0880   23.5010 C   0  0  0  0  0  0  0  0  0  0  0  0
    5.8300    0.9190   18.6970 C   0  0  0  0  0  0  0  0  0  0  0  0
    6.1790    0.5730   19.9990 C   0  0  0  0  0  0  0  0  0  0  0  0
    9.3070   -3.5340   24.8780 C   0  0  0  0  0  0  0  0  0  0  0  0
    9.0420    0.3700   21.5280 C   0  0  0  0  0  0  0  0  0  0  0  0
    7.3637   -6.1365   27.1885 C   0  0  0  0  0  0  0  0  0  0  0  0
    8.1962   -4.9739   27.7340 C   0  0  0  0  0  0  0  0  0  0  0  0
    7.1943   -6.0395   25.6706 C   0  0  0  0  0  0  0  0  0  0  0  0
    9.5197   -4.8493   26.9795 C   0  0  0  0  0  0  0  0  0  0  0  0
    8.5443   -5.8838   24.9636 C   0  0  0  0  0  0  0  0  0  0  0  0
   10.9988    0.7103   22.9770 C   0  0  0  0  0  0  0  0  0  0  0  0
    9.4560    0.1560   22.8130 C   0  0  2  0  0  0  0  0  0  0  0  0
    6.7580    0.3810   17.8350 N   0  0  0  0  0  0  0  0  0  0  0  0
    7.3170   -0.1610   19.8550 N   0  0  0  0  0  0  0  0  0  0  0  0
    9.2563   -4.7385   25.5420 N   0  0  0  0  0  0  0  0  0  0  0  0
    8.1890   -0.7180   20.8700 N   0  0  0  0  0  0  0  0  0  0  0  0
    9.2690    1.4140   20.9380 O   0  0  0  0  0  0  0  0  0  0  0  0
   11.6328    6.0578   22.8486 H   0  0  0  0  0  0  0  0  0  0  0  0
   13.4494    4.5737   22.0407 H   0  0  0  0  0  0  0  0  0  0  0  0
    9.5243    5.0783   23.7158 H   0  0  0  0  0  0  0  0  0  0  0  0
    3.0134    2.6521   19.3911 H   0  0  0  0  0  0  0  0  0  0  0  0
    3.6460    2.0127   21.6812 H   0  0  0  0  0  0  0  0  0  0  0  0
   13.1634    2.1181   22.0969 H   0  0  0  0  0  0  0  0  0  0  0  0
    9.2286    2.6243   23.7763 H   0  0  0  0  0  0  0  0  0  0  0  0
    8.9214   -0.1986   25.4206 H   0  0  0  0  0  0  0  0  0  0  0  0
   10.0622   -2.2326   21.8251 H   0  0  0  0  0  0  0  0  0  0  0  0
    4.4037    1.9731   17.4543 H   0  0  0  0  0  0  0  0  0  0  0  0
    5.7084    0.6923   22.1132 H   0  0  0  0  0  0  0  0  0  0  0  0
    8.6882   -2.3542   26.5803 H   0  0  0  0  0  0  0  0  0  0  0  0
    9.9258   -4.3896   22.9914 H   0  0  0  0  0  0  0  0  0  0  0  0
    8.4862   -0.8060   18.1787 H   0  0  0  0  0  0  0  0  0  0  0  0
    7.8484   -7.0905   27.4464 H   0  0  0  0  0  0  0  0  0  0  0  0
    6.3761   -6.1442   27.6721 H   0  0  0  0  0  0  0  0  0  0  0  0
    7.6308   -4.0428   27.6404 H   0  0  0  0  0  0  0  0  0  0  0  0
    8.3917   -5.1316   28.7967 H   0  0  0  0  0  0  0  0  0  0  0  0
    6.6889   -6.9376   25.3006 H   0  0  0  0  0  0  0  0  0  0  0  0
    6.5516   -5.1860   25.4256 H   0  0  0  0  0  0  0  0  0  0  0  0
   10.0494   -3.9643   27.3413 H   0  0  0  0  0  0  0  0  0  0  0  0
   10.1432   -5.7258   27.1775 H   0  0  0  0  0  0  0  0  0  0  0  0
    9.1338   -6.7931   25.0863 H   0  0  0  0  0  0  0  0  0  0  0  0
    8.3657   -5.7262   23.8995 H   0  0  0  0  0  0  0  0  0  0  0  0
   11.6488    0.2736   22.2061 H   0  0  0  0  0  0  0  0  0  0  0  0
   11.3815    0.3162   23.9278 H   0  0  0  0  0  0  0  0  0  0  0  0
    8.9230    0.9815   23.4801 H   0  0  0  0  0  0  0  0  0  0  0  0
    8.2487   -1.5564   21.0972 H   0  0  0  0  0  0  0  0  0  0  0  0
  1  2  1  0  0  0  0
  1  3  2  0  0  0  0
  2  6  2  0  0  0  0
  3  7  1  0  0  0  0
  4  5  1  0  0  0  0
  4 10  2  0  0  0  0
  5 11  2  0  0  0  0
  6 15  1  0  0  0  0
  7 15  2  0  0  0  0
  8 12  2  0  0  0  0
  8 16  1  0  0  0  0
  9 13  1  0  0  0  0
  9 16  2  0  0  0  0
 10 17  1  0  0  0  0
 11 18  1  0  0  0  0
 12 19  1  0  0  0  0
 13 19  2  0  0  0  0
 14 28  2  0  0  0  0
 14 29  1  0  0  0  0
 15 26  1  0  0  0  0
 16 27  1  0  0  0  0
 17 18  2  0  0  0  0
 17 28  1  0  0  0  0
 18 29  1  0  0  0  0
 19 30  1  0  0  0  0
 20 27  1  6  0  0  0
 20 31  1  0  0  0  0
 20 32  2  0  0  0  0
 21 22  1  0  0  0  0
 21 23  1  0  0  0  0
 22 24  1  0  0  0  0
 23 25  1  0  0  0  0
 24 30  1  0  0  0  0
 25 30  1  0  0  0  0
 26 27  1  0  0  0  0
 29 31  1  0  0  0  0
  1 33  1  0  0  0  0
  2 34  1  0  0  0  0
  3 35  1  0  0  0  0
  4 36  1  0  0  0  0
  5 37  1  0  0  0  0
  6 38  1  0  0  0  0
  7 39  1  0  0  0  0
  8 40  1  0  0  0  0
  9 41  1  0  0  0  0
 10 42  1  0  0  0  0
 11 43  1  0  0  0  0
 12 44  1  0  0  0  0
 13 45  1  0  0  0  0
 14 46  1  0  0  0  0
 21 47  1  0  0  0  0
 21 48  1  0  0  0  0
 22 49  1  0  0  0  0
 22 50  1  0  0  0  0
 23 51  1  0  0  0  0
 23 52  1  0  0  0  0
 24 53  1  0  0  0  0
 24 54  1  0  0  0  0
 25 55  1  0  0  0  0
 25 56  1  0  0  0  0
 26 57  1  0  0  0  0
 26 58  1  0  0  0  0
 27 59  1  0  0  0  0
 31 60  1  0  0  0  0
M  END
> <clash_score>
0

> <docking_score>
-9.85401725769043

> <overlap_score>
0.9399406909942627

$$$$
BENZO_204_2
  -OEChem-08232013453D

 57 61  0     1  0  0  0  0  0999 V2000
    3.9160    2.0630   19.5520 C   0  0  0  0  0  0  0  0  0  0  0  0
    4.2750    1.7050   20.8490 C   0  0  0  0  0  0  0  0  0  0  0  0
    9.0720   -1.1280   24.8640 C   0  0  0  0  0  0  0  0  0  0  0  0
    9.7200   -2.2600   22.8630 C   0  0  0  0  0  0  0  0  0  0  0  0
    4.6890    1.6810   18.4640 C   0  0  0  0  0  0  0  0  0  0  0  0
    5.4210    0.9600   21.0930 C   0  0  0  0  0  0  0  0  0  0  0  0
    8.9960   -2.3380   25.5320 C   0  0  0  0  0  0  0  0  0  0  0  0
    9.6730   -3.4710   23.5300 C   0  0  0  0  0  0  0  0  0  0  0  0
   12.0511    2.8846   22.0402 C   0  0  0  0  0  0  0  0  0  0  0  0
   12.0243    4.2502   22.2187 C   0  0  0  0  0  0  0  0  0  0  0  0
   10.5154    3.0857   23.7732 C   0  0  0  0  0  0  0  0  0  0  0  0
    7.6390   -0.2680   18.5410 C   0  0  0  0  0  0  0  0  0  0  0  0
    9.3350   -1.0880   23.5010 C   0  0  0  0  0  0  0  0  0  0  0  0
   11.1769    2.2099   22.9406 C   0  0  0  0  0  0  0  0  0  0  0  0
    5.8300    0.9190   18.6970 C   0  0  0  0  0  0  0  0  0  0  0  0
    6.1790    0.5730   19.9990 C   0  0  0  0  0  0  0  0  0  0  0  0
    9.3070   -3.5340   24.8780 C   0  0  0  0  0  0  0  0  0  0  0  0
    9.0420    0.3700   21.5280 C   0  0  0  0  0  0  0  0  0  0  0  0
    7.3637   -6.1365   27.1885 C   0  0  0  0  0  0  0  0  0  0  0  0
    8.1962   -4.9739   27.7340 C   0  0  0  0  0  0  0  0  0  0  0  0
    7.1943   -6.0395   25.6706 C   0  0  0  0  0  0  0  0  0  0  0  0
    9.5197   -4.8493   26.9795 C   0  0  0  0  0  0  0  0  0  0  0  0
    8.5443   -5.8838   24.9636 C   0  0  0  0  0  0  0  0  0  0  0  0
   10.9988    0.7103   22.9770 C   0  0  0  0  0  0  0  0  0  0  0  0
    9.4560    0.1560   22.8130 C   0  0  2  0  0  0  0  0  0  0  0  0
    6.7580    0.3810   17.8350 N   0  0  0  0  0  0  0  0  0  0  0  0
    7.3170   -0.1610   19.8550 N   0  0  0  0  0  0  0  0  0  0  0  0
    9.2563   -4.7385   25.5420 N   0  0  0  0  0  0  0  0  0  0  0  0
    8.1890   -0.7180   20.8700 N   0  0  0  0  0  0  0  0  0  0  0  0
    9.2690    1.4140   20.9380 O   0  0  0  0  0  0  0  0  0  0  0  0
   10.9486    4.7140   23.4677 S   0  0  0  0  0  0  0  0  0  0  0  0
    3.0134    2.6521   19.3911 H   0  0  0  0  0  0  0  0  0  0  0  0
    3.6460    2.0127   21.6812 H   0  0  0  0  0  0  0  0  0  0  0  0
    8.9214   -0.1986   25.4206 H   0  0  0  0  0  0  0  0  0  0  0  0
   10.0622   -2.2326   21.8251 H   0  0  0  0  0  0  0  0  0  0  0  0
    4.4037    1.9731   17.4543 H   0  0  0  0  0  0  0  0  0  0  0  0
    5.7084    0.6923   22.1132 H   0  0  0  0  0  0  0  0  0  0  0  0
    8.6882   -2.3542   26.5803 H   0  0  0  0  0  0  0  0  0  0  0  0
    9.9258   -4.3896   22.9914 H   0  0  0  0  0  0  0  0  0  0  0  0
   12.6704    2.3968   21.2980 H   0  0  0  0  0  0  0  0  0  0  0  0
   12.5855    4.9978   21.6759 H   0  0  0  0  0  0  0  0  0  0  0  0
    9.7987    2.8515   24.5482 H   0  0  0  0  0  0  0  0  0  0  0  0
    8.4862   -0.8060   18.1787 H   0  0  0  0  0  0  0  0  0  0  0  0
    7.8484   -7.0905   27.4464 H   0  0  0  0  0  0  0  0  0  0  0  0
    6.3761   -6.1442   27.6721 H   0  0  0  0  0  0  0  0  0  0  0  0
    7.6308   -4.0428   27.6404 H   0  0  0  0  0  0  0  0  0  0  0  0
    8.3917   -5.1316   28.7967 H   0  0  0  0  0  0  0  0  0  0  0  0
    6.6889   -6.9376   25.3006 H   0  0  0  0  0  0  0  0  0  0  0  0
    6.5516   -5.1860   25.4256 H   0  0  0  0  0  0  0  0  0  0  0  0
   10.0494   -3.9643   27.3413 H   0  0  0  0  0  0  0  0  0  0  0  0
   10.1432   -5.7258   27.1775 H   0  0  0  0  0  0  0  0  0  0  0  0
    9.1338   -6.7931   25.0863 H   0  0  0  0  0  0  0  0  0  0  0  0
    8.3657   -5.7262   23.8995 H   0  0  0  0  0  0  0  0  0  0  0  0
   11.6488    0.2736   22.2061 H   0  0  0  0  0  0  0  0  0  0  0  0
   11.3815    0.3162   23.9278 H   0  0  0  0  0  0  0  0  0  0  0  0
    8.9230    0.9815   23.4801 H   0  0  0  0  0  0  0  0  0  0  0  0
    8.2487   -1.5564   21.0972 H   0  0  0  0  0  0  0  0  0  0  0  0
  1  2  1  0  0  0  0
  1  5  2  0  0  0  0
  2  6  2  0  0  0  0
  3  7  2  0  0  0  0
  3 13  1  0  0  0  0
  4  8  1  0  0  0  0
  4 13  2  0  0  0  0
  5 15  1  0  0  0  0
  6 16  1  0  0  0  0
  7 17  1  0  0  0  0
  8 17  2  0  0  0  0
  9 10  2  0  0  0  0
  9 14  1  0  0  0  0
 10 31  1  0  0  0  0
 11 14  2  0  0  0  0
 11 31  1  0  0  0  0
 12 26  2  0  0  0  0
 12 27  1  0  0  0  0
 13 25  1  0  0  0  0
 14 24  1  0  0  0  0
 15 16  2  0  0  0  0
 15 26  1  0  0  0  0
 16 27  1  0  0  0  0
 17 28  1  0  0  0  0
 18 25  1  6  0  0  0
 18 29  1  0  0  0  0
 18 30  2  0  0  0  0
 19 20  1  0  0  0  0
 19 21  1  0  0  0  0
 20 22  1  0  0  0  0
 21 23  1  0  0  0  0
 22 28  1  0  0  0  0
 23 28  1  0  0  0  0
 24 25  1  0  0  0  0
 27 29  1  0  0  0  0
  1 32  1  0  0  0  0
  2 33  1  0  0  0  0
  3 34  1  0  0  0  0
  4 35  1  0  0  0  0
  5 36  1  0  0  0  0
  6 37  1  0  0  0  0
  7 38  1  0  0  0  0
  8 39  1  0  0  0  0
  9 40  1  0  0  0  0
 10 41  1  0  0  0  0
 11 42  1  0  0  0  0
 12 43  1  0  0  0  0
 19 44  1  0  0  0  0
 19 45  1  0  0  0  0
 20 46  1  0  0  0  0
 20 47  1  0  0  0  0
 21 48  1  0  0  0  0
 21 49  1  0  0  0  0
 22 50  1  0  0  0  0
 22 51  1  0  0  0  0
 23 52  1  0  0  0  0
 23 53  1  0  0  0  0
 24 54  1  0  0  0  0
 24 55  1  0  0  0  0
 25 56  1  0  0  0  0
 29 57  1  0  0  0  0
M  END
> <clash_score>
0

> <docking_score>
-9.207326889038086

> <overlap_score>
0.9290028214454651

$$$$
BENZO_209_1
  -OEChem-08232013453D

 48 51  0     1  0  0  0  0  0999 V2000
   11.5406    4.9642   22.9363 C   0  0  0  0  0  0  0  0  0  0  0  0
   12.5552    4.1270   22.4723 C   0  0  0  0  0  0  0  0  0  0  0  0
   10.3502    4.4177   23.4160 C   0  0  0  0  0  0  0  0  0  0  0  0
    3.9160    2.0630   19.5520 C   0  0  0  0  0  0  0  0  0  0  0  0
    4.2750    1.7050   20.8490 C   0  0  0  0  0  0  0  0  0  0  0  0
   12.3795    2.7434   22.4879 C   0  0  0  0  0  0  0  0  0  0  0  0
   10.1745    3.0341   23.4316 C   0  0  0  0  0  0  0  0  0  0  0  0
    8.9960   -2.3380   25.5320 C   0  0  0  0  0  0  0  0  0  0  0  0
    9.6730   -3.4710   23.5300 C   0  0  0  0  0  0  0  0  0  0  0  0
    9.0720   -1.1280   24.8640 C   0  0  0  0  0  0  0  0  0  0  0  0
    9.7200   -2.2600   22.8630 C   0  0  0  0  0  0  0  0  0  0  0  0
    4.6890    1.6810   18.4640 C   0  0  0  0  0  0  0  0  0  0  0  0
    5.4210    0.9600   21.0930 C   0  0  0  0  0  0  0  0  0  0  0  0
    7.6390   -0.2680   18.5410 C   0  0  0  0  0  0  0  0  0  0  0  0
    9.3070   -3.5340   24.8780 C   0  0  0  0  0  0  0  0  0  0  0  0
   11.1891    2.1969   22.9675 C   0  0  0  0  0  0  0  0  0  0  0  0
    9.3350   -1.0880   23.5010 C   0  0  0  0  0  0  0  0  0  0  0  0
    5.8300    0.9190   18.6970 C   0  0  0  0  0  0  0  0  0  0  0  0
    6.1790    0.5730   19.9990 C   0  0  0  0  0  0  0  0  0  0  0  0
    9.0420    0.3700   21.5280 C   0  0  0  0  0  0  0  0  0  0  0  0
    9.2507   -4.8268   25.5895 C   0  0  0  0  0  0  0  0  0  0  0  0
   10.9980    0.6985   22.9845 C   0  0  0  0  0  0  0  0  0  0  0  0
    9.4560    0.1560   22.8130 C   0  0  1  0  0  0  0  0  0  0  0  0
    6.7580    0.3810   17.8350 N   0  0  0  0  0  0  0  0  0  0  0  0
    7.3170   -0.1610   19.8550 N   0  0  0  0  0  0  0  0  0  0  0  0
    8.1890   -0.7180   20.8700 N   0  0  0  0  0  0  0  0  0  0  0  0
    9.2690    1.4140   20.9380 O   0  0  0  0  0  0  0  0  0  0  0  0
   11.6782    6.0415   22.9253 H   0  0  0  0  0  0  0  0  0  0  0  0
   13.4826    4.5523   22.0998 H   0  0  0  0  0  0  0  0  0  0  0  0
    9.5605    5.0692   23.7783 H   0  0  0  0  0  0  0  0  0  0  0  0
    3.0134    2.6521   19.3911 H   0  0  0  0  0  0  0  0  0  0  0  0
    3.6460    2.0127   21.6812 H   0  0  0  0  0  0  0  0  0  0  0  0
   13.1754    2.0988   22.1242 H   0  0  0  0  0  0  0  0  0  0  0  0
    9.2436    2.6172   23.8070 H   0  0  0  0  0  0  0  0  0  0  0  0
    8.6904   -2.3557   26.5808 H   0  0  0  0  0  0  0  0  0  0  0  0
    9.9249   -4.3911   22.9935 H   0  0  0  0  0  0  0  0  0  0  0  0
    8.9209   -0.1987   25.4207 H   0  0  0  0  0  0  0  0  0  0  0  0
   10.0640   -2.2315   21.8255 H   0  0  0  0  0  0  0  0  0  0  0  0
    4.4037    1.9731   17.4543 H   0  0  0  0  0  0  0  0  0  0  0  0
    5.7084    0.6923   22.1132 H   0  0  0  0  0  0  0  0  0  0  0  0
    8.4862   -0.8060   18.1787 H   0  0  0  0  0  0  0  0  0  0  0  0
    8.2506   -5.2684   25.5009 H   0  0  0  0  0  0  0  0  0  0  0  0
    9.9820   -5.5375   25.1832 H   0  0  0  0  0  0  0  0  0  0  0  0
    9.4843   -4.7055   26.6554 H   0  0  0  0  0  0  0  0  0  0  0  0
   11.6403    0.2667   22.2043 H   0  0  0  0  0  0  0  0  0  0  0  0
   11.3821    0.2882   23.9279 H   0  0  0  0  0  0  0  0  0  0  0  0
    8.9221    0.9705   23.4866 H   0  0  0  0  0  0  0  0  0  0  0  0
    8.2749   -1.5586   21.1247 H   0  0  0  0  0  0  0  0  0  0  0  0
  1  2  1  0  0  0  0
  1  3  2  0  0  0  0
  2  6  2  0  0  0  0
  3  7  1  0  0  0  0
  4  5  1  0  0  0  0
  4 12  2  0  0  0  0
  5 13  2  0  0  0  0
  6 16  1  0  0  0  0
  7 16  2  0  0  0  0
  8 10  2  0  0  0  0
  8 15  1  0  0  0  0
  9 11  1  0  0  0  0
  9 15  2  0  0  0  0
 10 17  1  0  0  0  0
 11 17  2  0  0  0  0
 12 18  1  0  0  0  0
 13 19  1  0  0  0  0
 14 24  2  0  0  0  0
 14 25  1  0  0  0  0
 15 21  1  0  0  0  0
 16 22  1  0  0  0  0
 17 23  1  0  0  0  0
 18 19  2  0  0  0  0
 18 24  1  0  0  0  0
 19 25  1  0  0  0  0
 20 23  1  0  0  0  0
 20 26  1  0  0  0  0
 20 27  2  0  0  0  0
 22 23  1  1  0  0  0
 25 26  1  0  0  0  0
  1 28  1  0  0  0  0
  2 29  1  0  0  0  0
  3 30  1  0  0  0  0
  4 31  1  0  0  0  0
  5 32  1  0  0  0  0
  6 33  1  0  0  0  0
  7 34  1  0  0  0  0
  8 35  1  0  0  0  0
  9 36  1  0  0  0  0
 10 37  1  0  0  0  0
 11 38  1  0  0  0  0
 12 39  1  0  0  0  0
 13 40  1  0  0  0  0
 14 41  1  0  0  0  0
 21 42  1  0  0  0  0
 21 43  1  0  0  0  0
 21 44  1  0  0  0  0
 22 45  1  0  0  0  0
 22 46  1  0  0  0  0
 23 47  1  0  0  0  0
 26 48  1  0  0  0  0
M  END
> <clash_score>
0

> <docking_score>
-10.29909610748291

> <overlap_score>
0.8877103328704834

$$$$
BENZO_209_2
  -OEChem-08232013453D

 48 51  0     1  0  0  0  0  0999 V2000
   10.8333    5.0828   22.9771 C   0  0  0  0  0  0  0  0  0  0  0  0
   11.3431    4.2172   23.9447 C   0  0  0  0  0  0  0  0  0  0  0  0
    9.6829    4.7367   22.2682 C   0  0  0  0  0  0  0  0  0  0  0  0
    3.9160    2.0630   19.5520 C   0  0  0  0  0  0  0  0  0  0  0  0
    4.2750    1.7050   20.8490 C   0  0  0  0  0  0  0  0  0  0  0  0
   10.7027    3.0054   24.2034 C   0  0  0  0  0  0  0  0  0  0  0  0
    9.0424    3.5248   22.5269 C   0  0  0  0  0  0  0  0  0  0  0  0
    8.9960   -2.3380   25.5320 C   0  0  0  0  0  0  0  0  0  0  0  0
    9.6730   -3.4710   23.5300 C   0  0  0  0  0  0  0  0  0  0  0  0
    9.0720   -1.1280   24.8640 C   0  0  0  0  0  0  0  0  0  0  0  0
    9.7200   -2.2600   22.8630 C   0  0  0  0  0  0  0  0  0  0  0  0
    4.6890    1.6810   18.4640 C   0  0  0  0  0  0  0  0  0  0  0  0
    5.4210    0.9600   21.0930 C   0  0  0  0  0  0  0  0  0  0  0  0
    7.6390   -0.2680   18.5410 C   0  0  0  0  0  0  0  0  0  0  0  0
    9.3070   -3.5340   24.8780 C   0  0  0  0  0  0  0  0  0  0  0  0
    9.5523    2.6591   23.4945 C   0  0  0  0  0  0  0  0  0  0  0  0
    9.3350   -1.0880   23.5010 C   0  0  0  0  0  0  0  0  0  0  0  0
    5.8300    0.9190   18.6970 C   0  0  0  0  0  0  0  0  0  0  0  0
    6.1790    0.5730   19.9990 C   0  0  0  0  0  0  0  0  0  0  0  0
    9.0420    0.3700   21.5280 C   0  0  0  0  0  0  0  0  0  0  0  0
    9.2507   -4.8268   25.5895 C   0  0  0  0  0  0  0  0  0  0  0  0
    8.8584    1.3468   23.7740 C   0  0  0  0  0  0  0  0  0  0  0  0
    9.4560    0.1560   22.8130 C   0  0  2  0  0  0  0  0  0  0  0  0
    6.7580    0.3810   17.8350 N   0  0  0  0  0  0  0  0  0  0  0  0
    7.3170   -0.1610   19.8550 N   0  0  0  0  0  0  0  0  0  0  0  0
    8.1890   -0.7180   20.8700 N   0  0  0  0  0  0  0  0  0  0  0  0
    9.2690    1.4140   20.9380 O   0  0  0  0  0  0  0  0  0  0  0  0
   11.3313    6.0270   22.7767 H   0  0  0  0  0  0  0  0  0  0  0  0
   12.2382    4.4870   24.4976 H   0  0  0  0  0  0  0  0  0  0  0  0
    9.2850    5.4109   21.5155 H   0  0  0  0  0  0  0  0  0  0  0  0
    3.0134    2.6521   19.3911 H   0  0  0  0  0  0  0  0  0  0  0  0
    3.6460    2.0127   21.6812 H   0  0  0  0  0  0  0  0  0  0  0  0
   11.1072    2.3370   24.9590 H   0  0  0  0  0  0  0  0  0  0  0  0
    8.1468    3.2634   21.9695 H   0  0  0  0  0  0  0  0  0  0  0  0
    8.6904   -2.3557   26.5808 H   0  0  0  0  0  0  0  0  0  0  0  0
    9.9249   -4.3911   22.9935 H   0  0  0  0  0  0  0  0  0  0  0  0
    8.9209   -0.1987   25.4207 H   0  0  0  0  0  0  0  0  0  0  0  0
   10.0640   -2.2315   21.8255 H   0  0  0  0  0  0  0  0  0  0  0  0
    4.4037    1.9731   17.4543 H   0  0  0  0  0  0  0  0  0  0  0  0
    5.7084    0.6923   22.1132 H   0  0  0  0  0  0  0  0  0  0  0  0
    8.4862   -0.8060   18.1787 H   0  0  0  0  0  0  0  0  0  0  0  0
    8.2506   -5.2684   25.5009 H   0  0  0  0  0  0  0  0  0  0  0  0
    9.9820   -5.5375   25.1832 H   0  0  0  0  0  0  0  0  0  0  0  0
    9.4843   -4.7055   26.6554 H   0  0  0  0  0  0  0  0  0  0  0  0
    8.9548    1.1352   24.8480 H   0  0  0  0  0  0  0  0  0  0  0  0
    7.7793    1.4560   23.6018 H   0  0  0  0  0  0  0  0  0  0  0  0
   10.5986    0.4624   22.8633 H   0  0  0  0  0  0  0  0  0  0  0  0
    8.2749   -1.5586   21.1247 H   0  0  0  0  0  0  0  0  0  0  0  0
  1  2  1  0  0  0  0
  1  3  2  0  0  0  0
  2  6  2  0  0  0  0
  3  7  1  0  0  0  0
  4  5  1  0  0  0  0
  4 12  2  0  0  0  0
  5 13  2  0  0  0  0
  6 16  1  0  0  0  0
  7 16  2  0  0  0  0
  8 10  2  0  0  0  0
  8 15  1  0  0  0  0
  9 11  1  0  0  0  0
  9 15  2  0  0  0  0
 10 17  1  0  0  0  0
 11 17  2  0  0  0  0
 12 18  1  0  0  0  0
 13 19  1  0  0  0  0
 14 24  2  0  0  0  0
 14 25  1  0  0  0  0
 15 21  1  0  0  0  0
 16 22  1  0  0  0  0
 17 23  1  0  0  0  0
 18 19  2  0  0  0  0
 18 24  1  0  0  0  0
 19 25  1  0  0  0  0
 20 23  1  0  0  0  0
 20 26  1  0  0  0  0
 20 27  2  0  0  0  0
 22 23  1  6  0  0  0
 25 26  1  0  0  0  0
  1 28  1  0  0  0  0
  2 29  1  0  0  0  0
  3 30  1  0  0  0  0
  4 31  1  0  0  0  0
  5 32  1  0  0  0  0
  6 33  1  0  0  0  0
  7 34  1  0  0  0  0
  8 35  1  0  0  0  0
  9 36  1  0  0  0  0
 10 37  1  0  0  0  0
 11 38  1  0  0  0  0
 12 39  1  0  0  0  0
 13 40  1  0  0  0  0
 14 41  1  0  0  0  0
 21 42  1  0  0  0  0
 21 43  1  0  0  0  0
 21 44  1  0  0  0  0
 22 45  1  0  0  0  0
 22 46  1  0  0  0  0
 23 47  1  0  0  0  0
 26 48  1  0  0  0  0
M  END
> <clash_score>
0

> <docking_score>
-7.506239891052246

> <overlap_score>
0.8127630949020386

$$$$
BENZO_206_1
  -OEChem-08232013453D

 60 64  0     1  0  0  0  0  0999 V2000
    3.9160    2.0630   19.5520 C   0  0  0  0  0  0  0  0  0  0  0  0
    4.2750    1.7050   20.8490 C   0  0  0  0  0  0  0  0  0  0  0  0
    9.6807    4.7078   22.1653 C   0  0  0  0  0  0  0  0  0  0  0  0
    9.0376    3.5049   22.4568 C   0  0  0  0  0  0  0  0  0  0  0  0
    9.0720   -1.1280   24.8640 C   0  0  0  0  0  0  0  0  0  0  0  0
    9.7200   -2.2600   22.8630 C   0  0  0  0  0  0  0  0  0  0  0  0
    4.6890    1.6810   18.4640 C   0  0  0  0  0  0  0  0  0  0  0  0
    5.4210    0.9600   21.0930 C   0  0  0  0  0  0  0  0  0  0  0  0
    8.9960   -2.3380   25.5320 C   0  0  0  0  0  0  0  0  0  0  0  0
    9.6730   -3.4710   23.5300 C   0  0  0  0  0  0  0  0  0  0  0  0
   10.8360    5.0671   22.8595 C   0  0  0  0  0  0  0  0  0  0  0  0
   10.7048    3.0207   24.1370 C   0  0  0  0  0  0  0  0  0  0  0  0
    7.6390   -0.2680   18.5410 C   0  0  0  0  0  0  0  0  0  0  0  0
    9.3350   -1.0880   23.5010 C   0  0  0  0  0  0  0  0  0  0  0  0
    9.5496    2.6614   23.4427 C   0  0  0  0  0  0  0  0  0  0  0  0
    5.8300    0.9190   18.6970 C   0  0  0  0  0  0  0  0  0  0  0  0
    6.1790    0.5730   19.9990 C   0  0  0  0  0  0  0  0  0  0  0  0
    9.3070   -3.5340   24.8780 C   0  0  0  0  0  0  0  0  0  0  0  0
   11.3480    4.2236   23.8454 C   0  0  0  0  0  0  0  0  0  0  0  0
    9.0420    0.3700   21.5280 C   0  0  0  0  0  0  0  0  0  0  0  0
    7.2237   -6.6201   26.3005 C   0  0  0  0  0  0  0  0  0  0  0  0
    7.4295   -5.3104   27.0650 C   0  0  0  0  0  0  0  0  0  0  0  0
    7.7218   -6.5099   24.8576 C   0  0  0  0  0  0  0  0  0  0  0  0
    8.8783   -4.8360   26.9547 C   0  0  0  0  0  0  0  0  0  0  0  0
    9.1653   -6.0007   24.7991 C   0  0  0  0  0  0  0  0  0  0  0  0
    8.8518    1.3594   23.7587 C   0  0  0  0  0  0  0  0  0  0  0  0
    9.4560    0.1560   22.8130 C   0  0  1  0  0  0  0  0  0  0  0  0
    6.7580    0.3810   17.8350 N   0  0  0  0  0  0  0  0  0  0  0  0
    7.3170   -0.1610   19.8550 N   0  0  0  0  0  0  0  0  0  0  0  0
    9.2563   -4.7385   25.5420 N   0  0  0  0  0  0  0  0  0  0  0  0
    8.1890   -0.7180   20.8700 N   0  0  0  0  0  0  0  0  0  0  0  0
    9.2690    1.4140   20.9380 O   0  0  0  0  0  0  0  0  0  0  0  0
   12.7727    4.6681   24.7024 Cl  0  0  0  0  0  0  0  0  0  0  0  0
    3.0134    2.6521   19.3911 H   0  0  0  0  0  0  0  0  0  0  0  0
    3.6460    2.0128   21.6812 H   0  0  0  0  0  0  0  0  0  0  0  0
    9.2816    5.3644   21.3976 H   0  0  0  0  0  0  0  0  0  0  0  0
    8.1379    3.2330   21.9109 H   0  0  0  0  0  0  0  0  0  0  0  0
    8.9214   -0.1986   25.4206 H   0  0  0  0  0  0  0  0  0  0  0  0
   10.0622   -2.2326   21.8251 H   0  0  0  0  0  0  0  0  0  0  0  0
    4.4037    1.9731   17.4543 H   0  0  0  0  0  0  0  0  0  0  0  0
    5.7084    0.6923   22.1132 H   0  0  0  0  0  0  0  0  0  0  0  0
    8.6882   -2.3542   26.5803 H   0  0  0  0  0  0  0  0  0  0  0  0
    9.9258   -4.3896   22.9914 H   0  0  0  0  0  0  0  0  0  0  0  0
   11.3266    6.0079   22.6219 H   0  0  0  0  0  0  0  0  0  0  0  0
   11.1003    2.3593   24.9044 H   0  0  0  0  0  0  0  0  0  0  0  0
    8.4862   -0.8060   18.1787 H   0  0  0  0  0  0  0  0  0  0  0  0
    7.7561   -7.4351   26.8143 H   0  0  0  0  0  0  0  0  0  0  0  0
    6.1574   -6.8886   26.3051 H   0  0  0  0  0  0  0  0  0  0  0  0
    6.7603   -4.5438   26.6651 H   0  0  0  0  0  0  0  0  0  0  0  0
    7.1686   -5.4557   28.1153 H   0  0  0  0  0  0  0  0  0  0  0  0
    7.6596   -7.4899   24.3731 H   0  0  0  0  0  0  0  0  0  0  0  0
    7.0707   -5.8316   24.2940 H   0  0  0  0  0  0  0  0  0  0  0  0
    8.9682   -3.8625   27.4435 H   0  0  0  0  0  0  0  0  0  0  0  0
    9.5389   -5.5394   27.4694 H   0  0  0  0  0  0  0  0  0  0  0  0
    9.8375   -6.7414   25.2339 H   0  0  0  0  0  0  0  0  0  0  0  0
    9.4414   -5.8513   23.7549 H   0  0  0  0  0  0  0  0  0  0  0  0
    8.9481    1.1774   24.8382 H   0  0  0  0  0  0  0  0  0  0  0  0
    7.7730    1.4670   23.5839 H   0  0  0  0  0  0  0  0  0  0  0  0
   10.5990    0.4745   22.8590 H   0  0  0  0  0  0  0  0  0  0  0  0
    8.2487   -1.5564   21.0972 H   0  0  0  0  0  0  0  0  0  0  0  0
  1  2  1  0  0  0  0
  1  7  2  0  0  0  0
  2  8  2  0  0  0  0
  3  4  2  0  0  0  0
  3 11  1  0  0  0  0
  4 15  1  0  0  0  0
  5  9  2  0  0  0  0
  5 14  1  0  0  0  0
  6 10  1  0  0  0  0
  6 14  2  0  0  0  0
  7 16  1  0  0  0  0
  8 17  1  0  0  0  0
  9 18  1  0  0  0  0
 10 18  2  0  0  0  0
 11 19  2  0  0  0  0
 12 15  2  0  0  0  0
 12 19  1  0  0  0  0
 13 28  2  0  0  0  0
 13 29  1  0  0  0  0
 14 27  1  0  0  0  0
 15 26  1  0  0  0  0
 16 17  2  0  0  0  0
 16 28  1  0  0  0  0
 17 29  1  0  0  0  0
 18 30  1  0  0  0  0
 19 33  1  0  0  0  0
 20 27  1  1  0  0  0
 20 31  1  0  0  0  0
 20 32  2  0  0  0  0
 21 22  1  0  0  0  0
 21 23  1  0  0  0  0
 22 24  1  0  0  0  0
 23 25  1  0  0  0  0
 24 30  1  0  0  0  0
 25 30  1  0  0  0  0
 26 27  1  0  0  0  0
 29 31  1  0  0  0  0
  1 34  1  0  0  0  0
  2 35  1  0  0  0  0
  3 36  1  0  0  0  0
  4 37  1  0  0  0  0
  5 38  1  0  0  0  0
  6 39  1  0  0  0  0
  7 40  1  0  0  0  0
  8 41  1  0  0  0  0
  9 42  1  0  0  0  0
 10 43  1  0  0  0  0
 11 44  1  0  0  0  0
 12 45  1  0  0  0  0
 13 46  1  0  0  0  0
 21 47  1  0  0  0  0
 21 48  1  0  0  0  0
 22 49  1  0  0  0  0
 22 50  1  0  0  0  0
 23 51  1  0  0  0  0
 23 52  1  0  0  0  0
 24 53  1  0  0  0  0
 24 54  1  0  0  0  0
 25 55  1  0  0  0  0
 25 56  1  0  0  0  0
 26 57  1  0  0  0  0
 26 58  1  0  0  0  0
 27 59  1  0  0  0  0
 31 60  1  0  0  0  0
M  END
> <clash_score>
0.61230358556668

> <docking_score>
-6.330434799194336

> <overlap_score>
0.874560534954071

$$$$
BENZO_208_1
  -OEChem-08232013453D

 45 48  0     1  0  0  0  0  0999 V2000
    3.9160    2.0630   19.5520 C   0  0  0  0  0  0  0  0  0  0  0  0
    4.2750    1.7050   20.8490 C   0  0  0  0  0  0  0  0  0  0  0  0
    8.9960   -2.3380   25.5320 C   0  0  0  0  0  0  0  0  0  0  0  0
    9.6730   -3.4710   23.5300 C   0  0  0  0  0  0  0  0  0  0  0  0
    9.0720   -1.1280   24.8640 C   0  0  0  0  0  0  0  0  0  0  0  0
    9.7200   -2.2600   22.8630 C   0  0  0  0  0  0  0  0  0  0  0  0
    4.6890    1.6810   18.4640 C   0  0  0  0  0  0  0  0  0  0  0  0
    5.4210    0.9600   21.0930 C   0  0  0  0  0  0  0  0  0  0  0  0
   12.0646    2.8761   22.0718 C   0  0  0  0  0  0  0  0  0  0  0  0
   12.0506    4.2394   22.2689 C   0  0  0  0  0  0  0  0  0  0  0  0
   10.5394    3.0670   23.8153 C   0  0  0  0  0  0  0  0  0  0  0  0
    7.6390   -0.2680   18.5410 C   0  0  0  0  0  0  0  0  0  0  0  0
    9.3070   -3.5340   24.8780 C   0  0  0  0  0  0  0  0  0  0  0  0
    9.3350   -1.0880   23.5010 C   0  0  0  0  0  0  0  0  0  0  0  0
   11.1891    2.1969   22.9675 C   0  0  0  0  0  0  0  0  0  0  0  0
    5.8300    0.9190   18.6970 C   0  0  0  0  0  0  0  0  0  0  0  0
    6.1790    0.5730   19.9990 C   0  0  0  0  0  0  0  0  0  0  0  0
    9.0420    0.3700   21.5280 C   0  0  0  0  0  0  0  0  0  0  0  0
    9.2507   -4.8268   25.5895 C   0  0  0  0  0  0  0  0  0  0  0  0
   10.9980    0.6985   22.9845 C   0  0  0  0  0  0  0  0  0  0  0  0
    9.4560    0.1560   22.8130 C   0  0  1  0  0  0  0  0  0  0  0  0
    6.7580    0.3810   17.8350 N   0  0  0  0  0  0  0  0  0  0  0  0
    7.3170   -0.1610   19.8550 N   0  0  0  0  0  0  0  0  0  0  0  0
    8.1890   -0.7180   20.8700 N   0  0  0  0  0  0  0  0  0  0  0  0
    9.2690    1.4140   20.9380 O   0  0  0  0  0  0  0  0  0  0  0  0
   10.9853    4.6955   23.5296 S   0  0  0  0  0  0  0  0  0  0  0  0
    3.0134    2.6521   19.3911 H   0  0  0  0  0  0  0  0  0  0  0  0
    3.6460    2.0127   21.6812 H   0  0  0  0  0  0  0  0  0  0  0  0
    8.6904   -2.3557   26.5808 H   0  0  0  0  0  0  0  0  0  0  0  0
    9.9249   -4.3911   22.9935 H   0  0  0  0  0  0  0  0  0  0  0  0
    8.9209   -0.1987   25.4207 H   0  0  0  0  0  0  0  0  0  0  0  0
   10.0640   -2.2315   21.8255 H   0  0  0  0  0  0  0  0  0  0  0  0
    4.4037    1.9731   17.4543 H   0  0  0  0  0  0  0  0  0  0  0  0
    5.7084    0.6923   22.1132 H   0  0  0  0  0  0  0  0  0  0  0  0
   12.6757    2.3931   21.3198 H   0  0  0  0  0  0  0  0  0  0  0  0
   12.6155    4.9893   21.7334 H   0  0  0  0  0  0  0  0  0  0  0  0
    9.8247    2.8285   24.5908 H   0  0  0  0  0  0  0  0  0  0  0  0
    8.4862   -0.8060   18.1787 H   0  0  0  0  0  0  0  0  0  0  0  0
    8.2506   -5.2684   25.5009 H   0  0  0  0  0  0  0  0  0  0  0  0
    9.9820   -5.5375   25.1832 H   0  0  0  0  0  0  0  0  0  0  0  0
    9.4843   -4.7055   26.6554 H   0  0  0  0  0  0  0  0  0  0  0  0
   11.6403    0.2667   22.2043 H   0  0  0  0  0  0  0  0  0  0  0  0
   11.3821    0.2882   23.9279 H   0  0  0  0  0  0  0  0  0  0  0  0
    8.9221    0.9705   23.4866 H   0  0  0  0  0  0  0  0  0  0  0  0
    8.2749   -1.5586   21.1247 H   0  0  0  0  0  0  0  0  0  0  0  0
  1  2  1  0  0  0  0
  1  7  2  0  0  0  0
  2  8  2  0  0  0  0
  3  5  2  0  0  0  0
  3 13  1  0  0  0  0
  4  6  1  0  0  0  0
  4 13  2  0  0  0  0
  5 14  1  0  0  0  0
  6 14  2  0  0  0  0
  7 16  1  0  0  0  0
  8 17  1  0  0  0  0
  9 10  2  0  0  0  0
  9 15  1  0  0  0  0
 10 26  1  0  0  0  0
 11 15  2  0  0  0  0
 11 26  1  0  0  0  0
 12 22  2  0  0  0  0
 12 23  1  0  0  0  0
 13 19  1  0  0  0  0
 14 21  1  0  0  0  0
 15 20  1  0  0  0  0
 16 17  2  0  0  0  0
 16 22  1  0  0  0  0
 17 23  1  0  0  0  0
 18 21  1  0  0  0  0
 18 24  1  0  0  0  0
 18 25  2  0  0  0  0
 20 21  1  1  0  0  0
 23 24  1  0  0  0  0
  1 27  1  0  0  0  0
  2 28  1  0  0  0  0
  3 29  1  0  0  0  0
  4 30  1  0  0  0  0
  5 31  1  0  0  0  0
  6 32  1  0  0  0  0
  7 33  1  0  0  0  0
  8 34  1  0  0  0  0
  9 35  1  0  0  0  0
 10 36  1  0  0  0  0
 11 37  1  0  0  0  0
 12 38  1  0  0  0  0
 19 39  1  0  0  0  0
 19 40  1  0  0  0  0
 19 41  1  0  0  0  0
 20 42  1  0  0  0  0
 20 43  1  0  0  0  0
 21 44  1  0  0  0  0
 24 45  1  0  0  0  0
M  END
> <clash_score>
0

> <docking_score>
-9.58188533782959

> <overlap_score>
0.8763088583946228

$$$$
BENZO_208_2
  -OEChem-08232013453D

 45 48  0     1  0  0  0  0  0999 V2000
    3.9160    2.0630   19.5520 C   0  0  0  0  0  0  0  0  0  0  0  0
    4.2750    1.7050   20.8490 C   0  0  0  0  0  0  0  0  0  0  0  0
    8.9960   -2.3380   25.5320 C   0  0  0  0  0  0  0  0  0  0  0  0
    9.6730   -3.4710   23.5300 C   0  0  0  0  0  0  0  0  0  0  0  0
    9.0720   -1.1280   24.8640 C   0  0  0  0  0  0  0  0  0  0  0  0
    9.7200   -2.2600   22.8630 C   0  0  0  0  0  0  0  0  0  0  0  0
    4.6890    1.6810   18.4640 C   0  0  0  0  0  0  0  0  0  0  0  0
    5.4210    0.9600   21.0930 C   0  0  0  0  0  0  0  0  0  0  0  0
   10.9285    2.7711   23.1427 C   0  0  0  0  0  0  0  0  0  0  0  0
   11.3066    4.0806   22.9428 C   0  0  0  0  0  0  0  0  0  0  0  0
    8.9310    3.8875   23.5503 C   0  0  0  0  0  0  0  0  0  0  0  0
    7.6390   -0.2680   18.5410 C   0  0  0  0  0  0  0  0  0  0  0  0
    9.3070   -3.5340   24.8780 C   0  0  0  0  0  0  0  0  0  0  0  0
    9.3350   -1.0880   23.5010 C   0  0  0  0  0  0  0  0  0  0  0  0
    9.5523    2.6591   23.4945 C   0  0  0  0  0  0  0  0  0  0  0  0
    5.8300    0.9190   18.6970 C   0  0  0  0  0  0  0  0  0  0  0  0
    6.1790    0.5730   19.9990 C   0  0  0  0  0  0  0  0  0  0  0  0
    9.0420    0.3700   21.5280 C   0  0  0  0  0  0  0  0  0  0  0  0
    9.2507   -4.8268   25.5895 C   0  0  0  0  0  0  0  0  0  0  0  0
    8.8584    1.3468   23.7740 C   0  0  0  0  0  0  0  0  0  0  0  0
    9.4560    0.1560   22.8130 C   0  0  2  0  0  0  0  0  0  0  0  0
    6.7580    0.3810   17.8350 N   0  0  0  0  0  0  0  0  0  0  0  0
    7.3170   -0.1610   19.8550 N   0  0  0  0  0  0  0  0  0  0  0  0
    8.1890   -0.7180   20.8700 N   0  0  0  0  0  0  0  0  0  0  0  0
    9.2690    1.4140   20.9380 O   0  0  0  0  0  0  0  0  0  0  0  0
   10.0053    5.1683   23.1793 S   0  0  0  0  0  0  0  0  0  0  0  0
    3.0134    2.6521   19.3911 H   0  0  0  0  0  0  0  0  0  0  0  0
    3.6460    2.0127   21.6812 H   0  0  0  0  0  0  0  0  0  0  0  0
    8.6904   -2.3557   26.5808 H   0  0  0  0  0  0  0  0  0  0  0  0
    9.9249   -4.3911   22.9935 H   0  0  0  0  0  0  0  0  0  0  0  0
    8.9209   -0.1987   25.4207 H   0  0  0  0  0  0  0  0  0  0  0  0
   10.0640   -2.2315   21.8255 H   0  0  0  0  0  0  0  0  0  0  0  0
    4.4037    1.9731   17.4543 H   0  0  0  0  0  0  0  0  0  0  0  0
    5.7084    0.6923   22.1132 H   0  0  0  0  0  0  0  0  0  0  0  0
   11.6102    1.9362   23.0408 H   0  0  0  0  0  0  0  0  0  0  0  0
   12.2848    4.4506   22.6700 H   0  0  0  0  0  0  0  0  0  0  0  0
    7.8985    4.0985   23.7919 H   0  0  0  0  0  0  0  0  0  0  0  0
    8.4862   -0.8060   18.1787 H   0  0  0  0  0  0  0  0  0  0  0  0
    8.2506   -5.2684   25.5009 H   0  0  0  0  0  0  0  0  0  0  0  0
    9.9820   -5.5375   25.1832 H   0  0  0  0  0  0  0  0  0  0  0  0
    9.4843   -4.7055   26.6554 H   0  0  0  0  0  0  0  0  0  0  0  0
    8.9548    1.1352   24.8480 H   0  0  0  0  0  0  0  0  0  0  0  0
    7.7793    1.4560   23.6018 H   0  0  0  0  0  0  0  0  0  0  0  0
   10.5986    0.4624   22.8633 H   0  0  0  0  0  0  0  0  0  0  0  0
    8.2749   -1.5586   21.1247 H   0  0  0  0  0  0  0  0  0  0  0  0
  1  2  1  0  0  0  0
  1  7  2  0  0  0  0
  2  8  2  0  0  0  0
  3  5  2  0  0  0  0
  3 13  1  0  0  0  0
  4  6  1  0  0  0  0
  4 13  2  0  0  0  0
  5 14  1  0  0  0  0
  6 14  2  0  0  0  0
  7 16  1  0  0  0  0
  8 17  1  0  0  0  0
  9 10  2  0  0  0  0
  9 15  1  0  0  0  0
 10 26  1  0  0  0  0
 11 15  2  0  0  0  0
 11 26  1  0  0  0  0
 12 22  2  0  0  0  0
 12 23  1  0  0  0  0
 13 19  1  0  0  0  0
 14 21  1  0  0  0  0
 15 20  1  0  0  0  0
 16 17  2  0  0  0  0
 16 22  1  0  0  0  0
 17 23  1  0  0  0  0
 18 21  1  0  0  0  0
 18 24  1  0  0  0  0
 18 25  2  0  0  0  0
 20 21  1  6  0  0  0
 23 24  1  0  0  0  0
  1 27  1  0  0  0  0
  2 28  1  0  0  0  0
  3 29  1  0  0  0  0
  4 30  1  0  0  0  0
  5 31  1  0  0  0  0
  6 32  1  0  0  0  0
  7 33  1  0  0  0  0
  8 34  1  0  0  0  0
  9 35  1  0  0  0  0
 10 36  1  0  0  0  0
 11 37  1  0  0  0  0
 12 38  1  0  0  0  0
 19 39  1  0  0  0  0
 19 40  1  0  0  0  0
 19 41  1  0  0  0  0
 20 42  1  0  0  0  0
 20 43  1  0  0  0  0
 21 44  1  0  0  0  0
 24 45  1  0  0  0  0
M  END
> <clash_score>
0

> <docking_score>
-8.71992301940918

> <overlap_score>
0.8278225064277649

$$$$
BENZO_207_2
  -OEChem-08232013453D

 60 64  0     1  0  0  0  0  0999 V2000
    3.9160    2.0630   19.5520 C   0  0  0  0  0  0  0  0  0  0  0  0
    4.2750    1.7050   20.8490 C   0  0  0  0  0  0  0  0  0  0  0  0
    9.0720   -1.1280   24.8640 C   0  0  0  0  0  0  0  0  0  0  0  0
    9.7200   -2.2600   22.8630 C   0  0  0  0  0  0  0  0  0  0  0  0
    4.6890    1.6810   18.4640 C   0  0  0  0  0  0  0  0  0  0  0  0
    5.4210    0.9600   21.0930 C   0  0  0  0  0  0  0  0  0  0  0  0
    8.9960   -2.3380   25.5320 C   0  0  0  0  0  0  0  0  0  0  0  0
    9.6730   -3.4710   23.5300 C   0  0  0  0  0  0  0  0  0  0  0  0
   10.8679    2.8459   22.9847 C   0  0  0  0  0  0  0  0  0  0  0  0
    9.0373    3.9324   23.5357 C   0  0  0  0  0  0  0  0  0  0  0  0
    7.6390   -0.2680   18.5410 C   0  0  0  0  0  0  0  0  0  0  0  0
    9.3350   -1.0880   23.5010 C   0  0  0  0  0  0  0  0  0  0  0  0
    9.5496    2.6614   23.4427 C   0  0  0  0  0  0  0  0  0  0  0  0
    5.8300    0.9190   18.6970 C   0  0  0  0  0  0  0  0  0  0  0  0
    6.1790    0.5730   19.9990 C   0  0  0  0  0  0  0  0  0  0  0  0
    9.3070   -3.5340   24.8780 C   0  0  0  0  0  0  0  0  0  0  0  0
    9.0420    0.3700   21.5280 C   0  0  0  0  0  0  0  0  0  0  0  0
    7.3637   -6.1365   27.1885 C   0  0  0  0  0  0  0  0  0  0  0  0
    8.1962   -4.9739   27.7340 C   0  0  0  0  0  0  0  0  0  0  0  0
    7.1943   -6.0395   25.6706 C   0  0  0  0  0  0  0  0  0  0  0  0
    9.5197   -4.8493   26.9795 C   0  0  0  0  0  0  0  0  0  0  0  0
    8.5443   -5.8838   24.9636 C   0  0  0  0  0  0  0  0  0  0  0  0
    9.9774    6.2085   23.0728 C   0  0  0  0  0  0  0  0  0  0  0  0
    8.8518    1.3594   23.7587 C   0  0  0  0  0  0  0  0  0  0  0  0
    9.4560    0.1560   22.8130 C   0  0  2  0  0  0  0  0  0  0  0  0
   11.1740    4.1328   22.7995 N   0  0  0  0  0  0  0  0  0  0  0  0
    6.7580    0.3810   17.8350 N   0  0  0  0  0  0  0  0  0  0  0  0
   10.0408    4.7684   23.1427 N   0  0  0  0  0  0  0  0  0  0  0  0
    7.3170   -0.1610   19.8550 N   0  0  0  0  0  0  0  0  0  0  0  0
    9.2563   -4.7385   25.5420 N   0  0  0  0  0  0  0  0  0  0  0  0
    8.1890   -0.7180   20.8700 N   0  0  0  0  0  0  0  0  0  0  0  0
    9.2690    1.4140   20.9380 O   0  0  0  0  0  0  0  0  0  0  0  0
    3.0134    2.6521   19.3911 H   0  0  0  0  0  0  0  0  0  0  0  0
    3.6460    2.0128   21.6812 H   0  0  0  0  0  0  0  0  0  0  0  0
    8.9214   -0.1986   25.4206 H   0  0  0  0  0  0  0  0  0  0  0  0
   10.0622   -2.2326   21.8251 H   0  0  0  0  0  0  0  0  0  0  0  0
    4.4037    1.9731   17.4543 H   0  0  0  0  0  0  0  0  0  0  0  0
    5.7084    0.6923   22.1132 H   0  0  0  0  0  0  0  0  0  0  0  0
    8.6882   -2.3542   26.5803 H   0  0  0  0  0  0  0  0  0  0  0  0
    9.9258   -4.3896   22.9914 H   0  0  0  0  0  0  0  0  0  0  0  0
   11.6198    2.0979   22.7767 H   0  0  0  0  0  0  0  0  0  0  0  0
    8.0679    4.3039   23.8392 H   0  0  0  0  0  0  0  0  0  0  0  0
    8.4862   -0.8060   18.1787 H   0  0  0  0  0  0  0  0  0  0  0  0
    7.8484   -7.0905   27.4464 H   0  0  0  0  0  0  0  0  0  0  0  0
    6.3761   -6.1442   27.6721 H   0  0  0  0  0  0  0  0  0  0  0  0
    7.6308   -4.0428   27.6404 H   0  0  0  0  0  0  0  0  0  0  0  0
    8.3917   -5.1316   28.7967 H   0  0  0  0  0  0  0  0  0  0  0  0
    6.6889   -6.9376   25.3006 H   0  0  0  0  0  0  0  0  0  0  0  0
    6.5516   -5.1860   25.4256 H   0  0  0  0  0  0  0  0  0  0  0  0
   10.0494   -3.9643   27.3413 H   0  0  0  0  0  0  0  0  0  0  0  0
   10.1432   -5.7258   27.1775 H   0  0  0  0  0  0  0  0  0  0  0  0
    9.1338   -6.7931   25.0863 H   0  0  0  0  0  0  0  0  0  0  0  0
    8.3657   -5.7262   23.8995 H   0  0  0  0  0  0  0  0  0  0  0  0
   10.2956    6.6075   24.0395 H   0  0  0  0  0  0  0  0  0  0  0  0
   10.6374    6.5638   22.2766 H   0  0  0  0  0  0  0  0  0  0  0  0
    8.9513    6.5147   22.8506 H   0  0  0  0  0  0  0  0  0  0  0  0
    8.9481    1.1774   24.8382 H   0  0  0  0  0  0  0  0  0  0  0  0
    7.7730    1.4670   23.5839 H   0  0  0  0  0  0  0  0  0  0  0  0
   10.5990    0.4745   22.8590 H   0  0  0  0  0  0  0  0  0  0  0  0
    8.2487   -1.5564   21.0972 H   0  0  0  0  0  0  0  0  0  0  0  0
  1  2  1  0  0  0  0
  1  5  2  0  0  0  0
  2  6  2  0  0  0  0
  3  7  2  0  0  0  0
  3 12  1  0  0  0  0
  4  8  1  0  0  0  0
  4 12  2  0  0  0  0
  5 14  1  0  0  0  0
  6 15  1  0  0  0  0
  7 16  1  0  0  0  0
  8 16  2  0  0  0  0
  9 13  1  0  0  0  0
  9 26  2  0  0  0  0
 10 13  2  0  0  0  0
 10 28  1  0  0  0  0
 11 27  2  0  0  0  0
 11 29  1  0  0  0  0
 12 25  1  0  0  0  0
 13 24  1  0  0  0  0
 14 15  2  0  0  0  0
 14 27  1  0  0  0  0
 15 29  1  0  0  0  0
 16 30  1  0  0  0  0
 17 25  1  0  0  0  0
 17 31  1  0  0  0  0
 17 32  2  0  0  0  0
 18 19  1  0  0  0  0
 18 20  1  0  0  0  0
 19 21  1  0  0  0  0
 20 22  1  0  0  0  0
 21 30  1  0  0  0  0
 22 30  1  0  0  0  0
 23 28  1  0  0  0  0
 24 25  1  6  0  0  0
 26 28  1  0  0  0  0
 29 31  1  0  0  0  0
  1 33  1  0  0  0  0
  2 34  1  0  0  0  0
  3 35  1  0  0  0  0
  4 36  1  0  0  0  0
  5 37  1  0  0  0  0
  6 38  1  0  0  0  0
  7 39  1  0  0  0  0
  8 40  1  0  0  0  0
  9 41  1  0  0  0  0
 10 42  1  0  0  0  0
 11 43  1  0  0  0  0
 18 44  1  0  0  0  0
 18 45  1  0  0  0  0
 19 46  1  0  0  0  0
 19 47  1  0  0  0  0
 20 48  1  0  0  0  0
 20 49  1  0  0  0  0
 21 50  1  0  0  0  0
 21 51  1  0  0  0  0
 22 52  1  0  0  0  0
 22 53  1  0  0  0  0
 23 54  1  0  0  0  0
 23 55  1  0  0  0  0
 23 56  1  0  0  0  0
 24 57  1  0  0  0  0
 24 58  1  0  0  0  0
 25 59  1  0  0  0  0
 31 60  1  0  0  0  0
M  END
> <clash_score>
0

> <docking_score>
-8.48556900024414

> <overlap_score>
0.8774827718734741

$$$$
BENZO_206_2
  -OEChem-08232013453D

 60 64  0     1  0  0  0  0  0999 V2000
    3.9160    2.0630   19.5520 C   0  0  0  0  0  0  0  0  0  0  0  0
    4.2750    1.7050   20.8490 C   0  0  0  0  0  0  0  0  0  0  0  0
   10.3202    4.4289   23.3635 C   0  0  0  0  0  0  0  0  0  0  0  0
   10.1559    3.0442   23.3958 C   0  0  0  0  0  0  0  0  0  0  0  0
    9.0720   -1.1280   24.8640 C   0  0  0  0  0  0  0  0  0  0  0  0
    9.7200   -2.2600   22.8630 C   0  0  0  0  0  0  0  0  0  0  0  0
    4.6890    1.6810   18.4640 C   0  0  0  0  0  0  0  0  0  0  0  0
    5.4210    0.9600   21.0930 C   0  0  0  0  0  0  0  0  0  0  0  0
    8.9960   -2.3380   25.5320 C   0  0  0  0  0  0  0  0  0  0  0  0
    9.6730   -3.4710   23.5300 C   0  0  0  0  0  0  0  0  0  0  0  0
   11.5055    4.9795   22.8761 C   0  0  0  0  0  0  0  0  0  0  0  0
   12.3623    2.7604   22.4532 C   0  0  0  0  0  0  0  0  0  0  0  0
    7.6390   -0.2680   18.5410 C   0  0  0  0  0  0  0  0  0  0  0  0
    9.3350   -1.0880   23.5010 C   0  0  0  0  0  0  0  0  0  0  0  0
   11.1769    2.2099   22.9406 C   0  0  0  0  0  0  0  0  0  0  0  0
    5.8300    0.9190   18.6970 C   0  0  0  0  0  0  0  0  0  0  0  0
    6.1790    0.5730   19.9990 C   0  0  0  0  0  0  0  0  0  0  0  0
    9.3070   -3.5340   24.8780 C   0  0  0  0  0  0  0  0  0  0  0  0
   12.5266    4.1452   22.4210 C   0  0  0  0  0  0  0  0  0  0  0  0
    9.0420    0.3700   21.5280 C   0  0  0  0  0  0  0  0  0  0  0  0
    7.3637   -6.1365   27.1885 C   0  0  0  0  0  0  0  0  0  0  0  0
    8.1962   -4.9739   27.7340 C   0  0  0  0  0  0  0  0  0  0  0  0
    7.1943   -6.0395   25.6706 C   0  0  0  0  0  0  0  0  0  0  0  0
    9.5197   -4.8493   26.9795 C   0  0  0  0  0  0  0  0  0  0  0  0
    8.5443   -5.8838   24.9636 C   0  0  0  0  0  0  0  0  0  0  0  0
   10.9988    0.7103   22.9770 C   0  0  0  0  0  0  0  0  0  0  0  0
    9.4560    0.1560   22.8130 C   0  0  2  0  0  0  0  0  0  0  0  0
    6.7580    0.3810   17.8350 N   0  0  0  0  0  0  0  0  0  0  0  0
    7.3170   -0.1610   19.8550 N   0  0  0  0  0  0  0  0  0  0  0  0
    9.2563   -4.7385   25.5420 N   0  0  0  0  0  0  0  0  0  0  0  0
    8.1890   -0.7180   20.8700 N   0  0  0  0  0  0  0  0  0  0  0  0
    9.2690    1.4140   20.9380 O   0  0  0  0  0  0  0  0  0  0  0  0
   13.9892    4.8250   21.8208 Cl  0  0  0  0  0  0  0  0  0  0  0  0
    3.0134    2.6521   19.3911 H   0  0  0  0  0  0  0  0  0  0  0  0
    3.6460    2.0127   21.6812 H   0  0  0  0  0  0  0  0  0  0  0  0
    9.5249    5.0782   23.7182 H   0  0  0  0  0  0  0  0  0  0  0  0
    9.2290    2.6239   23.7773 H   0  0  0  0  0  0  0  0  0  0  0  0
    8.9214   -0.1986   25.4206 H   0  0  0  0  0  0  0  0  0  0  0  0
   10.0622   -2.2326   21.8251 H   0  0  0  0  0  0  0  0  0  0  0  0
    4.4037    1.9731   17.4543 H   0  0  0  0  0  0  0  0  0  0  0  0
    5.7084    0.6923   22.1132 H   0  0  0  0  0  0  0  0  0  0  0  0
    8.6882   -2.3542   26.5803 H   0  0  0  0  0  0  0  0  0  0  0  0
    9.9258   -4.3896   22.9914 H   0  0  0  0  0  0  0  0  0  0  0  0
   11.6198    6.0605   22.8572 H   0  0  0  0  0  0  0  0  0  0  0  0
   13.1552    2.1057   22.0990 H   0  0  0  0  0  0  0  0  0  0  0  0
    8.4862   -0.8060   18.1787 H   0  0  0  0  0  0  0  0  0  0  0  0
    7.8484   -7.0905   27.4464 H   0  0  0  0  0  0  0  0  0  0  0  0
    6.3761   -6.1442   27.6721 H   0  0  0  0  0  0  0  0  0  0  0  0
    7.6308   -4.0428   27.6404 H   0  0  0  0  0  0  0  0  0  0  0  0
    8.3917   -5.1316   28.7967 H   0  0  0  0  0  0  0  0  0  0  0  0
    6.6889   -6.9376   25.3006 H   0  0  0  0  0  0  0  0  0  0  0  0
    6.5516   -5.1860   25.4256 H   0  0  0  0  0  0  0  0  0  0  0  0
   10.0494   -3.9643   27.3413 H   0  0  0  0  0  0  0  0  0  0  0  0
   10.1432   -5.7258   27.1775 H   0  0  0  0  0  0  0  0  0  0  0  0
    9.1338   -6.7931   25.0863 H   0  0  0  0  0  0  0  0  0  0  0  0
    8.3657   -5.7262   23.8995 H   0  0  0  0  0  0  0  0  0  0  0  0
   11.6488    0.2736   22.2061 H   0  0  0  0  0  0  0  0  0  0  0  0
   11.3815    0.3162   23.9278 H   0  0  0  0  0  0  0  0  0  0  0  0
    8.9230    0.9815   23.4801 H   0  0  0  0  0  0  0  0  0  0  0  0
    8.2487   -1.5564   21.0972 H   0  0  0  0  0  0  0  0  0  0  0  0
  1  2  1  0  0  0  0
  1  7  2  0  0  0  0
  2  8  2  0  0  0  0
  3  4  2  0  0  0  0
  3 11  1  0  0  0  0
  4 15  1  0  0  0  0
  5  9  2  0  0  0  0
  5 14  1  0  0  0  0
  6 10  1  0  0  0  0
  6 14  2  0  0  0  0
  7 16  1  0  0  0  0
  8 17  1  0  0  0  0
  9 18  1  0  0  0  0
 10 18  2  0  0  0  0
 11 19  2  0  0  0  0
 12 15  2  0  0  0  0
 12 19  1  0  0  0  0
 13 28  2  0  0  0  0
 13 29  1  0  0  0  0
 14 27  1  0  0  0  0
 15 26  1  0  0  0  0
 16 17  2  0  0  0  0
 16 28  1  0  0  0  0
 17 29  1  0  0  0  0
 18 30  1  0  0  0  0
 19 33  1  0  0  0  0
 20 27  1  6  0  0  0
 20 31  1  0  0  0  0
 20 32  2  0  0  0  0
 21 22  1  0  0  0  0
 21 23  1  0  0  0  0
 22 24  1  0  0  0  0
 23 25  1  0  0  0  0
 24 30  1  0  0  0  0
 25 30  1  0  0  0  0
 26 27  1  0  0  0  0
 29 31  1  0  0  0  0
  1 34  1  0  0  0  0
  2 35  1  0  0  0  0
  3 36  1  0  0  0  0
  4 37  1  0  0  0  0
  5 38  1  0  0  0  0
  6 39  1  0  0  0  0
  7 40  1  0  0  0  0
  8 41  1  0  0  0  0
  9 42  1  0  0  0  0
 10 43  1  0  0  0  0
 11 44  1  0  0  0  0
 12 45  1  0  0  0  0
 13 46  1  0  0  0  0
 21 47  1  0  0  0  0
 21 48  1  0  0  0  0
 22 49  1  0  0  0  0
 22 50  1  0  0  0  0
 23 51  1  0  0  0  0
 23 52  1  0  0  0  0
 24 53  1  0  0  0  0
 24 54  1  0  0  0  0
 25 55  1  0  0  0  0
 25 56  1  0  0  0  0
 26 57  1  0  0  0  0
 26 58  1  0  0  0  0
 27 59  1  0  0  0  0
 31 60  1  0  0  0  0
M  END
> <clash_score>
0

> <docking_score>
-10.147954940795898

> <overlap_score>
0.9406134486198425

$$$$
BENZO_207_1
  -OEChem-08232013453D

 60 64  0     1  0  0  0  0  0999 V2000
    3.9160    2.0630   19.5520 C   0  0  0  0  0  0  0  0  0  0  0  0
    4.2750    1.7050   20.8490 C   0  0  0  0  0  0  0  0  0  0  0  0
    9.0720   -1.1280   24.8640 C   0  0  0  0  0  0  0  0  0  0  0  0
    9.7200   -2.2600   22.8630 C   0  0  0  0  0  0  0  0  0  0  0  0
    4.6890    1.6810   18.4640 C   0  0  0  0  0  0  0  0  0  0  0  0
    5.4210    0.9600   21.0930 C   0  0  0  0  0  0  0  0  0  0  0  0
    8.9960   -2.3380   25.5320 C   0  0  0  0  0  0  0  0  0  0  0  0
    9.6730   -3.4710   23.5300 C   0  0  0  0  0  0  0  0  0  0  0  0
   10.2646    3.1985   23.3556 C   0  0  0  0  0  0  0  0  0  0  0  0
   12.2689    2.9150   22.4968 C   0  0  0  0  0  0  0  0  0  0  0  0
    7.6390   -0.2680   18.5410 C   0  0  0  0  0  0  0  0  0  0  0  0
    9.3350   -1.0880   23.5010 C   0  0  0  0  0  0  0  0  0  0  0  0
   11.1769    2.2099   22.9406 C   0  0  0  0  0  0  0  0  0  0  0  0
    5.8300    0.9190   18.6970 C   0  0  0  0  0  0  0  0  0  0  0  0
    6.1790    0.5730   19.9990 C   0  0  0  0  0  0  0  0  0  0  0  0
    9.3070   -3.5340   24.8780 C   0  0  0  0  0  0  0  0  0  0  0  0
    9.0420    0.3700   21.5280 C   0  0  0  0  0  0  0  0  0  0  0  0
    7.3637   -6.1365   27.1885 C   0  0  0  0  0  0  0  0  0  0  0  0
    8.1962   -4.9739   27.7340 C   0  0  0  0  0  0  0  0  0  0  0  0
    7.1943   -6.0395   25.6706 C   0  0  0  0  0  0  0  0  0  0  0  0
    9.5197   -4.8493   26.9795 C   0  0  0  0  0  0  0  0  0  0  0  0
    8.5443   -5.8838   24.9636 C   0  0  0  0  0  0  0  0  0  0  0  0
   12.7964    5.3597   22.3418 C   0  0  0  0  0  0  0  0  0  0  0  0
   10.9988    0.7103   22.9770 C   0  0  0  0  0  0  0  0  0  0  0  0
    9.4560    0.1560   22.8130 C   0  0  1  0  0  0  0  0  0  0  0  0
   10.7361    4.4372   23.1902 N   0  0  0  0  0  0  0  0  0  0  0  0
    6.7580    0.3810   17.8350 N   0  0  0  0  0  0  0  0  0  0  0  0
   11.9566    4.2317   22.6666 N   0  0  0  0  0  0  0  0  0  0  0  0
    7.3170   -0.1610   19.8550 N   0  0  0  0  0  0  0  0  0  0  0  0
    9.2563   -4.7385   25.5420 N   0  0  0  0  0  0  0  0  0  0  0  0
    8.1890   -0.7180   20.8700 N   0  0  0  0  0  0  0  0  0  0  0  0
    9.2690    1.4140   20.9380 O   0  0  0  0  0  0  0  0  0  0  0  0
    3.0134    2.6521   19.3911 H   0  0  0  0  0  0  0  0  0  0  0  0
    3.6460    2.0127   21.6812 H   0  0  0  0  0  0  0  0  0  0  0  0
    8.9214   -0.1986   25.4206 H   0  0  0  0  0  0  0  0  0  0  0  0
   10.0622   -2.2326   21.8251 H   0  0  0  0  0  0  0  0  0  0  0  0
    4.4037    1.9731   17.4543 H   0  0  0  0  0  0  0  0  0  0  0  0
    5.7084    0.6923   22.1132 H   0  0  0  0  0  0  0  0  0  0  0  0
    8.6882   -2.3542   26.5803 H   0  0  0  0  0  0  0  0  0  0  0  0
    9.9258   -4.3896   22.9914 H   0  0  0  0  0  0  0  0  0  0  0  0
    9.2758    3.0704   23.7727 H   0  0  0  0  0  0  0  0  0  0  0  0
   13.2185    2.5997   22.0860 H   0  0  0  0  0  0  0  0  0  0  0  0
    8.4862   -0.8060   18.1787 H   0  0  0  0  0  0  0  0  0  0  0  0
    7.8484   -7.0905   27.4464 H   0  0  0  0  0  0  0  0  0  0  0  0
    6.3761   -6.1442   27.6721 H   0  0  0  0  0  0  0  0  0  0  0  0
    7.6308   -4.0428   27.6404 H   0  0  0  0  0  0  0  0  0  0  0  0
    8.3917   -5.1316   28.7967 H   0  0  0  0  0  0  0  0  0  0  0  0
    6.6889   -6.9376   25.3006 H   0  0  0  0  0  0  0  0  0  0  0  0
    6.5516   -5.1860   25.4256 H   0  0  0  0  0  0  0  0  0  0  0  0
   10.0494   -3.9643   27.3413 H   0  0  0  0  0  0  0  0  0  0  0  0
   10.1432   -5.7258   27.1775 H   0  0  0  0  0  0  0  0  0  0  0  0
    9.1338   -6.7931   25.0863 H   0  0  0  0  0  0  0  0  0  0  0  0
    8.3657   -5.7262   23.8995 H   0  0  0  0  0  0  0  0  0  0  0  0
   12.5864    5.6503   21.3091 H   0  0  0  0  0  0  0  0  0  0  0  0
   12.5763    6.1858   23.0237 H   0  0  0  0  0  0  0  0  0  0  0  0
   13.8458    5.0729   22.4536 H   0  0  0  0  0  0  0  0  0  0  0  0
   11.6488    0.2736   22.2061 H   0  0  0  0  0  0  0  0  0  0  0  0
   11.3815    0.3162   23.9278 H   0  0  0  0  0  0  0  0  0  0  0  0
    8.9230    0.9815   23.4801 H   0  0  0  0  0  0  0  0  0  0  0  0
    8.2487   -1.5564   21.0972 H   0  0  0  0  0  0  0  0  0  0  0  0
  1  2  1  0  0  0  0
  1  5  2  0  0  0  0
  2  6  2  0  0  0  0
  3  7  2  0  0  0  0
  3 12  1  0  0  0  0
  4  8  1  0  0  0  0
  4 12  2  0  0  0  0
  5 14  1  0  0  0  0
  6 15  1  0  0  0  0
  7 16  1  0  0  0  0
  8 16  2  0  0  0  0
  9 13  1  0  0  0  0
  9 26  2  0  0  0  0
 10 13  2  0  0  0  0
 10 28  1  0  0  0  0
 11 27  2  0  0  0  0
 11 29  1  0  0  0  0
 12 25  1  0  0  0  0
 13 24  1  0  0  0  0
 14 15  2  0  0  0  0
 14 27  1  0  0  0  0
 15 29  1  0  0  0  0
 16 30  1  0  0  0  0
 17 25  1  0  0  0  0
 17 31  1  0  0  0  0
 17 32  2  0  0  0  0
 18 19  1  0  0  0  0
 18 20  1  0  0  0  0
 19 21  1  0  0  0  0
 20 22  1  0  0  0  0
 21 30  1  0  0  0  0
 22 30  1  0  0  0  0
 23 28  1  0  0  0  0
 24 25  1  1  0  0  0
 26 28  1  0  0  0  0
 29 31  1  0  0  0  0
  1 33  1  0  0  0  0
  2 34  1  0  0  0  0
  3 35  1  0  0  0  0
  4 36  1  0  0  0  0
  5 37  1  0  0  0  0
  6 38  1  0  0  0  0
  7 39  1  0  0  0  0
  8 40  1  0  0  0  0
  9 41  1  0  0  0  0
 10 42  1  0  0  0  0
 11 43  1  0  0  0  0
 18 44  1  0  0  0  0
 18 45  1  0  0  0  0
 19 46  1  0  0  0  0
 19 47  1  0  0  0  0
 20 48  1  0  0  0  0
 20 49  1  0  0  0  0
 21 50  1  0  0  0  0
 21 51  1  0  0  0  0
 22 52  1  0  0  0  0
 22 53  1  0  0  0  0
 23 54  1  0  0  0  0
 23 55  1  0  0  0  0
 23 56  1  0  0  0  0
 24 57  1  0  0  0  0
 24 58  1  0  0  0  0
 25 59  1  0  0  0  0
 31 60  1  0  0  0  0
M  END
> <clash_score>
0

> <docking_score>
-9.786079406738281

> <overlap_score>
0.9366329908370972

$$$$
BENZO_211_1
  -OEChem-08232013453D

 48 51  0     1  0  0  0  0  0999 V2000
    3.9160    2.0630   19.5520 C   0  0  0  0  0  0  0  0  0  0  0  0
    4.2750    1.7050   20.8490 C   0  0  0  0  0  0  0  0  0  0  0  0
    8.9960   -2.3380   25.5320 C   0  0  0  0  0  0  0  0  0  0  0  0
    9.6730   -3.4710   23.5300 C   0  0  0  0  0  0  0  0  0  0  0  0
    9.0720   -1.1280   24.8640 C   0  0  0  0  0  0  0  0  0  0  0  0
    9.7200   -2.2600   22.8630 C   0  0  0  0  0  0  0  0  0  0  0  0
    4.6890    1.6810   18.4640 C   0  0  0  0  0  0  0  0  0  0  0  0
    5.4210    0.9600   21.0930 C   0  0  0  0  0  0  0  0  0  0  0  0
   10.2850    3.1879   23.3945 C   0  0  0  0  0  0  0  0  0  0  0  0
   12.2874    2.8981   22.5336 C   0  0  0  0  0  0  0  0  0  0  0  0
    7.6390   -0.2680   18.5410 C   0  0  0  0  0  0  0  0  0  0  0  0
    9.3070   -3.5340   24.8780 C   0  0  0  0  0  0  0  0  0  0  0  0
    9.3350   -1.0880   23.5010 C   0  0  0  0  0  0  0  0  0  0  0  0
   11.1891    2.1969   22.9675 C   0  0  0  0  0  0  0  0  0  0  0  0
    5.8300    0.9190   18.6970 C   0  0  0  0  0  0  0  0  0  0  0  0
    6.1790    0.5730   19.9990 C   0  0  0  0  0  0  0  0  0  0  0  0
    9.0420    0.3700   21.5280 C   0  0  0  0  0  0  0  0  0  0  0  0
    9.2507   -4.8268   25.5895 C   0  0  0  0  0  0  0  0  0  0  0  0
   12.8361    5.3400   22.4104 C   0  0  0  0  0  0  0  0  0  0  0  0
   10.9980    0.6985   22.9845 C   0  0  0  0  0  0  0  0  0  0  0  0
    9.4560    0.1560   22.8130 C   0  0  1  0  0  0  0  0  0  0  0  0
   10.7672    4.4245   23.2454 N   0  0  0  0  0  0  0  0  0  0  0  0
    6.7580    0.3810   17.8350 N   0  0  0  0  0  0  0  0  0  0  0  0
   11.9863    4.2152   22.7200 N   0  0  0  0  0  0  0  0  0  0  0  0
    7.3170   -0.1610   19.8550 N   0  0  0  0  0  0  0  0  0  0  0  0
    8.1890   -0.7180   20.8700 N   0  0  0  0  0  0  0  0  0  0  0  0
    9.2690    1.4140   20.9380 O   0  0  0  0  0  0  0  0  0  0  0  0
    3.0134    2.6521   19.3911 H   0  0  0  0  0  0  0  0  0  0  0  0
    3.6460    2.0127   21.6812 H   0  0  0  0  0  0  0  0  0  0  0  0
    8.6904   -2.3557   26.5808 H   0  0  0  0  0  0  0  0  0  0  0  0
    9.9249   -4.3911   22.9935 H   0  0  0  0  0  0  0  0  0  0  0  0
    8.9209   -0.1987   25.4207 H   0  0  0  0  0  0  0  0  0  0  0  0
   10.0640   -2.2315   21.8255 H   0  0  0  0  0  0  0  0  0  0  0  0
    4.4037    1.9731   17.4543 H   0  0  0  0  0  0  0  0  0  0  0  0
    5.7084    0.6923   22.1132 H   0  0  0  0  0  0  0  0  0  0  0  0
    9.2947    3.0629   23.8092 H   0  0  0  0  0  0  0  0  0  0  0  0
   13.2346    2.5800   22.1195 H   0  0  0  0  0  0  0  0  0  0  0  0
    8.4862   -0.8060   18.1787 H   0  0  0  0  0  0  0  0  0  0  0  0
    8.2506   -5.2684   25.5009 H   0  0  0  0  0  0  0  0  0  0  0  0
    9.9820   -5.5375   25.1832 H   0  0  0  0  0  0  0  0  0  0  0  0
    9.4843   -4.7055   26.6554 H   0  0  0  0  0  0  0  0  0  0  0  0
   12.6295    5.6456   21.3814 H   0  0  0  0  0  0  0  0  0  0  0  0
   12.6226    6.1591   23.1027 H   0  0  0  0  0  0  0  0  0  0  0  0
   13.8829    5.0428   22.5193 H   0  0  0  0  0  0  0  0  0  0  0  0
   11.6403    0.2667   22.2043 H   0  0  0  0  0  0  0  0  0  0  0  0
   11.3821    0.2882   23.9279 H   0  0  0  0  0  0  0  0  0  0  0  0
    8.9221    0.9705   23.4866 H   0  0  0  0  0  0  0  0  0  0  0  0
    8.2749   -1.5586   21.1247 H   0  0  0  0  0  0  0  0  0  0  0  0
  1  2  1  0  0  0  0
  1  7  2  0  0  0  0
  2  8  2  0  0  0  0
  3  5  2  0  0  0  0
  3 12  1  0  0  0  0
  4  6  1  0  0  0  0
  4 12  2  0  0  0  0
  5 13  1  0  0  0  0
  6 13  2  0  0  0  0
  7 15  1  0  0  0  0
  8 16  1  0  0  0  0
  9 14  1  0  0  0  0
  9 22  2  0  0  0  0
 10 14  2  0  0  0  0
 10 24  1  0  0  0  0
 11 23  2  0  0  0  0
 11 25  1  0  0  0  0
 12 18  1  0  0  0  0
 13 21  1  0  0  0  0
 14 20  1  0  0  0  0
 15 16  2  0  0  0  0
 15 23  1  0  0  0  0
 16 25  1  0  0  0  0
 17 21  1  0  0  0  0
 17 26  1  0  0  0  0
 17 27  2  0  0  0  0
 19 24  1  0  0  0  0
 20 21  1  1  0  0  0
 22 24  1  0  0  0  0
 25 26  1  0  0  0  0
  1 28  1  0  0  0  0
  2 29  1  0  0  0  0
  3 30  1  0  0  0  0
  4 31  1  0  0  0  0
  5 32  1  0  0  0  0
  6 33  1  0  0  0  0
  7 34  1  0  0  0  0
  8 35  1  0  0  0  0
  9 36  1  0  0  0  0
 10 37  1  0  0  0  0
 11 38  1  0  0  0  0
 18 39  1  0  0  0  0
 18 40  1  0  0  0  0
 18 41  1  0  0  0  0
 19 42  1  0  0  0  0
 19 43  1  0  0  0  0
 19 44  1  0  0  0  0
 20 45  1  0  0  0  0
 20 46  1  0  0  0  0
 21 47  1  0  0  0  0
 26 48  1  0  0  0  0
M  END
> <clash_score>
0

> <docking_score>
-10.198659896850586

> <overlap_score>
0.8843754529953003

$$$$
BENZO_211_2
  -OEChem-08232013453D

 48 51  0     1  0  0  0  0  0999 V2000
    3.9160    2.0630   19.5520 C   0  0  0  0  0  0  0  0  0  0  0  0
    4.2750    1.7050   20.8490 C   0  0  0  0  0  0  0  0  0  0  0  0
    8.9960   -2.3380   25.5320 C   0  0  0  0  0  0  0  0  0  0  0  0
    9.6730   -3.4710   23.5300 C   0  0  0  0  0  0  0  0  0  0  0  0
    9.0720   -1.1280   24.8640 C   0  0  0  0  0  0  0  0  0  0  0  0
    9.7200   -2.2600   22.8630 C   0  0  0  0  0  0  0  0  0  0  0  0
    4.6890    1.6810   18.4640 C   0  0  0  0  0  0  0  0  0  0  0  0
    5.4210    0.9600   21.0930 C   0  0  0  0  0  0  0  0  0  0  0  0
    9.0261    3.9587   23.6213 C   0  0  0  0  0  0  0  0  0  0  0  0
   10.8415    2.8515   23.0615 C   0  0  0  0  0  0  0  0  0  0  0  0
    7.6390   -0.2680   18.5410 C   0  0  0  0  0  0  0  0  0  0  0  0
    9.3070   -3.5340   24.8780 C   0  0  0  0  0  0  0  0  0  0  0  0
    9.3350   -1.0880   23.5010 C   0  0  0  0  0  0  0  0  0  0  0  0
    9.5523    2.6591   23.4945 C   0  0  0  0  0  0  0  0  0  0  0  0
    5.8300    0.9190   18.6970 C   0  0  0  0  0  0  0  0  0  0  0  0
    6.1790    0.5730   19.9990 C   0  0  0  0  0  0  0  0  0  0  0  0
    9.0420    0.3700   21.5280 C   0  0  0  0  0  0  0  0  0  0  0  0
    9.2507   -4.8268   25.5895 C   0  0  0  0  0  0  0  0  0  0  0  0
   12.1989    4.8919   22.5395 C   0  0  0  0  0  0  0  0  0  0  0  0
    8.8584    1.3468   23.7740 C   0  0  0  0  0  0  0  0  0  0  0  0
    9.4560    0.1560   22.8130 C   0  0  2  0  0  0  0  0  0  0  0  0
    9.9089    4.9065   23.2953 N   0  0  0  0  0  0  0  0  0  0  0  0
    6.7580    0.3810   17.8350 N   0  0  0  0  0  0  0  0  0  0  0  0
   11.0029    4.2019   22.9595 N   0  0  0  0  0  0  0  0  0  0  0  0
    7.3170   -0.1610   19.8550 N   0  0  0  0  0  0  0  0  0  0  0  0
    8.1890   -0.7180   20.8700 N   0  0  0  0  0  0  0  0  0  0  0  0
    9.2690    1.4140   20.9380 O   0  0  0  0  0  0  0  0  0  0  0  0
    3.0134    2.6521   19.3911 H   0  0  0  0  0  0  0  0  0  0  0  0
    3.6460    2.0127   21.6812 H   0  0  0  0  0  0  0  0  0  0  0  0
    8.6904   -2.3557   26.5808 H   0  0  0  0  0  0  0  0  0  0  0  0
    9.9249   -4.3911   22.9935 H   0  0  0  0  0  0  0  0  0  0  0  0
    8.9209   -0.1987   25.4207 H   0  0  0  0  0  0  0  0  0  0  0  0
   10.0640   -2.2315   21.8255 H   0  0  0  0  0  0  0  0  0  0  0  0
    4.4037    1.9731   17.4543 H   0  0  0  0  0  0  0  0  0  0  0  0
    5.7084    0.6923   22.1132 H   0  0  0  0  0  0  0  0  0  0  0  0
    8.0368    4.2571   23.9382 H   0  0  0  0  0  0  0  0  0  0  0  0
   11.6384    2.1596   22.8244 H   0  0  0  0  0  0  0  0  0  0  0  0
    8.4862   -0.8060   18.1787 H   0  0  0  0  0  0  0  0  0  0  0  0
    8.2506   -5.2684   25.5009 H   0  0  0  0  0  0  0  0  0  0  0  0
    9.9820   -5.5375   25.1832 H   0  0  0  0  0  0  0  0  0  0  0  0
    9.4843   -4.7055   26.6554 H   0  0  0  0  0  0  0  0  0  0  0  0
   12.1524    5.0177   21.4546 H   0  0  0  0  0  0  0  0  0  0  0  0
   12.2509    5.8653   23.0353 H   0  0  0  0  0  0  0  0  0  0  0  0
   13.0749    4.3002   22.8197 H   0  0  0  0  0  0  0  0  0  0  0  0
    8.9548    1.1352   24.8480 H   0  0  0  0  0  0  0  0  0  0  0  0
    7.7793    1.4560   23.6018 H   0  0  0  0  0  0  0  0  0  0  0  0
   10.5986    0.4624   22.8633 H   0  0  0  0  0  0  0  0  0  0  0  0
    8.2749   -1.5586   21.1247 H   0  0  0  0  0  0  0  0  0  0  0  0
  1  2  1  0  0  0  0
  1  7  2  0  0  0  0
  2  8  2  0  0  0  0
  3  5  2  0  0  0  0
  3 12  1  0  0  0  0
  4  6  1  0  0  0  0
  4 12  2  0  0  0  0
  5 13  1  0  0  0  0
  6 13  2  0  0  0  0
  7 15  1  0  0  0  0
  8 16  1  0  0  0  0
  9 14  1  0  0  0  0
  9 22  2  0  0  0  0
 10 14  2  0  0  0  0
 10 24  1  0  0  0  0
 11 23  2  0  0  0  0
 11 25  1  0  0  0  0
 12 18  1  0  0  0  0
 13 21  1  0  0  0  0
 14 20  1  0  0  0  0
 15 16  2  0  0  0  0
 15 23  1  0  0  0  0
 16 25  1  0  0  0  0
 17 21  1  0  0  0  0
 17 26  1  0  0  0  0
 17 27  2  0  0  0  0
 19 24  1  0  0  0  0
 20 21  1  6  0  0  0
 22 24  1  0  0  0  0
 25 26  1  0  0  0  0
  1 28  1  0  0  0  0
  2 29  1  0  0  0  0
  3 30  1  0  0  0  0
  4 31  1  0  0  0  0
  5 32  1  0  0  0  0
  6 33  1  0  0  0  0
  7 34  1  0  0  0  0
  8 35  1  0  0  0  0
  9 36  1  0  0  0  0
 10 37  1  0  0  0  0
 11 38  1  0  0  0  0
 18 39  1  0  0  0  0
 18 40  1  0  0  0  0
 18 41  1  0  0  0  0
 19 42  1  0  0  0  0
 19 43  1  0  0  0  0
 19 44  1  0  0  0  0
 20 45  1  0  0  0  0
 20 46  1  0  0  0  0
 21 47  1  0  0  0  0
 26 48  1  0  0  0  0
M  END
> <clash_score>
0

> <docking_score>
-8.020485877990723

> <overlap_score>
0.8247482776641846

$$$$
BENZO_210_1
  -OEChem-08232013453D

 48 51  0     1  0  0  0  0  0999 V2000
    3.9160    2.0630   19.5520 C   0  0  0  0  0  0  0  0  0  0  0  0
    4.2750    1.7050   20.8490 C   0  0  0  0  0  0  0  0  0  0  0  0
   10.3511    4.4175   23.4183 C   0  0  0  0  0  0  0  0  0  0  0  0
   10.1749    3.0340   23.4326 C   0  0  0  0  0  0  0  0  0  0  0  0
    8.9960   -2.3380   25.5320 C   0  0  0  0  0  0  0  0  0  0  0  0
    9.6730   -3.4710   23.5300 C   0  0  0  0  0  0  0  0  0  0  0  0
    9.0720   -1.1280   24.8640 C   0  0  0  0  0  0  0  0  0  0  0  0
    9.7200   -2.2600   22.8630 C   0  0  0  0  0  0  0  0  0  0  0  0
    4.6890    1.6810   18.4640 C   0  0  0  0  0  0  0  0  0  0  0  0
    5.4210    0.9600   21.0930 C   0  0  0  0  0  0  0  0  0  0  0  0
   11.5416    4.9641   22.9388 C   0  0  0  0  0  0  0  0  0  0  0  0
   12.3796    2.7434   22.4881 C   0  0  0  0  0  0  0  0  0  0  0  0
    7.6390   -0.2680   18.5410 C   0  0  0  0  0  0  0  0  0  0  0  0
    9.3070   -3.5340   24.8780 C   0  0  0  0  0  0  0  0  0  0  0  0
    9.3350   -1.0880   23.5010 C   0  0  0  0  0  0  0  0  0  0  0  0
   11.1891    2.1969   22.9675 C   0  0  0  0  0  0  0  0  0  0  0  0
    5.8300    0.9190   18.6970 C   0  0  0  0  0  0  0  0  0  0  0  0
    6.1790    0.5730   19.9990 C   0  0  0  0  0  0  0  0  0  0  0  0
   12.5558    4.1270   22.4738 C   0  0  0  0  0  0  0  0  0  0  0  0
    9.0420    0.3700   21.5280 C   0  0  0  0  0  0  0  0  0  0  0  0
    9.2507   -4.8268   25.5895 C   0  0  0  0  0  0  0  0  0  0  0  0
   10.9980    0.6985   22.9845 C   0  0  0  0  0  0  0  0  0  0  0  0
    9.4560    0.1560   22.8130 C   0  0  1  0  0  0  0  0  0  0  0  0
    6.7580    0.3810   17.8350 N   0  0  0  0  0  0  0  0  0  0  0  0
    7.3170   -0.1610   19.8550 N   0  0  0  0  0  0  0  0  0  0  0  0
    8.1890   -0.7180   20.8700 N   0  0  0  0  0  0  0  0  0  0  0  0
    9.2690    1.4140   20.9380 O   0  0  0  0  0  0  0  0  0  0  0  0
   14.0247    4.8018   21.8834 Cl  0  0  0  0  0  0  0  0  0  0  0  0
    3.0134    2.6521   19.3911 H   0  0  0  0  0  0  0  0  0  0  0  0
    3.6460    2.0127   21.6812 H   0  0  0  0  0  0  0  0  0  0  0  0
    9.5612    5.0691   23.7807 H   0  0  0  0  0  0  0  0  0  0  0  0
    9.2441    2.6169   23.8081 H   0  0  0  0  0  0  0  0  0  0  0  0
    8.6904   -2.3557   26.5808 H   0  0  0  0  0  0  0  0  0  0  0  0
    9.9249   -4.3911   22.9935 H   0  0  0  0  0  0  0  0  0  0  0  0
    8.9209   -0.1987   25.4207 H   0  0  0  0  0  0  0  0  0  0  0  0
   10.0640   -2.2315   21.8255 H   0  0  0  0  0  0  0  0  0  0  0  0
    4.4037    1.9731   17.4543 H   0  0  0  0  0  0  0  0  0  0  0  0
    5.7084    0.6923   22.1132 H   0  0  0  0  0  0  0  0  0  0  0  0
   11.6652    6.0443   22.9339 H   0  0  0  0  0  0  0  0  0  0  0  0
   13.1671    2.0865   22.1261 H   0  0  0  0  0  0  0  0  0  0  0  0
    8.4862   -0.8060   18.1787 H   0  0  0  0  0  0  0  0  0  0  0  0
    8.2506   -5.2684   25.5009 H   0  0  0  0  0  0  0  0  0  0  0  0
    9.9820   -5.5375   25.1832 H   0  0  0  0  0  0  0  0  0  0  0  0
    9.4843   -4.7055   26.6554 H   0  0  0  0  0  0  0  0  0  0  0  0
   11.6403    0.2667   22.2043 H   0  0  0  0  0  0  0  0  0  0  0  0
   11.3821    0.2882   23.9279 H   0  0  0  0  0  0  0  0  0  0  0  0
    8.9221    0.9705   23.4866 H   0  0  0  0  0  0  0  0  0  0  0  0
    8.2749   -1.5586   21.1247 H   0  0  0  0  0  0  0  0  0  0  0  0
  1  2  1  0  0  0  0
  1  9  2  0  0  0  0
  2 10  2  0  0  0  0
  3  4  2  0  0  0  0
  3 11  1  0  0  0  0
  4 16  1  0  0  0  0
  5  7  2  0  0  0  0
  5 14  1  0  0  0  0
  6  8  1  0  0  0  0
  6 14  2  0  0  0  0
  7 15  1  0  0  0  0
  8 15  2  0  0  0  0
  9 17  1  0  0  0  0
 10 18  1  0  0  0  0
 11 19  2  0  0  0  0
 12 16  2  0  0  0  0
 12 19  1  0  0  0  0
 13 24  2  0  0  0  0
 13 25  1  0  0  0  0
 14 21  1  0  0  0  0
 15 23  1  0  0  0  0
 16 22  1  0  0  0  0
 17 18  2  0  0  0  0
 17 24  1  0  0  0  0
 18 25  1  0  0  0  0
 19 28  1  0  0  0  0
 20 23  1  0  0  0  0
 20 26  1  0  0  0  0
 20 27  2  0  0  0  0
 22 23  1  1  0  0  0
 25 26  1  0  0  0  0
  1 29  1  0  0  0  0
  2 30  1  0  0  0  0
  3 31  1  0  0  0  0
  4 32  1  0  0  0  0
  5 33  1  0  0  0  0
  6 34  1  0  0  0  0
  7 35  1  0  0  0  0
  8 36  1  0  0  0  0
  9 37  1  0  0  0  0
 10 38  1  0  0  0  0
 11 39  1  0  0  0  0
 12 40  1  0  0  0  0
 13 41  1  0  0  0  0
 21 42  1  0  0  0  0
 21 43  1  0  0  0  0
 21 44  1  0  0  0  0
 22 45  1  0  0  0  0
 22 46  1  0  0  0  0
 23 47  1  0  0  0  0
 26 48  1  0  0  0  0
M  END
> <clash_score>
0

> <docking_score>
-10.56797981262207

> <overlap_score>
0.8885869979858398

$$$$
BENZO_210_2
  -OEChem-08232013453D

 48 51  0     1  0  0  0  0  0999 V2000
    3.9160    2.0630   19.5520 C   0  0  0  0  0  0  0  0  0  0  0  0
    4.2750    1.7050   20.8490 C   0  0  0  0  0  0  0  0  0  0  0  0
    9.6814    4.7377   22.2699 C   0  0  0  0  0  0  0  0  0  0  0  0
    9.0418    3.5253   22.5276 C   0  0  0  0  0  0  0  0  0  0  0  0
    8.9960   -2.3380   25.5320 C   0  0  0  0  0  0  0  0  0  0  0  0
    9.6730   -3.4710   23.5300 C   0  0  0  0  0  0  0  0  0  0  0  0
    9.0720   -1.1280   24.8640 C   0  0  0  0  0  0  0  0  0  0  0  0
    9.7200   -2.2600   22.8630 C   0  0  0  0  0  0  0  0  0  0  0  0
    4.6890    1.6810   18.4640 C   0  0  0  0  0  0  0  0  0  0  0  0
    5.4210    0.9600   21.0930 C   0  0  0  0  0  0  0  0  0  0  0  0
   10.8316    5.0840   22.9789 C   0  0  0  0  0  0  0  0  0  0  0  0
   10.7025    3.0055   24.2036 C   0  0  0  0  0  0  0  0  0  0  0  0
    7.6390   -0.2680   18.5410 C   0  0  0  0  0  0  0  0  0  0  0  0
    9.3070   -3.5340   24.8780 C   0  0  0  0  0  0  0  0  0  0  0  0
    9.3350   -1.0880   23.5010 C   0  0  0  0  0  0  0  0  0  0  0  0
    9.5523    2.6591   23.4945 C   0  0  0  0  0  0  0  0  0  0  0  0
    5.8300    0.9190   18.6970 C   0  0  0  0  0  0  0  0  0  0  0  0
    6.1790    0.5730   19.9990 C   0  0  0  0  0  0  0  0  0  0  0  0
   11.3422    4.2179   23.9458 C   0  0  0  0  0  0  0  0  0  0  0  0
    9.0420    0.3700   21.5280 C   0  0  0  0  0  0  0  0  0  0  0  0
    9.2507   -4.8268   25.5895 C   0  0  0  0  0  0  0  0  0  0  0  0
    8.8584    1.3468   23.7740 C   0  0  0  0  0  0  0  0  0  0  0  0
    9.4560    0.1560   22.8130 C   0  0  2  0  0  0  0  0  0  0  0  0
    6.7580    0.3810   17.8350 N   0  0  0  0  0  0  0  0  0  0  0  0
    7.3170   -0.1610   19.8550 N   0  0  0  0  0  0  0  0  0  0  0  0
    8.1890   -0.7180   20.8700 N   0  0  0  0  0  0  0  0  0  0  0  0
    9.2690    1.4140   20.9380 O   0  0  0  0  0  0  0  0  0  0  0  0
   12.7607    4.6463   24.8211 Cl  0  0  0  0  0  0  0  0  0  0  0  0
    3.0134    2.6521   19.3911 H   0  0  0  0  0  0  0  0  0  0  0  0
    3.6460    2.0127   21.6812 H   0  0  0  0  0  0  0  0  0  0  0  0
    9.2834    5.4119   21.5170 H   0  0  0  0  0  0  0  0  0  0  0  0
    8.1460    3.2636   21.9704 H   0  0  0  0  0  0  0  0  0  0  0  0
    8.6904   -2.3557   26.5808 H   0  0  0  0  0  0  0  0  0  0  0  0
    9.9249   -4.3911   22.9935 H   0  0  0  0  0  0  0  0  0  0  0  0
    8.9209   -0.1987   25.4207 H   0  0  0  0  0  0  0  0  0  0  0  0
   10.0640   -2.2315   21.8255 H   0  0  0  0  0  0  0  0  0  0  0  0
    4.4037    1.9731   17.4543 H   0  0  0  0  0  0  0  0  0  0  0  0
    5.7084    0.6923   22.1132 H   0  0  0  0  0  0  0  0  0  0  0  0
   11.3195    6.0324   22.7676 H   0  0  0  0  0  0  0  0  0  0  0  0
   11.0970    2.3265   24.9561 H   0  0  0  0  0  0  0  0  0  0  0  0
    8.4862   -0.8060   18.1787 H   0  0  0  0  0  0  0  0  0  0  0  0
    8.2506   -5.2684   25.5009 H   0  0  0  0  0  0  0  0  0  0  0  0
    9.9820   -5.5375   25.1832 H   0  0  0  0  0  0  0  0  0  0  0  0
    9.4843   -4.7055   26.6554 H   0  0  0  0  0  0  0  0  0  0  0  0
    8.9548    1.1352   24.8480 H   0  0  0  0  0  0  0  0  0  0  0  0
    7.7793    1.4560   23.6018 H   0  0  0  0  0  0  0  0  0  0  0  0
   10.5986    0.4624   22.8633 H   0  0  0  0  0  0  0  0  0  0  0  0
    8.2749   -1.5586   21.1247 H   0  0  0  0  0  0  0  0  0  0  0  0
  1  2  1  0  0  0  0
  1  9  2  0  0  0  0
  2 10  2  0  0  0  0
  3  4  2  0  0  0  0
  3 11  1  0  0  0  0
  4 16  1  0  0  0  0
  5  7  2  0  0  0  0
  5 14  1  0  0  0  0
  6  8  1  0  0  0  0
  6 14  2  0  0  0  0
  7 15  1  0  0  0  0
  8 15  2  0  0  0  0
  9 17  1  0  0  0  0
 10 18  1  0  0  0  0
 11 19  2  0  0  0  0
 12 16  2  0  0  0  0
 12 19  1  0  0  0  0
 13 24  2  0  0  0  0
 13 25  1  0  0  0  0
 14 21  1  0  0  0  0
 15 23  1  0  0  0  0
 16 22  1  0  0  0  0
 17 18  2  0  0  0  0
 17 24  1  0  0  0  0
 18 25  1  0  0  0  0
 19 28  1  0  0  0  0
 20 23  1  0  0  0  0
 20 26  1  0  0  0  0
 20 27  2  0  0  0  0
 22 23  1  6  0  0  0
 25 26  1  0  0  0  0
  1 29  1  0  0  0  0
  2 30  1  0  0  0  0
  3 31  1  0  0  0  0
  4 32  1  0  0  0  0
  5 33  1  0  0  0  0
  6 34  1  0  0  0  0
  7 35  1  0  0  0  0
  8 36  1  0  0  0  0
  9 37  1  0  0  0  0
 10 38  1  0  0  0  0
 11 39  1  0  0  0  0
 12 40  1  0  0  0  0
 13 41  1  0  0  0  0
 21 42  1  0  0  0  0
 21 43  1  0  0  0  0
 21 44  1  0  0  0  0
 22 45  1  0  0  0  0
 22 46  1  0  0  0  0
 23 47  1  0  0  0  0
 26 48  1  0  0  0  0
M  END
> <clash_score>
0

> <docking_score>
-6.772678375244141

> <overlap_score>
0.8131723403930664

$$$$
BENZO_212_1
  -OEChem-08232013453D

 46 49  0     1  0  0  0  0  0999 V2000
    3.9160    2.0630   19.5520 C   0  0  0  0  0  0  0  0  0  0  0  0
    4.2750    1.7050   20.8490 C   0  0  0  0  0  0  0  0  0  0  0  0
    9.0720   -1.1280   24.8640 C   0  0  0  0  0  0  0  0  0  0  0  0
    9.7200   -2.2600   22.8630 C   0  0  0  0  0  0  0  0  0  0  0  0
    4.6890    1.6810   18.4640 C   0  0  0  0  0  0  0  0  0  0  0  0
    5.4210    0.9600   21.0930 C   0  0  0  0  0  0  0  0  0  0  0  0
    8.9960   -2.3380   25.5320 C   0  0  0  0  0  0  0  0  0  0  0  0
    9.6730   -3.4710   23.5300 C   0  0  0  0  0  0  0  0  0  0  0  0
   12.0646    2.8761   22.0718 C   0  0  0  0  0  0  0  0  0  0  0  0
   12.0506    4.2394   22.2689 C   0  0  0  0  0  0  0  0  0  0  0  0
   10.5394    3.0670   23.8153 C   0  0  0  0  0  0  0  0  0  0  0  0
    7.6390   -0.2680   18.5410 C   0  0  0  0  0  0  0  0  0  0  0  0
    9.3350   -1.0880   23.5010 C   0  0  0  0  0  0  0  0  0  0  0  0
   11.1891    2.1969   22.9675 C   0  0  0  0  0  0  0  0  0  0  0  0
    5.8300    0.9190   18.6970 C   0  0  0  0  0  0  0  0  0  0  0  0
    6.1790    0.5730   19.9990 C   0  0  0  0  0  0  0  0  0  0  0  0
    9.3070   -3.5340   24.8780 C   0  0  0  0  0  0  0  0  0  0  0  0
    9.0420    0.3700   21.5280 C   0  0  0  0  0  0  0  0  0  0  0  0
    9.5904   -5.8808   24.7807 C   0  0  0  0  0  0  0  0  0  0  0  0
   10.9980    0.6985   22.9845 C   0  0  0  0  0  0  0  0  0  0  0  0
    9.4560    0.1560   22.8130 C   0  0  1  0  0  0  0  0  0  0  0  0
    6.7580    0.3810   17.8350 N   0  0  0  0  0  0  0  0  0  0  0  0
    7.3170   -0.1610   19.8550 N   0  0  0  0  0  0  0  0  0  0  0  0
    8.1890   -0.7180   20.8700 N   0  0  0  0  0  0  0  0  0  0  0  0
    9.2690    1.4140   20.9380 O   0  0  0  0  0  0  0  0  0  0  0  0
    9.2567   -4.7121   25.5280 O   0  0  0  0  0  0  0  0  0  0  0  0
   10.9853    4.6955   23.5296 S   0  0  0  0  0  0  0  0  0  0  0  0
    3.0134    2.6521   19.3911 H   0  0  0  0  0  0  0  0  0  0  0  0
    3.6460    2.0127   21.6812 H   0  0  0  0  0  0  0  0  0  0  0  0
    8.9224   -0.1986   25.4209 H   0  0  0  0  0  0  0  0  0  0  0  0
   10.0638   -2.2321   21.8253 H   0  0  0  0  0  0  0  0  0  0  0  0
    4.4037    1.9731   17.4543 H   0  0  0  0  0  0  0  0  0  0  0  0
    5.7084    0.6923   22.1132 H   0  0  0  0  0  0  0  0  0  0  0  0
    8.6903   -2.3588   26.5807 H   0  0  0  0  0  0  0  0  0  0  0  0
    9.9258   -4.3917   22.9962 H   0  0  0  0  0  0  0  0  0  0  0  0
   12.6757    2.3931   21.3198 H   0  0  0  0  0  0  0  0  0  0  0  0
   12.6155    4.9893   21.7334 H   0  0  0  0  0  0  0  0  0  0  0  0
    9.8247    2.8285   24.5908 H   0  0  0  0  0  0  0  0  0  0  0  0
    8.4862   -0.8060   18.1787 H   0  0  0  0  0  0  0  0  0  0  0  0
    9.5095   -6.7607   25.4235 H   0  0  0  0  0  0  0  0  0  0  0  0
   10.6094   -5.7898   24.3961 H   0  0  0  0  0  0  0  0  0  0  0  0
    8.8947   -5.9784   23.9439 H   0  0  0  0  0  0  0  0  0  0  0  0
   11.6403    0.2667   22.2043 H   0  0  0  0  0  0  0  0  0  0  0  0
   11.3821    0.2882   23.9279 H   0  0  0  0  0  0  0  0  0  0  0  0
    8.9221    0.9705   23.4866 H   0  0  0  0  0  0  0  0  0  0  0  0
    8.2749   -1.5586   21.1247 H   0  0  0  0  0  0  0  0  0  0  0  0
  1  2  1  0  0  0  0
  1  5  2  0  0  0  0
  2  6  2  0  0  0  0
  3  7  2  0  0  0  0
  3 13  1  0  0  0  0
  4  8  1  0  0  0  0
  4 13  2  0  0  0  0
  5 15  1  0  0  0  0
  6 16  1  0  0  0  0
  7 17  1  0  0  0  0
  8 17  2  0  0  0  0
  9 10  2  0  0  0  0
  9 14  1  0  0  0  0
 10 27  1  0  0  0  0
 11 14  2  0  0  0  0
 11 27  1  0  0  0  0
 12 22  2  0  0  0  0
 12 23  1  0  0  0  0
 13 21  1  0  0  0  0
 14 20  1  0  0  0  0
 15 16  2  0  0  0  0
 15 22  1  0  0  0  0
 16 23  1  0  0  0  0
 17 26  1  0  0  0  0
 18 21  1  0  0  0  0
 18 24  1  0  0  0  0
 18 25  2  0  0  0  0
 19 26  1  0  0  0  0
 20 21  1  1  0  0  0
 23 24  1  0  0  0  0
  1 28  1  0  0  0  0
  2 29  1  0  0  0  0
  3 30  1  0  0  0  0
  4 31  1  0  0  0  0
  5 32  1  0  0  0  0
  6 33  1  0  0  0  0
  7 34  1  0  0  0  0
  8 35  1  0  0  0  0
  9 36  1  0  0  0  0
 10 37  1  0  0  0  0
 11 38  1  0  0  0  0
 12 39  1  0  0  0  0
 19 40  1  0  0  0  0
 19 41  1  0  0  0  0
 19 42  1  0  0  0  0
 20 43  1  0  0  0  0
 20 44  1  0  0  0  0
 21 45  1  0  0  0  0
 24 46  1  0  0  0  0
M  END
> <clash_score>
0

> <docking_score>
-9.288773536682129

> <overlap_score>
0.9012904763221741

$$$$
BENZO_212_2
  -OEChem-08232013453D

 46 49  0     1  0  0  0  0  0999 V2000
    3.9160    2.0630   19.5520 C   0  0  0  0  0  0  0  0  0  0  0  0
    4.2750    1.7050   20.8490 C   0  0  0  0  0  0  0  0  0  0  0  0
    9.0720   -1.1280   24.8640 C   0  0  0  0  0  0  0  0  0  0  0  0
    9.7200   -2.2600   22.8630 C   0  0  0  0  0  0  0  0  0  0  0  0
    4.6890    1.6810   18.4640 C   0  0  0  0  0  0  0  0  0  0  0  0
    5.4210    0.9600   21.0930 C   0  0  0  0  0  0  0  0  0  0  0  0
    8.9960   -2.3380   25.5320 C   0  0  0  0  0  0  0  0  0  0  0  0
    9.6730   -3.4710   23.5300 C   0  0  0  0  0  0  0  0  0  0  0  0
   10.9285    2.7711   23.1427 C   0  0  0  0  0  0  0  0  0  0  0  0
   11.3066    4.0806   22.9428 C   0  0  0  0  0  0  0  0  0  0  0  0
    8.9310    3.8875   23.5503 C   0  0  0  0  0  0  0  0  0  0  0  0
    7.6390   -0.2680   18.5410 C   0  0  0  0  0  0  0  0  0  0  0  0
    9.3350   -1.0880   23.5010 C   0  0  0  0  0  0  0  0  0  0  0  0
    9.5523    2.6591   23.4945 C   0  0  0  0  0  0  0  0  0  0  0  0
    5.8300    0.9190   18.6970 C   0  0  0  0  0  0  0  0  0  0  0  0
    6.1790    0.5730   19.9990 C   0  0  0  0  0  0  0  0  0  0  0  0
    9.3070   -3.5340   24.8780 C   0  0  0  0  0  0  0  0  0  0  0  0
    9.0420    0.3700   21.5280 C   0  0  0  0  0  0  0  0  0  0  0  0
    8.8744   -4.6797   26.9022 C   0  0  0  0  0  0  0  0  0  0  0  0
    8.8584    1.3468   23.7740 C   0  0  0  0  0  0  0  0  0  0  0  0
    9.4560    0.1560   22.8130 C   0  0  2  0  0  0  0  0  0  0  0  0
    6.7580    0.3810   17.8350 N   0  0  0  0  0  0  0  0  0  0  0  0
    7.3170   -0.1610   19.8550 N   0  0  0  0  0  0  0  0  0  0  0  0
    8.1890   -0.7180   20.8700 N   0  0  0  0  0  0  0  0  0  0  0  0
    9.2690    1.4140   20.9380 O   0  0  0  0  0  0  0  0  0  0  0  0
    9.2567   -4.7121   25.5280 O   0  0  0  0  0  0  0  0  0  0  0  0
   10.0053    5.1683   23.1793 S   0  0  0  0  0  0  0  0  0  0  0  0
    3.0134    2.6521   19.3911 H   0  0  0  0  0  0  0  0  0  0  0  0
    3.6460    2.0127   21.6812 H   0  0  0  0  0  0  0  0  0  0  0  0
    8.9224   -0.1986   25.4209 H   0  0  0  0  0  0  0  0  0  0  0  0
   10.0638   -2.2321   21.8253 H   0  0  0  0  0  0  0  0  0  0  0  0
    4.4037    1.9731   17.4543 H   0  0  0  0  0  0  0  0  0  0  0  0
    5.7084    0.6923   22.1132 H   0  0  0  0  0  0  0  0  0  0  0  0
    8.6903   -2.3588   26.5807 H   0  0  0  0  0  0  0  0  0  0  0  0
    9.9258   -4.3917   22.9962 H   0  0  0  0  0  0  0  0  0  0  0  0
   11.6102    1.9362   23.0408 H   0  0  0  0  0  0  0  0  0  0  0  0
   12.2848    4.4506   22.6700 H   0  0  0  0  0  0  0  0  0  0  0  0
    7.8985    4.0985   23.7919 H   0  0  0  0  0  0  0  0  0  0  0  0
    8.4862   -0.8060   18.1787 H   0  0  0  0  0  0  0  0  0  0  0  0
    8.8744   -5.6954   27.3053 H   0  0  0  0  0  0  0  0  0  0  0  0
    7.8781   -4.2399   26.9939 H   0  0  0  0  0  0  0  0  0  0  0  0
    9.5921   -4.0702   27.4565 H   0  0  0  0  0  0  0  0  0  0  0  0
    8.9548    1.1352   24.8480 H   0  0  0  0  0  0  0  0  0  0  0  0
    7.7793    1.4560   23.6018 H   0  0  0  0  0  0  0  0  0  0  0  0
   10.5986    0.4624   22.8633 H   0  0  0  0  0  0  0  0  0  0  0  0
    8.2749   -1.5586   21.1247 H   0  0  0  0  0  0  0  0  0  0  0  0
  1  2  1  0  0  0  0
  1  5  2  0  0  0  0
  2  6  2  0  0  0  0
  3  7  2  0  0  0  0
  3 13  1  0  0  0  0
  4  8  1  0  0  0  0
  4 13  2  0  0  0  0
  5 15  1  0  0  0  0
  6 16  1  0  0  0  0
  7 17  1  0  0  0  0
  8 17  2  0  0  0  0
  9 10  2  0  0  0  0
  9 14  1  0  0  0  0
 10 27  1  0  0  0  0
 11 14  2  0  0  0  0
 11 27  1  0  0  0  0
 12 22  2  0  0  0  0
 12 23  1  0  0  0  0
 13 21  1  0  0  0  0
 14 20  1  0  0  0  0
 15 16  2  0  0  0  0
 15 22  1  0  0  0  0
 16 23  1  0  0  0  0
 17 26  1  0  0  0  0
 18 21  1  0  0  0  0
 18 24  1  0  0  0  0
 18 25  2  0  0  0  0
 19 26  1  0  0  0  0
 20 21  1  6  0  0  0
 23 24  1  0  0  0  0
  1 28  1  0  0  0  0
  2 29  1  0  0  0  0
  3 30  1  0  0  0  0
  4 31  1  0  0  0  0
  5 32  1  0  0  0  0
  6 33  1  0  0  0  0
  7 34  1  0  0  0  0
  8 35  1  0  0  0  0
  9 36  1  0  0  0  0
 10 37  1  0  0  0  0
 11 38  1  0  0  0  0
 12 39  1  0  0  0  0
 19 40  1  0  0  0  0
 19 41  1  0  0  0  0
 19 42  1  0  0  0  0
 20 43  1  0  0  0  0
 20 44  1  0  0  0  0
 21 45  1  0  0  0  0
 24 46  1  0  0  0  0
M  END
> <clash_score>
0

> <docking_score>
-8.454306602478027

> <overlap_score>
0.8504156470298767

$$$$
BENZO_213_1
  -OEChem-08232013453D

 49 52  0     1  0  0  0  0  0999 V2000
   11.5406    4.9642   22.9363 C   0  0  0  0  0  0  0  0  0  0  0  0
   12.5552    4.1270   22.4723 C   0  0  0  0  0  0  0  0  0  0  0  0
   10.3502    4.4177   23.4160 C   0  0  0  0  0  0  0  0  0  0  0  0
    3.9160    2.0630   19.5520 C   0  0  0  0  0  0  0  0  0  0  0  0
    4.2750    1.7050   20.8490 C   0  0  0  0  0  0  0  0  0  0  0  0
   12.3795    2.7434   22.4879 C   0  0  0  0  0  0  0  0  0  0  0  0
   10.1745    3.0341   23.4316 C   0  0  0  0  0  0  0  0  0  0  0  0
    9.0720   -1.1280   24.8640 C   0  0  0  0  0  0  0  0  0  0  0  0
    9.7200   -2.2600   22.8630 C   0  0  0  0  0  0  0  0  0  0  0  0
    4.6890    1.6810   18.4640 C   0  0  0  0  0  0  0  0  0  0  0  0
    5.4210    0.9600   21.0930 C   0  0  0  0  0  0  0  0  0  0  0  0
    8.9960   -2.3380   25.5320 C   0  0  0  0  0  0  0  0  0  0  0  0
    9.6730   -3.4710   23.5300 C   0  0  0  0  0  0  0  0  0  0  0  0
    7.6390   -0.2680   18.5410 C   0  0  0  0  0  0  0  0  0  0  0  0
   11.1891    2.1969   22.9675 C   0  0  0  0  0  0  0  0  0  0  0  0
    9.3350   -1.0880   23.5010 C   0  0  0  0  0  0  0  0  0  0  0  0
    5.8300    0.9190   18.6970 C   0  0  0  0  0  0  0  0  0  0  0  0
    6.1790    0.5730   19.9990 C   0  0  0  0  0  0  0  0  0  0  0  0
    9.3070   -3.5340   24.8780 C   0  0  0  0  0  0  0  0  0  0  0  0
    9.0420    0.3700   21.5280 C   0  0  0  0  0  0  0  0  0  0  0  0
    8.8744   -4.6797   26.9022 C   0  0  0  0  0  0  0  0  0  0  0  0
   10.9980    0.6985   22.9845 C   0  0  0  0  0  0  0  0  0  0  0  0
    9.4560    0.1560   22.8130 C   0  0  1  0  0  0  0  0  0  0  0  0
    6.7580    0.3810   17.8350 N   0  0  0  0  0  0  0  0  0  0  0  0
    7.3170   -0.1610   19.8550 N   0  0  0  0  0  0  0  0  0  0  0  0
    8.1890   -0.7180   20.8700 N   0  0  0  0  0  0  0  0  0  0  0  0
    9.2690    1.4140   20.9380 O   0  0  0  0  0  0  0  0  0  0  0  0
    9.2567   -4.7121   25.5280 O   0  0  0  0  0  0  0  0  0  0  0  0
   11.6782    6.0415   22.9253 H   0  0  0  0  0  0  0  0  0  0  0  0
   13.4826    4.5523   22.0998 H   0  0  0  0  0  0  0  0  0  0  0  0
    9.5605    5.0692   23.7783 H   0  0  0  0  0  0  0  0  0  0  0  0
    3.0134    2.6521   19.3911 H   0  0  0  0  0  0  0  0  0  0  0  0
    3.6460    2.0127   21.6812 H   0  0  0  0  0  0  0  0  0  0  0  0
   13.1754    2.0988   22.1242 H   0  0  0  0  0  0  0  0  0  0  0  0
    9.2436    2.6172   23.8070 H   0  0  0  0  0  0  0  0  0  0  0  0
    8.9224   -0.1986   25.4209 H   0  0  0  0  0  0  0  0  0  0  0  0
   10.0638   -2.2321   21.8253 H   0  0  0  0  0  0  0  0  0  0  0  0
    4.4037    1.9731   17.4543 H   0  0  0  0  0  0  0  0  0  0  0  0
    5.7084    0.6923   22.1132 H   0  0  0  0  0  0  0  0  0  0  0  0
    8.6903   -2.3588   26.5807 H   0  0  0  0  0  0  0  0  0  0  0  0
    9.9258   -4.3917   22.9962 H   0  0  0  0  0  0  0  0  0  0  0  0
    8.4862   -0.8060   18.1787 H   0  0  0  0  0  0  0  0  0  0  0  0
    8.8744   -5.6954   27.3053 H   0  0  0  0  0  0  0  0  0  0  0  0
    7.8781   -4.2399   26.9939 H   0  0  0  0  0  0  0  0  0  0  0  0
    9.5921   -4.0702   27.4565 H   0  0  0  0  0  0  0  0  0  0  0  0
   11.6403    0.2667   22.2043 H   0  0  0  0  0  0  0  0  0  0  0  0
   11.3821    0.2882   23.9279 H   0  0  0  0  0  0  0  0  0  0  0  0
    8.9221    0.9705   23.4866 H   0  0  0  0  0  0  0  0  0  0  0  0
    8.2749   -1.5586   21.1247 H   0  0  0  0  0  0  0  0  0  0  0  0
  1  2  1  0  0  0  0
  1  3  2  0  0  0  0
  2  6  2  0  0  0  0
  3  7  1  0  0  0  0
  4  5  1  0  0  0  0
  4 10  2  0  0  0  0
  5 11  2  0  0  0  0
  6 15  1  0  0  0  0
  7 15  2  0  0  0  0
  8 12  2  0  0  0  0
  8 16  1  0  0  0  0
  9 13  1  0  0  0  0
  9 16  2  0  0  0  0
 10 17  1  0  0  0  0
 11 18  1  0  0  0  0
 12 19  1  0  0  0  0
 13 19  2  0  0  0  0
 14 24  2  0  0  0  0
 14 25  1  0  0  0  0
 15 22  1  0  0  0  0
 16 23  1  0  0  0  0
 17 18  2  0  0  0  0
 17 24  1  0  0  0  0
 18 25  1  0  0  0  0
 19 28  1  0  0  0  0
 20 23  1  0  0  0  0
 20 26  1  0  0  0  0
 20 27  2  0  0  0  0
 21 28  1  0  0  0  0
 22 23  1  1  0  0  0
 25 26  1  0  0  0  0
  1 29  1  0  0  0  0
  2 30  1  0  0  0  0
  3 31  1  0  0  0  0
  4 32  1  0  0  0  0
  5 33  1  0  0  0  0
  6 34  1  0  0  0  0
  7 35  1  0  0  0  0
  8 36  1  0  0  0  0
  9 37  1  0  0  0  0
 10 38  1  0  0  0  0
 11 39  1  0  0  0  0
 12 40  1  0  0  0  0
 13 41  1  0  0  0  0
 14 42  1  0  0  0  0
 21 43  1  0  0  0  0
 21 44  1  0  0  0  0
 21 45  1  0  0  0  0
 22 46  1  0  0  0  0
 22 47  1  0  0  0  0
 23 48  1  0  0  0  0
 26 49  1  0  0  0  0
M  END
> <clash_score>
0

> <docking_score>
-10.033480644226074

> <overlap_score>
0.9101424813270569

$$$$
BENZO_213_2
  -OEChem-08232013453D

 49 52  0     1  0  0  0  0  0999 V2000
   10.8333    5.0828   22.9771 C   0  0  0  0  0  0  0  0  0  0  0  0
   11.3431    4.2172   23.9447 C   0  0  0  0  0  0  0  0  0  0  0  0
    9.6829    4.7367   22.2682 C   0  0  0  0  0  0  0  0  0  0  0  0
    3.9160    2.0630   19.5520 C   0  0  0  0  0  0  0  0  0  0  0  0
    4.2750    1.7050   20.8490 C   0  0  0  0  0  0  0  0  0  0  0  0
   10.7027    3.0054   24.2034 C   0  0  0  0  0  0  0  0  0  0  0  0
    9.0424    3.5248   22.5269 C   0  0  0  0  0  0  0  0  0  0  0  0
    9.0720   -1.1280   24.8640 C   0  0  0  0  0  0  0  0  0  0  0  0
    9.7200   -2.2600   22.8630 C   0  0  0  0  0  0  0  0  0  0  0  0
    4.6890    1.6810   18.4640 C   0  0  0  0  0  0  0  0  0  0  0  0
    5.4210    0.9600   21.0930 C   0  0  0  0  0  0  0  0  0  0  0  0
    8.9960   -2.3380   25.5320 C   0  0  0  0  0  0  0  0  0  0  0  0
    9.6730   -3.4710   23.5300 C   0  0  0  0  0  0  0  0  0  0  0  0
    7.6390   -0.2680   18.5410 C   0  0  0  0  0  0  0  0  0  0  0  0
    9.5523    2.6591   23.4945 C   0  0  0  0  0  0  0  0  0  0  0  0
    9.3350   -1.0880   23.5010 C   0  0  0  0  0  0  0  0  0  0  0  0
    5.8300    0.9190   18.6970 C   0  0  0  0  0  0  0  0  0  0  0  0
    6.1790    0.5730   19.9990 C   0  0  0  0  0  0  0  0  0  0  0  0
    9.3070   -3.5340   24.8780 C   0  0  0  0  0  0  0  0  0  0  0  0
    9.0420    0.3700   21.5280 C   0  0  0  0  0  0  0  0  0  0  0  0
    9.5904   -5.8808   24.7807 C   0  0  0  0  0  0  0  0  0  0  0  0
    8.8584    1.3468   23.7740 C   0  0  0  0  0  0  0  0  0  0  0  0
    9.4560    0.1560   22.8130 C   0  0  2  0  0  0  0  0  0  0  0  0
    6.7580    0.3810   17.8350 N   0  0  0  0  0  0  0  0  0  0  0  0
    7.3170   -0.1610   19.8550 N   0  0  0  0  0  0  0  0  0  0  0  0
    8.1890   -0.7180   20.8700 N   0  0  0  0  0  0  0  0  0  0  0  0
    9.2690    1.4140   20.9380 O   0  0  0  0  0  0  0  0  0  0  0  0
    9.2567   -4.7121   25.5280 O   0  0  0  0  0  0  0  0  0  0  0  0
   11.3313    6.0270   22.7767 H   0  0  0  0  0  0  0  0  0  0  0  0
   12.2382    4.4870   24.4976 H   0  0  0  0  0  0  0  0  0  0  0  0
    9.2850    5.4109   21.5155 H   0  0  0  0  0  0  0  0  0  0  0  0
    3.0134    2.6521   19.3911 H   0  0  0  0  0  0  0  0  0  0  0  0
    3.6460    2.0127   21.6812 H   0  0  0  0  0  0  0  0  0  0  0  0
   11.1072    2.3370   24.9590 H   0  0  0  0  0  0  0  0  0  0  0  0
    8.1468    3.2634   21.9695 H   0  0  0  0  0  0  0  0  0  0  0  0
    8.9224   -0.1986   25.4209 H   0  0  0  0  0  0  0  0  0  0  0  0
   10.0638   -2.2321   21.8253 H   0  0  0  0  0  0  0  0  0  0  0  0
    4.4037    1.9731   17.4543 H   0  0  0  0  0  0  0  0  0  0  0  0
    5.7084    0.6923   22.1132 H   0  0  0  0  0  0  0  0  0  0  0  0
    8.6903   -2.3588   26.5807 H   0  0  0  0  0  0  0  0  0  0  0  0
    9.9258   -4.3917   22.9962 H   0  0  0  0  0  0  0  0  0  0  0  0
    8.4862   -0.8060   18.1787 H   0  0  0  0  0  0  0  0  0  0  0  0
    9.5095   -6.7607   25.4235 H   0  0  0  0  0  0  0  0  0  0  0  0
   10.6094   -5.7898   24.3961 H   0  0  0  0  0  0  0  0  0  0  0  0
    8.8947   -5.9784   23.9439 H   0  0  0  0  0  0  0  0  0  0  0  0
    8.9548    1.1352   24.8480 H   0  0  0  0  0  0  0  0  0  0  0  0
    7.7793    1.4560   23.6018 H   0  0  0  0  0  0  0  0  0  0  0  0
   10.5986    0.4624   22.8633 H   0  0  0  0  0  0  0  0  0  0  0  0
    8.2749   -1.5586   21.1247 H   0  0  0  0  0  0  0  0  0  0  0  0
  1  2  1  0  0  0  0
  1  3  2  0  0  0  0
  2  6  2  0  0  0  0
  3  7  1  0  0  0  0
  4  5  1  0  0  0  0
  4 10  2  0  0  0  0
  5 11  2  0  0  0  0
  6 15  1  0  0  0  0
  7 15  2  0  0  0  0
  8 12  2  0  0  0  0
  8 16  1  0  0  0  0
  9 13  1  0  0  0  0
  9 16  2  0  0  0  0
 10 17  1  0  0  0  0
 11 18  1  0  0  0  0
 12 19  1  0  0  0  0
 13 19  2  0  0  0  0
 14 24  2  0  0  0  0
 14 25  1  0  0  0  0
 15 22  1  0  0  0  0
 16 23  1  0  0  0  0
 17 18  2  0  0  0  0
 17 24  1  0  0  0  0
 18 25  1  0  0  0  0
 19 28  1  0  0  0  0
 20 23  1  0  0  0  0
 20 26  1  0  0  0  0
 20 27  2  0  0  0  0
 21 28  1  0  0  0  0
 22 23  1  6  0  0  0
 25 26  1  0  0  0  0
  1 29  1  0  0  0  0
  2 30  1  0  0  0  0
  3 31  1  0  0  0  0
  4 32  1  0  0  0  0
  5 33  1  0  0  0  0
  6 34  1  0  0  0  0
  7 35  1  0  0  0  0
  8 36  1  0  0  0  0
  9 37  1  0  0  0  0
 10 38  1  0  0  0  0
 11 39  1  0  0  0  0
 12 40  1  0  0  0  0
 13 41  1  0  0  0  0
 14 42  1  0  0  0  0
 21 43  1  0  0  0  0
 21 44  1  0  0  0  0
 21 45  1  0  0  0  0
 22 46  1  0  0  0  0
 22 47  1  0  0  0  0
 23 48  1  0  0  0  0
 26 49  1  0  0  0  0
M  END
> <clash_score>
0

> <docking_score>
-7.213127136230469

> <overlap_score>
0.837800145149231

$$$$
BENZO_215_1
  -OEChem-08232013453D

 49 52  0     1  0  0  0  0  0999 V2000
    3.9160    2.0630   19.5520 C   0  0  0  0  0  0  0  0  0  0  0  0
    4.2750    1.7050   20.8490 C   0  0  0  0  0  0  0  0  0  0  0  0
    9.0720   -1.1280   24.8640 C   0  0  0  0  0  0  0  0  0  0  0  0
    9.7200   -2.2600   22.8630 C   0  0  0  0  0  0  0  0  0  0  0  0
    4.6890    1.6810   18.4640 C   0  0  0  0  0  0  0  0  0  0  0  0
    5.4210    0.9600   21.0930 C   0  0  0  0  0  0  0  0  0  0  0  0
    8.9960   -2.3380   25.5320 C   0  0  0  0  0  0  0  0  0  0  0  0
    9.6730   -3.4710   23.5300 C   0  0  0  0  0  0  0  0  0  0  0  0
   10.2850    3.1879   23.3945 C   0  0  0  0  0  0  0  0  0  0  0  0
   12.2874    2.8981   22.5336 C   0  0  0  0  0  0  0  0  0  0  0  0
    7.6390   -0.2680   18.5410 C   0  0  0  0  0  0  0  0  0  0  0  0
    9.3350   -1.0880   23.5010 C   0  0  0  0  0  0  0  0  0  0  0  0
   11.1891    2.1969   22.9675 C   0  0  0  0  0  0  0  0  0  0  0  0
    5.8300    0.9190   18.6970 C   0  0  0  0  0  0  0  0  0  0  0  0
    6.1790    0.5730   19.9990 C   0  0  0  0  0  0  0  0  0  0  0  0
    9.3070   -3.5340   24.8780 C   0  0  0  0  0  0  0  0  0  0  0  0
    9.0420    0.3700   21.5280 C   0  0  0  0  0  0  0  0  0  0  0  0
   12.8361    5.3400   22.4104 C   0  0  0  0  0  0  0  0  0  0  0  0
    8.8744   -4.6797   26.9022 C   0  0  0  0  0  0  0  0  0  0  0  0
   10.9980    0.6985   22.9845 C   0  0  0  0  0  0  0  0  0  0  0  0
    9.4560    0.1560   22.8130 C   0  0  1  0  0  0  0  0  0  0  0  0
   10.7672    4.4245   23.2454 N   0  0  0  0  0  0  0  0  0  0  0  0
    6.7580    0.3810   17.8350 N   0  0  0  0  0  0  0  0  0  0  0  0
   11.9863    4.2152   22.7200 N   0  0  0  0  0  0  0  0  0  0  0  0
    7.3170   -0.1610   19.8550 N   0  0  0  0  0  0  0  0  0  0  0  0
    8.1890   -0.7180   20.8700 N   0  0  0  0  0  0  0  0  0  0  0  0
    9.2690    1.4140   20.9380 O   0  0  0  0  0  0  0  0  0  0  0  0
    9.2567   -4.7121   25.5280 O   0  0  0  0  0  0  0  0  0  0  0  0
    3.0134    2.6521   19.3911 H   0  0  0  0  0  0  0  0  0  0  0  0
    3.6460    2.0127   21.6812 H   0  0  0  0  0  0  0  0  0  0  0  0
    8.9224   -0.1986   25.4209 H   0  0  0  0  0  0  0  0  0  0  0  0
   10.0638   -2.2321   21.8253 H   0  0  0  0  0  0  0  0  0  0  0  0
    4.4037    1.9731   17.4543 H   0  0  0  0  0  0  0  0  0  0  0  0
    5.7084    0.6923   22.1132 H   0  0  0  0  0  0  0  0  0  0  0  0
    8.6903   -2.3588   26.5807 H   0  0  0  0  0  0  0  0  0  0  0  0
    9.9258   -4.3917   22.9962 H   0  0  0  0  0  0  0  0  0  0  0  0
    9.2947    3.0629   23.8092 H   0  0  0  0  0  0  0  0  0  0  0  0
   13.2346    2.5800   22.1195 H   0  0  0  0  0  0  0  0  0  0  0  0
    8.4862   -0.8060   18.1787 H   0  0  0  0  0  0  0  0  0  0  0  0
   12.6295    5.6456   21.3814 H   0  0  0  0  0  0  0  0  0  0  0  0
   12.6226    6.1591   23.1027 H   0  0  0  0  0  0  0  0  0  0  0  0
   13.8829    5.0428   22.5193 H   0  0  0  0  0  0  0  0  0  0  0  0
    8.8744   -5.6954   27.3053 H   0  0  0  0  0  0  0  0  0  0  0  0
    7.8781   -4.2399   26.9939 H   0  0  0  0  0  0  0  0  0  0  0  0
    9.5921   -4.0702   27.4565 H   0  0  0  0  0  0  0  0  0  0  0  0
   11.6403    0.2667   22.2043 H   0  0  0  0  0  0  0  0  0  0  0  0
   11.3821    0.2882   23.9279 H   0  0  0  0  0  0  0  0  0  0  0  0
    8.9221    0.9705   23.4866 H   0  0  0  0  0  0  0  0  0  0  0  0
    8.2749   -1.5586   21.1247 H   0  0  0  0  0  0  0  0  0  0  0  0
  1  2  1  0  0  0  0
  1  5  2  0  0  0  0
  2  6  2  0  0  0  0
  3  7  2  0  0  0  0
  3 12  1  0  0  0  0
  4  8  1  0  0  0  0
  4 12  2  0  0  0  0
  5 14  1  0  0  0  0
  6 15  1  0  0  0  0
  7 16  1  0  0  0  0
  8 16  2  0  0  0  0
  9 13  1  0  0  0  0
  9 22  2  0  0  0  0
 10 13  2  0  0  0  0
 10 24  1  0  0  0  0
 11 23  2  0  0  0  0
 11 25  1  0  0  0  0
 12 21  1  0  0  0  0
 13 20  1  0  0  0  0
 14 15  2  0  0  0  0
 14 23  1  0  0  0  0
 15 25  1  0  0  0  0
 16 28  1  0  0  0  0
 17 21  1  0  0  0  0
 17 26  1  0  0  0  0
 17 27  2  0  0  0  0
 18 24  1  0  0  0  0
 19 28  1  0  0  0  0
 20 21  1  1  0  0  0
 22 24  1  0  0  0  0
 25 26  1  0  0  0  0
  1 29  1  0  0  0  0
  2 30  1  0  0  0  0
  3 31  1  0  0  0  0
  4 32  1  0  0  0  0
  5 33  1  0  0  0  0
  6 34  1  0  0  0  0
  7 35  1  0  0  0  0
  8 36  1  0  0  0  0
  9 37  1  0  0  0  0
 10 38  1  0  0  0  0
 11 39  1  0  0  0  0
 18 40  1  0  0  0  0
 18 41  1  0  0  0  0
 18 42  1  0  0  0  0
 19 43  1  0  0  0  0
 19 44  1  0  0  0  0
 19 45  1  0  0  0  0
 20 46  1  0  0  0  0
 20 47  1  0  0  0  0
 21 48  1  0  0  0  0
 26 49  1  0  0  0  0
M  END
> <clash_score>
0

> <docking_score>
-9.933043479919434

> <overlap_score>
0.9068067073822021

$$$$
BENZO_215_2
  -OEChem-08232013453D

 49 52  0     1  0  0  0  0  0999 V2000
    3.9160    2.0630   19.5520 C   0  0  0  0  0  0  0  0  0  0  0  0
    4.2750    1.7050   20.8490 C   0  0  0  0  0  0  0  0  0  0  0  0
    9.0720   -1.1280   24.8640 C   0  0  0  0  0  0  0  0  0  0  0  0
    9.7200   -2.2600   22.8630 C   0  0  0  0  0  0  0  0  0  0  0  0
    4.6890    1.6810   18.4640 C   0  0  0  0  0  0  0  0  0  0  0  0
    5.4210    0.9600   21.0930 C   0  0  0  0  0  0  0  0  0  0  0  0
    8.9960   -2.3380   25.5320 C   0  0  0  0  0  0  0  0  0  0  0  0
    9.6730   -3.4710   23.5300 C   0  0  0  0  0  0  0  0  0  0  0  0
   10.8722    2.8605   23.0481 C   0  0  0  0  0  0  0  0  0  0  0  0
    9.0344    3.9253   23.6169 C   0  0  0  0  0  0  0  0  0  0  0  0
    7.6390   -0.2680   18.5410 C   0  0  0  0  0  0  0  0  0  0  0  0
    9.3350   -1.0880   23.5010 C   0  0  0  0  0  0  0  0  0  0  0  0
    9.5523    2.6591   23.4945 C   0  0  0  0  0  0  0  0  0  0  0  0
    5.8300    0.9190   18.6970 C   0  0  0  0  0  0  0  0  0  0  0  0
    6.1790    0.5730   19.9990 C   0  0  0  0  0  0  0  0  0  0  0  0
    9.3070   -3.5340   24.8780 C   0  0  0  0  0  0  0  0  0  0  0  0
    9.0420    0.3700   21.5280 C   0  0  0  0  0  0  0  0  0  0  0  0
    9.9673    6.2162   23.2165 C   0  0  0  0  0  0  0  0  0  0  0  0
    9.5904   -5.8808   24.7807 C   0  0  0  0  0  0  0  0  0  0  0  0
    8.8584    1.3468   23.7740 C   0  0  0  0  0  0  0  0  0  0  0  0
    9.4560    0.1560   22.8130 C   0  0  2  0  0  0  0  0  0  0  0  0
   11.1739    4.1528   22.8970 N   0  0  0  0  0  0  0  0  0  0  0  0
    6.7580    0.3810   17.8350 N   0  0  0  0  0  0  0  0  0  0  0  0
   10.0363    4.7750   23.2503 N   0  0  0  0  0  0  0  0  0  0  0  0
    7.3170   -0.1610   19.8550 N   0  0  0  0  0  0  0  0  0  0  0  0
    8.1890   -0.7180   20.8700 N   0  0  0  0  0  0  0  0  0  0  0  0
    9.2690    1.4140   20.9380 O   0  0  0  0  0  0  0  0  0  0  0  0
    9.2567   -4.7121   25.5280 O   0  0  0  0  0  0  0  0  0  0  0  0
    3.0134    2.6521   19.3911 H   0  0  0  0  0  0  0  0  0  0  0  0
    3.6460    2.0127   21.6812 H   0  0  0  0  0  0  0  0  0  0  0  0
    8.9224   -0.1986   25.4209 H   0  0  0  0  0  0  0  0  0  0  0  0
   10.0638   -2.2321   21.8253 H   0  0  0  0  0  0  0  0  0  0  0  0
    4.4037    1.9731   17.4543 H   0  0  0  0  0  0  0  0  0  0  0  0
    5.7084    0.6923   22.1132 H   0  0  0  0  0  0  0  0  0  0  0  0
    8.6903   -2.3588   26.5807 H   0  0  0  0  0  0  0  0  0  0  0  0
    9.9258   -4.3917   22.9962 H   0  0  0  0  0  0  0  0  0  0  0  0
   11.6282    2.1210   22.8251 H   0  0  0  0  0  0  0  0  0  0  0  0
    8.0619    4.2851   23.9247 H   0  0  0  0  0  0  0  0  0  0  0  0
    8.4862   -0.8060   18.1787 H   0  0  0  0  0  0  0  0  0  0  0  0
   10.2789    6.5919   24.1946 H   0  0  0  0  0  0  0  0  0  0  0  0
   10.6298    6.5942   22.4329 H   0  0  0  0  0  0  0  0  0  0  0  0
    8.9411    6.5238   22.9969 H   0  0  0  0  0  0  0  0  0  0  0  0
    9.5095   -6.7607   25.4235 H   0  0  0  0  0  0  0  0  0  0  0  0
   10.6094   -5.7898   24.3961 H   0  0  0  0  0  0  0  0  0  0  0  0
    8.8947   -5.9784   23.9439 H   0  0  0  0  0  0  0  0  0  0  0  0
    8.9548    1.1352   24.8480 H   0  0  0  0  0  0  0  0  0  0  0  0
    7.7793    1.4560   23.6018 H   0  0  0  0  0  0  0  0  0  0  0  0
   10.5986    0.4624   22.8633 H   0  0  0  0  0  0  0  0  0  0  0  0
    8.2749   -1.5586   21.1247 H   0  0  0  0  0  0  0  0  0  0  0  0
  1  2  1  0  0  0  0
  1  5  2  0  0  0  0
  2  6  2  0  0  0  0
  3  7  2  0  0  0  0
  3 12  1  0  0  0  0
  4  8  1  0  0  0  0
  4 12  2  0  0  0  0
  5 14  1  0  0  0  0
  6 15  1  0  0  0  0
  7 16  1  0  0  0  0
  8 16  2  0  0  0  0
  9 13  1  0  0  0  0
  9 22  2  0  0  0  0
 10 13  2  0  0  0  0
 10 24  1  0  0  0  0
 11 23  2  0  0  0  0
 11 25  1  0  0  0  0
 12 21  1  0  0  0  0
 13 20  1  0  0  0  0
 14 15  2  0  0  0  0
 14 23  1  0  0  0  0
 15 25  1  0  0  0  0
 16 28  1  0  0  0  0
 17 21  1  0  0  0  0
 17 26  1  0  0  0  0
 17 27  2  0  0  0  0
 18 24  1  0  0  0  0
 19 28  1  0  0  0  0
 20 21  1  6  0  0  0
 22 24  1  0  0  0  0
 25 26  1  0  0  0  0
  1 29  1  0  0  0  0
  2 30  1  0  0  0  0
  3 31  1  0  0  0  0
  4 32  1  0  0  0  0
  5 33  1  0  0  0  0
  6 34  1  0  0  0  0
  7 35  1  0  0  0  0
  8 36  1  0  0  0  0
  9 37  1  0  0  0  0
 10 38  1  0  0  0  0
 11 39  1  0  0  0  0
 18 40  1  0  0  0  0
 18 41  1  0  0  0  0
 18 42  1  0  0  0  0
 19 43  1  0  0  0  0
 19 44  1  0  0  0  0
 19 45  1  0  0  0  0
 20 46  1  0  0  0  0
 20 47  1  0  0  0  0
 21 48  1  0  0  0  0
 26 49  1  0  0  0  0
M  END
> <clash_score>
0

> <docking_score>
-8.725586891174316

> <overlap_score>
0.8476026654243469

$$$$
BENZO_214_1
  -OEChem-08232013453D

 49 52  0     1  0  0  0  0  0999 V2000
    3.9160    2.0630   19.5520 C   0  0  0  0  0  0  0  0  0  0  0  0
    4.2750    1.7050   20.8490 C   0  0  0  0  0  0  0  0  0  0  0  0
   10.3511    4.4175   23.4183 C   0  0  0  0  0  0  0  0  0  0  0  0
   10.1749    3.0340   23.4326 C   0  0  0  0  0  0  0  0  0  0  0  0
    9.0720   -1.1280   24.8640 C   0  0  0  0  0  0  0  0  0  0  0  0
    9.7200   -2.2600   22.8630 C   0  0  0  0  0  0  0  0  0  0  0  0
    4.6890    1.6810   18.4640 C   0  0  0  0  0  0  0  0  0  0  0  0
    5.4210    0.9600   21.0930 C   0  0  0  0  0  0  0  0  0  0  0  0
    8.9960   -2.3380   25.5320 C   0  0  0  0  0  0  0  0  0  0  0  0
    9.6730   -3.4710   23.5300 C   0  0  0  0  0  0  0  0  0  0  0  0
   11.5416    4.9641   22.9388 C   0  0  0  0  0  0  0  0  0  0  0  0
   12.3796    2.7434   22.4881 C   0  0  0  0  0  0  0  0  0  0  0  0
    7.6390   -0.2680   18.5410 C   0  0  0  0  0  0  0  0  0  0  0  0
    9.3350   -1.0880   23.5010 C   0  0  0  0  0  0  0  0  0  0  0  0
   11.1891    2.1969   22.9675 C   0  0  0  0  0  0  0  0  0  0  0  0
    5.8300    0.9190   18.6970 C   0  0  0  0  0  0  0  0  0  0  0  0
    6.1790    0.5730   19.9990 C   0  0  0  0  0  0  0  0  0  0  0  0
    9.3070   -3.5340   24.8780 C   0  0  0  0  0  0  0  0  0  0  0  0
   12.5558    4.1270   22.4738 C   0  0  0  0  0  0  0  0  0  0  0  0
    9.0420    0.3700   21.5280 C   0  0  0  0  0  0  0  0  0  0  0  0
    9.5904   -5.8808   24.7807 C   0  0  0  0  0  0  0  0  0  0  0  0
   10.9980    0.6985   22.9845 C   0  0  0  0  0  0  0  0  0  0  0  0
    9.4560    0.1560   22.8130 C   0  0  1  0  0  0  0  0  0  0  0  0
    6.7580    0.3810   17.8350 N   0  0  0  0  0  0  0  0  0  0  0  0
    7.3170   -0.1610   19.8550 N   0  0  0  0  0  0  0  0  0  0  0  0
    8.1890   -0.7180   20.8700 N   0  0  0  0  0  0  0  0  0  0  0  0
    9.2690    1.4140   20.9380 O   0  0  0  0  0  0  0  0  0  0  0  0
    9.2567   -4.7121   25.5280 O   0  0  0  0  0  0  0  0  0  0  0  0
   14.0247    4.8018   21.8834 Cl  0  0  0  0  0  0  0  0  0  0  0  0
    3.0134    2.6521   19.3911 H   0  0  0  0  0  0  0  0  0  0  0  0
    3.6460    2.0127   21.6812 H   0  0  0  0  0  0  0  0  0  0  0  0
    9.5612    5.0691   23.7807 H   0  0  0  0  0  0  0  0  0  0  0  0
    9.2441    2.6169   23.8081 H   0  0  0  0  0  0  0  0  0  0  0  0
    8.9224   -0.1986   25.4209 H   0  0  0  0  0  0  0  0  0  0  0  0
   10.0638   -2.2321   21.8253 H   0  0  0  0  0  0  0  0  0  0  0  0
    4.4037    1.9731   17.4543 H   0  0  0  0  0  0  0  0  0  0  0  0
    5.7084    0.6923   22.1132 H   0  0  0  0  0  0  0  0  0  0  0  0
    8.6903   -2.3588   26.5807 H   0  0  0  0  0  0  0  0  0  0  0  0
    9.9258   -4.3917   22.9962 H   0  0  0  0  0  0  0  0  0  0  0  0
   11.6652    6.0443   22.9339 H   0  0  0  0  0  0  0  0  0  0  0  0
   13.1671    2.0865   22.1261 H   0  0  0  0  0  0  0  0  0  0  0  0
    8.4862   -0.8060   18.1787 H   0  0  0  0  0  0  0  0  0  0  0  0
    9.5095   -6.7607   25.4235 H   0  0  0  0  0  0  0  0  0  0  0  0
   10.6094   -5.7898   24.3961 H   0  0  0  0  0  0  0  0  0  0  0  0
    8.8947   -5.9784   23.9439 H   0  0  0  0  0  0  0  0  0  0  0  0
   11.6403    0.2667   22.2043 H   0  0  0  0  0  0  0  0  0  0  0  0
   11.3821    0.2882   23.9279 H   0  0  0  0  0  0  0  0  0  0  0  0
    8.9221    0.9705   23.4866 H   0  0  0  0  0  0  0  0  0  0  0  0
    8.2749   -1.5586   21.1247 H   0  0  0  0  0  0  0  0  0  0  0  0
  1  2  1  0  0  0  0
  1  7  2  0  0  0  0
  2  8  2  0  0  0  0
  3  4  2  0  0  0  0
  3 11  1  0  0  0  0
  4 15  1  0  0  0  0
  5  9  2  0  0  0  0
  5 14  1  0  0  0  0
  6 10  1  0  0  0  0
  6 14  2  0  0  0  0
  7 16  1  0  0  0  0
  8 17  1  0  0  0  0
  9 18  1  0  0  0  0
 10 18  2  0  0  0  0
 11 19  2  0  0  0  0
 12 15  2  0  0  0  0
 12 19  1  0  0  0  0
 13 24  2  0  0  0  0
 13 25  1  0  0  0  0
 14 23  1  0  0  0  0
 15 22  1  0  0  0  0
 16 17  2  0  0  0  0
 16 24  1  0  0  0  0
 17 25  1  0  0  0  0
 18 28  1  0  0  0  0
 19 29  1  0  0  0  0
 20 23  1  0  0  0  0
 20 26  1  0  0  0  0
 20 27  2  0  0  0  0
 21 28  1  0  0  0  0
 22 23  1  1  0  0  0
 25 26  1  0  0  0  0
  1 30  1  0  0  0  0
  2 31  1  0  0  0  0
  3 32  1  0  0  0  0
  4 33  1  0  0  0  0
  5 34  1  0  0  0  0
  6 35  1  0  0  0  0
  7 36  1  0  0  0  0
  8 37  1  0  0  0  0
  9 38  1  0  0  0  0
 10 39  1  0  0  0  0
 11 40  1  0  0  0  0
 12 41  1  0  0  0  0
 13 42  1  0  0  0  0
 21 43  1  0  0  0  0
 21 44  1  0  0  0  0
 21 45  1  0  0  0  0
 22 46  1  0  0  0  0
 22 47  1  0  0  0  0
 23 48  1  0  0  0  0
 26 49  1  0  0  0  0
M  END
> <clash_score>
0

> <docking_score>
-10.274869918823242

> <overlap_score>
0.9134529232978821

$$$$
BENZO_214_2
  -OEChem-08232013453D

 49 52  0     1  0  0  0  0  0999 V2000
    3.9160    2.0630   19.5520 C   0  0  0  0  0  0  0  0  0  0  0  0
    4.2750    1.7050   20.8490 C   0  0  0  0  0  0  0  0  0  0  0  0
    9.6814    4.7377   22.2699 C   0  0  0  0  0  0  0  0  0  0  0  0
    9.0418    3.5253   22.5276 C   0  0  0  0  0  0  0  0  0  0  0  0
    9.0720   -1.1280   24.8640 C   0  0  0  0  0  0  0  0  0  0  0  0
    9.7200   -2.2600   22.8630 C   0  0  0  0  0  0  0  0  0  0  0  0
    4.6890    1.6810   18.4640 C   0  0  0  0  0  0  0  0  0  0  0  0
    5.4210    0.9600   21.0930 C   0  0  0  0  0  0  0  0  0  0  0  0
    8.9960   -2.3380   25.5320 C   0  0  0  0  0  0  0  0  0  0  0  0
    9.6730   -3.4710   23.5300 C   0  0  0  0  0  0  0  0  0  0  0  0
   10.8316    5.0840   22.9789 C   0  0  0  0  0  0  0  0  0  0  0  0
   10.7025    3.0055   24.2036 C   0  0  0  0  0  0  0  0  0  0  0  0
    7.6390   -0.2680   18.5410 C   0  0  0  0  0  0  0  0  0  0  0  0
    9.3350   -1.0880   23.5010 C   0  0  0  0  0  0  0  0  0  0  0  0
    9.5523    2.6591   23.4945 C   0  0  0  0  0  0  0  0  0  0  0  0
    5.8300    0.9190   18.6970 C   0  0  0  0  0  0  0  0  0  0  0  0
    6.1790    0.5730   19.9990 C   0  0  0  0  0  0  0  0  0  0  0  0
    9.3070   -3.5340   24.8780 C   0  0  0  0  0  0  0  0  0  0  0  0
   11.3422    4.2179   23.9458 C   0  0  0  0  0  0  0  0  0  0  0  0
    9.0420    0.3700   21.5280 C   0  0  0  0  0  0  0  0  0  0  0  0
    9.5904   -5.8808   24.7807 C   0  0  0  0  0  0  0  0  0  0  0  0
    8.8584    1.3468   23.7740 C   0  0  0  0  0  0  0  0  0  0  0  0
    9.4560    0.1560   22.8130 C   0  0  2  0  0  0  0  0  0  0  0  0
    6.7580    0.3810   17.8350 N   0  0  0  0  0  0  0  0  0  0  0  0
    7.3170   -0.1610   19.8550 N   0  0  0  0  0  0  0  0  0  0  0  0
    8.1890   -0.7180   20.8700 N   0  0  0  0  0  0  0  0  0  0  0  0
    9.2690    1.4140   20.9380 O   0  0  0  0  0  0  0  0  0  0  0  0
    9.2567   -4.7121   25.5280 O   0  0  0  0  0  0  0  0  0  0  0  0
   12.7607    4.6463   24.8211 Cl  0  0  0  0  0  0  0  0  0  0  0  0
    3.0134    2.6521   19.3911 H   0  0  0  0  0  0  0  0  0  0  0  0
    3.6460    2.0127   21.6812 H   0  0  0  0  0  0  0  0  0  0  0  0
    9.2834    5.4119   21.5170 H   0  0  0  0  0  0  0  0  0  0  0  0
    8.1460    3.2636   21.9704 H   0  0  0  0  0  0  0  0  0  0  0  0
    8.9224   -0.1986   25.4209 H   0  0  0  0  0  0  0  0  0  0  0  0
   10.0638   -2.2321   21.8253 H   0  0  0  0  0  0  0  0  0  0  0  0
    4.4037    1.9731   17.4543 H   0  0  0  0  0  0  0  0  0  0  0  0
    5.7084    0.6923   22.1132 H   0  0  0  0  0  0  0  0  0  0  0  0
    8.6903   -2.3588   26.5807 H   0  0  0  0  0  0  0  0  0  0  0  0
    9.9258   -4.3917   22.9962 H   0  0  0  0  0  0  0  0  0  0  0  0
   11.3195    6.0324   22.7676 H   0  0  0  0  0  0  0  0  0  0  0  0
   11.0970    2.3265   24.9561 H   0  0  0  0  0  0  0  0  0  0  0  0
    8.4862   -0.8060   18.1787 H   0  0  0  0  0  0  0  0  0  0  0  0
    9.5095   -6.7607   25.4235 H   0  0  0  0  0  0  0  0  0  0  0  0
   10.6094   -5.7898   24.3961 H   0  0  0  0  0  0  0  0  0  0  0  0
    8.8947   -5.9784   23.9439 H   0  0  0  0  0  0  0  0  0  0  0  0
    8.9548    1.1352   24.8480 H   0  0  0  0  0  0  0  0  0  0  0  0
    7.7793    1.4560   23.6018 H   0  0  0  0  0  0  0  0  0  0  0  0
   10.5986    0.4624   22.8633 H   0  0  0  0  0  0  0  0  0  0  0  0
    8.2749   -1.5586   21.1247 H   0  0  0  0  0  0  0  0  0  0  0  0
  1  2  1  0  0  0  0
  1  7  2  0  0  0  0
  2  8  2  0  0  0  0
  3  4  2  0  0  0  0
  3 11  1  0  0  0  0
  4 15  1  0  0  0  0
  5  9  2  0  0  0  0
  5 14  1  0  0  0  0
  6 10  1  0  0  0  0
  6 14  2  0  0  0  0
  7 16  1  0  0  0  0
  8 17  1  0  0  0  0
  9 18  1  0  0  0  0
 10 18  2  0  0  0  0
 11 19  2  0  0  0  0
 12 15  2  0  0  0  0
 12 19  1  0  0  0  0
 13 24  2  0  0  0  0
 13 25  1  0  0  0  0
 14 23  1  0  0  0  0
 15 22  1  0  0  0  0
 16 17  2  0  0  0  0
 16 24  1  0  0  0  0
 17 25  1  0  0  0  0
 18 28  1  0  0  0  0
 19 29  1  0  0  0  0
 20 23  1  0  0  0  0
 20 26  1  0  0  0  0
 20 27  2  0  0  0  0
 21 28  1  0  0  0  0
 22 23  1  6  0  0  0
 25 26  1  0  0  0  0
  1 30  1  0  0  0  0
  2 31  1  0  0  0  0
  3 32  1  0  0  0  0
  4 33  1  0  0  0  0
  5 34  1  0  0  0  0
  6 35  1  0  0  0  0
  7 36  1  0  0  0  0
  8 37  1  0  0  0  0
  9 38  1  0  0  0  0
 10 39  1  0  0  0  0
 11 40  1  0  0  0  0
 12 41  1  0  0  0  0
 13 42  1  0  0  0  0
 21 43  1  0  0  0  0
 21 44  1  0  0  0  0
 21 45  1  0  0  0  0
 22 46  1  0  0  0  0
 22 47  1  0  0  0  0
 23 48  1  0  0  0  0
 26 49  1  0  0  0  0
M  END
> <clash_score>
0

> <docking_score>
-6.479565620422363

> <overlap_score>
0.8381741046905518

$$$$
BENZO_217_1
  -OEChem-08232013453D

 59 63  0     1  0  0  0  0  0999 V2000
   10.8376    5.0659   22.8580 C   0  0  0  0  0  0  0  0  0  0  0  0
   11.3489    4.2229   23.8445 C   0  0  0  0  0  0  0  0  0  0  0  0
    9.6822    4.7068   22.1638 C   0  0  0  0  0  0  0  0  0  0  0  0
    3.9160    2.0630   19.5520 C   0  0  0  0  0  0  0  0  0  0  0  0
    4.2750    1.7050   20.8490 C   0  0  0  0  0  0  0  0  0  0  0  0
   10.7049    3.0206   24.1369 C   0  0  0  0  0  0  0  0  0  0  0  0
    9.0382    3.5045   22.4562 C   0  0  0  0  0  0  0  0  0  0  0  0
    9.0720   -1.1280   24.8640 C   0  0  0  0  0  0  0  0  0  0  0  0
    9.7200   -2.2600   22.8630 C   0  0  0  0  0  0  0  0  0  0  0  0
    4.6890    1.6810   18.4640 C   0  0  0  0  0  0  0  0  0  0  0  0
    5.4210    0.9600   21.0930 C   0  0  0  0  0  0  0  0  0  0  0  0
    8.9960   -2.3380   25.5320 C   0  0  0  0  0  0  0  0  0  0  0  0
    9.6730   -3.4710   23.5300 C   0  0  0  0  0  0  0  0  0  0  0  0
    7.6390   -0.2680   18.5410 C   0  0  0  0  0  0  0  0  0  0  0  0
    9.5496    2.6614   23.4428 C   0  0  0  0  0  0  0  0  0  0  0  0
    9.3350   -1.0880   23.5010 C   0  0  0  0  0  0  0  0  0  0  0  0
    5.8300    0.9190   18.6970 C   0  0  0  0  0  0  0  0  0  0  0  0
    6.1790    0.5730   19.9990 C   0  0  0  0  0  0  0  0  0  0  0  0
    9.3070   -3.5340   24.8780 C   0  0  0  0  0  0  0  0  0  0  0  0
    8.3596   -5.0075   26.6307 C   0  0  0  0  0  0  0  0  0  0  0  0
    9.0420    0.3700   21.5280 C   0  0  0  0  0  0  0  0  0  0  0  0
    8.4579   -6.4048   27.2167 C   0  0  0  0  0  0  0  0  0  0  0  0
    8.4717   -7.4504   26.1157 C   0  0  0  0  0  0  0  0  0  0  0  0
    9.5645   -7.1893   25.0840 C   0  0  0  0  0  0  0  0  0  0  0  0
   10.2327   -5.8252   25.2500 C   0  0  0  0  0  0  0  0  0  0  0  0
    8.8518    1.3594   23.7588 C   0  0  0  0  0  0  0  0  0  0  0  0
    9.4560    0.1560   22.8130 C   0  0  1  0  0  0  0  0  0  0  0  0
    6.7580    0.3810   17.8350 N   0  0  0  0  0  0  0  0  0  0  0  0
    7.3170   -0.1610   19.8550 N   0  0  0  0  0  0  0  0  0  0  0  0
    9.2529   -4.7799   25.5644 N   0  0  0  0  0  0  0  0  0  0  0  0
    8.1890   -0.7180   20.8700 N   0  0  0  0  0  0  0  0  0  0  0  0
    7.5989   -4.1866   27.1423 O   0  0  0  0  0  0  0  0  0  0  0  0
    9.2690    1.4140   20.9380 O   0  0  0  0  0  0  0  0  0  0  0  0
   11.3383    6.0027   22.6313 H   0  0  0  0  0  0  0  0  0  0  0  0
   12.2479    4.5029   24.3859 H   0  0  0  0  0  0  0  0  0  0  0  0
    9.2832    5.3634   21.3964 H   0  0  0  0  0  0  0  0  0  0  0  0
    3.0134    2.6521   19.3911 H   0  0  0  0  0  0  0  0  0  0  0  0
    3.6460    2.0127   21.6812 H   0  0  0  0  0  0  0  0  0  0  0  0
   11.1107    2.3699   24.9071 H   0  0  0  0  0  0  0  0  0  0  0  0
    8.1387    3.2328   21.9101 H   0  0  0  0  0  0  0  0  0  0  0  0
    8.9202   -0.1986   25.4206 H   0  0  0  0  0  0  0  0  0  0  0  0
   10.0631   -2.2319   21.8252 H   0  0  0  0  0  0  0  0  0  0  0  0
    4.4037    1.9731   17.4543 H   0  0  0  0  0  0  0  0  0  0  0  0
    5.7084    0.6923   22.1132 H   0  0  0  0  0  0  0  0  0  0  0  0
    8.6898   -2.3534   26.5810 H   0  0  0  0  0  0  0  0  0  0  0  0
    9.9254   -4.3899   22.9914 H   0  0  0  0  0  0  0  0  0  0  0  0
    8.4862   -0.8060   18.1787 H   0  0  0  0  0  0  0  0  0  0  0  0
    9.3705   -6.4746   27.7883 H   0  0  0  0  0  0  0  0  0  0  0  0
    7.6054   -6.5499   27.8634 H   0  0  0  0  0  0  0  0  0  0  0  0
    8.6096   -8.4605   26.5547 H   0  0  0  0  0  0  0  0  0  0  0  0
    7.4835   -7.4764   25.6139 H   0  0  0  0  0  0  0  0  0  0  0  0
   10.3359   -7.9850   25.1529 H   0  0  0  0  0  0  0  0  0  0  0  0
    9.1459   -7.2795   24.0580 H   0  0  0  0  0  0  0  0  0  0  0  0
   10.9408   -5.8640   26.0724 H   0  0  0  0  0  0  0  0  0  0  0  0
   10.7522   -5.5631   24.3346 H   0  0  0  0  0  0  0  0  0  0  0  0
    8.9481    1.1773   24.8382 H   0  0  0  0  0  0  0  0  0  0  0  0
    7.7730    1.4670   23.5839 H   0  0  0  0  0  0  0  0  0  0  0  0
   10.5990    0.4745   22.8590 H   0  0  0  0  0  0  0  0  0  0  0  0
    8.2487   -1.5564   21.0972 H   0  0  0  0  0  0  0  0  0  0  0  0
  1  2  1  0  0  0  0
  1  3  2  0  0  0  0
  2  6  2  0  0  0  0
  3  7  1  0  0  0  0
  4  5  1  0  0  0  0
  4 10  2  0  0  0  0
  5 11  2  0  0  0  0
  6 15  1  0  0  0  0
  7 15  2  0  0  0  0
  8 12  2  0  0  0  0
  8 16  1  0  0  0  0
  9 13  1  0  0  0  0
  9 16  2  0  0  0  0
 10 17  1  0  0  0  0
 11 18  1  0  0  0  0
 12 19  1  0  0  0  0
 13 19  2  0  0  0  0
 14 28  2  0  0  0  0
 14 29  1  0  0  0  0
 15 26  1  0  0  0  0
 16 27  1  0  0  0  0
 17 18  2  0  0  0  0
 17 28  1  0  0  0  0
 18 29  1  0  0  0  0
 19 30  1  0  0  0  0
 20 22  1  0  0  0  0
 20 30  1  0  0  0  0
 20 32  2  0  0  0  0
 21 27  1  1  0  0  0
 21 31  1  0  0  0  0
 21 33  2  0  0  0  0
 22 23  1  0  0  0  0
 23 24  1  0  0  0  0
 24 25  1  0  0  0  0
 25 30  1  0  0  0  0
 26 27  1  0  0  0  0
 29 31  1  0  0  0  0
  1 34  1  0  0  0  0
  2 35  1  0  0  0  0
  3 36  1  0  0  0  0
  4 37  1  0  0  0  0
  5 38  1  0  0  0  0
  6 39  1  0  0  0  0
  7 40  1  0  0  0  0
  8 41  1  0  0  0  0
  9 42  1  0  0  0  0
 10 43  1  0  0  0  0
 11 44  1  0  0  0  0
 12 45  1  0  0  0  0
 13 46  1  0  0  0  0
 14 47  1  0  0  0  0
 22 48  1  0  0  0  0
 22 49  1  0  0  0  0
 23 50  1  0  0  0  0
 23 51  1  0  0  0  0
 24 52  1  0  0  0  0
 24 53  1  0  0  0  0
 25 54  1  0  0  0  0
 25 55  1  0  0  0  0
 26 56  1  0  0  0  0
 26 57  1  0  0  0  0
 27 58  1  0  0  0  0
 31 59  1  0  0  0  0
M  END
> <clash_score>
1.2482912038965082

> <docking_score>
-6.3707780838012695

> <overlap_score>
0.8837565183639526

$$$$
BENZO_217_2
  -OEChem-08232013453D

 59 63  0     1  0  0  0  0  0999 V2000
   11.5046    4.9795   22.8736 C   0  0  0  0  0  0  0  0  0  0  0  0
   12.5261    4.1452   22.4196 C   0  0  0  0  0  0  0  0  0  0  0  0
   10.3194    4.4290   23.3613 C   0  0  0  0  0  0  0  0  0  0  0  0
    3.9160    2.0630   19.5520 C   0  0  0  0  0  0  0  0  0  0  0  0
    4.2750    1.7050   20.8490 C   0  0  0  0  0  0  0  0  0  0  0  0
   12.3622    2.7604   22.4531 C   0  0  0  0  0  0  0  0  0  0  0  0
   10.1555    3.0442   23.3948 C   0  0  0  0  0  0  0  0  0  0  0  0
    9.0720   -1.1280   24.8640 C   0  0  0  0  0  0  0  0  0  0  0  0
    9.7200   -2.2600   22.8630 C   0  0  0  0  0  0  0  0  0  0  0  0
    4.6890    1.6810   18.4640 C   0  0  0  0  0  0  0  0  0  0  0  0
    5.4210    0.9600   21.0930 C   0  0  0  0  0  0  0  0  0  0  0  0
    8.9960   -2.3380   25.5320 C   0  0  0  0  0  0  0  0  0  0  0  0
    9.6730   -3.4710   23.5300 C   0  0  0  0  0  0  0  0  0  0  0  0
    7.6390   -0.2680   18.5410 C   0  0  0  0  0  0  0  0  0  0  0  0
   11.1770    2.2099   22.9407 C   0  0  0  0  0  0  0  0  0  0  0  0
    9.3350   -1.0880   23.5010 C   0  0  0  0  0  0  0  0  0  0  0  0
    5.8300    0.9190   18.6970 C   0  0  0  0  0  0  0  0  0  0  0  0
    6.1790    0.5730   19.9990 C   0  0  0  0  0  0  0  0  0  0  0  0
    9.3070   -3.5340   24.8780 C   0  0  0  0  0  0  0  0  0  0  0  0
    8.3596   -5.0074   26.6306 C   0  0  0  0  0  0  0  0  0  0  0  0
    9.0420    0.3700   21.5280 C   0  0  0  0  0  0  0  0  0  0  0  0
    8.4719   -6.3982   27.2294 C   0  0  0  0  0  0  0  0  0  0  0  0
    9.9251   -6.7607   27.4801 C   0  0  0  0  0  0  0  0  0  0  0  0
   10.7833   -6.6095   26.2280 C   0  0  0  0  0  0  0  0  0  0  0  0
   10.0539   -5.9100   25.0821 C   0  0  0  0  0  0  0  0  0  0  0  0
   10.9988    0.7103   22.9770 C   0  0  0  0  0  0  0  0  0  0  0  0
    9.4560    0.1560   22.8130 C   0  0  2  0  0  0  0  0  0  0  0  0
    6.7580    0.3810   17.8350 N   0  0  0  0  0  0  0  0  0  0  0  0
    7.3170   -0.1610   19.8550 N   0  0  0  0  0  0  0  0  0  0  0  0
    9.2529   -4.7797   25.5643 N   0  0  0  0  0  0  0  0  0  0  0  0
    8.1890   -0.7180   20.8700 N   0  0  0  0  0  0  0  0  0  0  0  0
    7.4954   -4.2357   27.0448 O   0  0  0  0  0  0  0  0  0  0  0  0
    9.2690    1.4140   20.9380 O   0  0  0  0  0  0  0  0  0  0  0  0
   11.6329    6.0577   22.8488 H   0  0  0  0  0  0  0  0  0  0  0  0
   13.4495    4.5736   22.0409 H   0  0  0  0  0  0  0  0  0  0  0  0
    9.5243    5.0783   23.7160 H   0  0  0  0  0  0  0  0  0  0  0  0
    3.0134    2.6521   19.3911 H   0  0  0  0  0  0  0  0  0  0  0  0
    3.6460    2.0128   21.6812 H   0  0  0  0  0  0  0  0  0  0  0  0
   13.1634    2.1181   22.0970 H   0  0  0  0  0  0  0  0  0  0  0  0
    9.2286    2.6243   23.7763 H   0  0  0  0  0  0  0  0  0  0  0  0
    8.9202   -0.1986   25.4206 H   0  0  0  0  0  0  0  0  0  0  0  0
   10.0631   -2.2319   21.8252 H   0  0  0  0  0  0  0  0  0  0  0  0
    4.4037    1.9731   17.4543 H   0  0  0  0  0  0  0  0  0  0  0  0
    5.7084    0.6923   22.1132 H   0  0  0  0  0  0  0  0  0  0  0  0
    8.6898   -2.3534   26.5810 H   0  0  0  0  0  0  0  0  0  0  0  0
    9.9254   -4.3899   22.9914 H   0  0  0  0  0  0  0  0  0  0  0  0
    8.4862   -0.8060   18.1787 H   0  0  0  0  0  0  0  0  0  0  0  0
    7.9324   -6.4149   28.1639 H   0  0  0  0  0  0  0  0  0  0  0  0
    8.0254   -7.0921   26.5330 H   0  0  0  0  0  0  0  0  0  0  0  0
   10.3386   -6.1268   28.2921 H   0  0  0  0  0  0  0  0  0  0  0  0
    9.9903   -7.8025   27.8535 H   0  0  0  0  0  0  0  0  0  0  0  0
   11.7036   -6.0405   26.4770 H   0  0  0  0  0  0  0  0  0  0  0  0
   11.1411   -7.6069   25.8917 H   0  0  0  0  0  0  0  0  0  0  0  0
   10.7783   -5.5162   24.3756 H   0  0  0  0  0  0  0  0  0  0  0  0
    9.4042   -6.6189   24.5805 H   0  0  0  0  0  0  0  0  0  0  0  0
   11.6488    0.2736   22.2061 H   0  0  0  0  0  0  0  0  0  0  0  0
   11.3815    0.3161   23.9279 H   0  0  0  0  0  0  0  0  0  0  0  0
    8.9230    0.9815   23.4801 H   0  0  0  0  0  0  0  0  0  0  0  0
    8.2487   -1.5564   21.0972 H   0  0  0  0  0  0  0  0  0  0  0  0
  1  2  1  0  0  0  0
  1  3  2  0  0  0  0
  2  6  2  0  0  0  0
  3  7  1  0  0  0  0
  4  5  1  0  0  0  0
  4 10  2  0  0  0  0
  5 11  2  0  0  0  0
  6 15  1  0  0  0  0
  7 15  2  0  0  0  0
  8 12  2  0  0  0  0
  8 16  1  0  0  0  0
  9 13  1  0  0  0  0
  9 16  2  0  0  0  0
 10 17  1  0  0  0  0
 11 18  1  0  0  0  0
 12 19  1  0  0  0  0
 13 19  2  0  0  0  0
 14 28  2  0  0  0  0
 14 29  1  0  0  0  0
 15 26  1  0  0  0  0
 16 27  1  0  0  0  0
 17 18  2  0  0  0  0
 17 28  1  0  0  0  0
 18 29  1  0  0  0  0
 19 30  1  0  0  0  0
 20 22  1  0  0  0  0
 20 30  1  0  0  0  0
 20 32  2  0  0  0  0
 21 27  1  6  0  0  0
 21 31  1  0  0  0  0
 21 33  2  0  0  0  0
 22 23  1  0  0  0  0
 23 24  1  0  0  0  0
 24 25  1  0  0  0  0
 25 30  1  0  0  0  0
 26 27  1  0  0  0  0
 29 31  1  0  0  0  0
  1 34  1  0  0  0  0
  2 35  1  0  0  0  0
  3 36  1  0  0  0  0
  4 37  1  0  0  0  0
  5 38  1  0  0  0  0
  6 39  1  0  0  0  0
  7 40  1  0  0  0  0
  8 41  1  0  0  0  0
  9 42  1  0  0  0  0
 10 43  1  0  0  0  0
 11 44  1  0  0  0  0
 12 45  1  0  0  0  0
 13 46  1  0  0  0  0
 14 47  1  0  0  0  0
 22 48  1  0  0  0  0
 22 49  1  0  0  0  0
 23 50  1  0  0  0  0
 23 51  1  0  0  0  0
 24 52  1  0  0  0  0
 24 53  1  0  0  0  0
 25 54  1  0  0  0  0
 25 55  1  0  0  0  0
 26 56  1  0  0  0  0
 26 57  1  0  0  0  0
 27 58  1  0  0  0  0
 31 59  1  0  0  0  0
M  END
> <clash_score>
0.7790931276820443

> <docking_score>
-9.195303916931152

> <overlap_score>
0.9509743452072144

$$$$
BENZO_216_1
  -OEChem-08232013453D

 56 60  0     1  0  0  0  0  0999 V2000
    3.9160    2.0630   19.5520 C   0  0  0  0  0  0  0  0  0  0  0  0
    4.2750    1.7050   20.8490 C   0  0  0  0  0  0  0  0  0  0  0  0
    9.0720   -1.1280   24.8640 C   0  0  0  0  0  0  0  0  0  0  0  0
    9.7200   -2.2600   22.8630 C   0  0  0  0  0  0  0  0  0  0  0  0
    4.6890    1.6810   18.4640 C   0  0  0  0  0  0  0  0  0  0  0  0
    5.4210    0.9600   21.0930 C   0  0  0  0  0  0  0  0  0  0  0  0
    8.9960   -2.3380   25.5320 C   0  0  0  0  0  0  0  0  0  0  0  0
    9.6730   -3.4710   23.5300 C   0  0  0  0  0  0  0  0  0  0  0  0
   10.9259    2.7594   23.0876 C   0  0  0  0  0  0  0  0  0  0  0  0
   11.3079    4.0617   22.8514 C   0  0  0  0  0  0  0  0  0  0  0  0
    8.9320    3.8927   23.4647 C   0  0  0  0  0  0  0  0  0  0  0  0
    7.6390   -0.2680   18.5410 C   0  0  0  0  0  0  0  0  0  0  0  0
    9.3350   -1.0880   23.5010 C   0  0  0  0  0  0  0  0  0  0  0  0
    9.5496    2.6614   23.4428 C   0  0  0  0  0  0  0  0  0  0  0  0
    5.8300    0.9190   18.6970 C   0  0  0  0  0  0  0  0  0  0  0  0
    6.1790    0.5730   19.9990 C   0  0  0  0  0  0  0  0  0  0  0  0
    9.3070   -3.5340   24.8780 C   0  0  0  0  0  0  0  0  0  0  0  0
    8.3596   -5.0074   26.6306 C   0  0  0  0  0  0  0  0  0  0  0  0
    9.0420    0.3700   21.5280 C   0  0  0  0  0  0  0  0  0  0  0  0
    8.4719   -6.3982   27.2294 C   0  0  0  0  0  0  0  0  0  0  0  0
    9.9251   -6.7607   27.4801 C   0  0  0  0  0  0  0  0  0  0  0  0
   10.7833   -6.6095   26.2280 C   0  0  0  0  0  0  0  0  0  0  0  0
   10.0539   -5.9100   25.0821 C   0  0  0  0  0  0  0  0  0  0  0  0
    8.8518    1.3594   23.7588 C   0  0  0  0  0  0  0  0  0  0  0  0
    9.4560    0.1560   22.8130 C   0  0  1  0  0  0  0  0  0  0  0  0
    6.7580    0.3810   17.8350 N   0  0  0  0  0  0  0  0  0  0  0  0
    7.3170   -0.1610   19.8550 N   0  0  0  0  0  0  0  0  0  0  0  0
    9.2529   -4.7797   25.5643 N   0  0  0  0  0  0  0  0  0  0  0  0
    8.1890   -0.7180   20.8700 N   0  0  0  0  0  0  0  0  0  0  0  0
    7.4954   -4.2357   27.0448 O   0  0  0  0  0  0  0  0  0  0  0  0
    9.2690    1.4140   20.9380 O   0  0  0  0  0  0  0  0  0  0  0  0
   10.0100    5.1594   23.0579 S   0  0  0  0  0  0  0  0  0  0  0  0
    3.0134    2.6521   19.3911 H   0  0  0  0  0  0  0  0  0  0  0  0
    3.6460    2.0127   21.6812 H   0  0  0  0  0  0  0  0  0  0  0  0
    8.9202   -0.1986   25.4206 H   0  0  0  0  0  0  0  0  0  0  0  0
   10.0631   -2.2319   21.8252 H   0  0  0  0  0  0  0  0  0  0  0  0
    4.4037    1.9731   17.4543 H   0  0  0  0  0  0  0  0  0  0  0  0
    5.7084    0.6923   22.1132 H   0  0  0  0  0  0  0  0  0  0  0  0
    8.6898   -2.3534   26.5810 H   0  0  0  0  0  0  0  0  0  0  0  0
    9.9254   -4.3899   22.9914 H   0  0  0  0  0  0  0  0  0  0  0  0
   11.6051    1.9199   23.0086 H   0  0  0  0  0  0  0  0  0  0  0  0
   12.2871    4.4211   22.5681 H   0  0  0  0  0  0  0  0  0  0  0  0
    7.9002    4.1134   23.7007 H   0  0  0  0  0  0  0  0  0  0  0  0
    8.4862   -0.8060   18.1787 H   0  0  0  0  0  0  0  0  0  0  0  0
    7.9324   -6.4149   28.1639 H   0  0  0  0  0  0  0  0  0  0  0  0
    8.0254   -7.0921   26.5330 H   0  0  0  0  0  0  0  0  0  0  0  0
   10.3386   -6.1268   28.2921 H   0  0  0  0  0  0  0  0  0  0  0  0
    9.9903   -7.8025   27.8535 H   0  0  0  0  0  0  0  0  0  0  0  0
   11.7036   -6.0405   26.4770 H   0  0  0  0  0  0  0  0  0  0  0  0
   11.1411   -7.6069   25.8917 H   0  0  0  0  0  0  0  0  0  0  0  0
   10.7783   -5.5162   24.3756 H   0  0  0  0  0  0  0  0  0  0  0  0
    9.4042   -6.6189   24.5805 H   0  0  0  0  0  0  0  0  0  0  0  0
    8.9481    1.1773   24.8382 H   0  0  0  0  0  0  0  0  0  0  0  0
    7.7730    1.4670   23.5839 H   0  0  0  0  0  0  0  0  0  0  0  0
   10.5990    0.4745   22.8590 H   0  0  0  0  0  0  0  0  0  0  0  0
    8.2487   -1.5564   21.0972 H   0  0  0  0  0  0  0  0  0  0  0  0
  1  2  1  0  0  0  0
  1  5  2  0  0  0  0
  2  6  2  0  0  0  0
  3  7  2  0  0  0  0
  3 13  1  0  0  0  0
  4  8  1  0  0  0  0
  4 13  2  0  0  0  0
  5 15  1  0  0  0  0
  6 16  1  0  0  0  0
  7 17  1  0  0  0  0
  8 17  2  0  0  0  0
  9 10  2  0  0  0  0
  9 14  1  0  0  0  0
 10 32  1  0  0  0  0
 11 14  2  0  0  0  0
 11 32  1  0  0  0  0
 12 26  2  0  0  0  0
 12 27  1  0  0  0  0
 13 25  1  0  0  0  0
 14 24  1  0  0  0  0
 15 16  2  0  0  0  0
 15 26  1  0  0  0  0
 16 27  1  0  0  0  0
 17 28  1  0  0  0  0
 18 20  1  0  0  0  0
 18 28  1  0  0  0  0
 18 30  2  0  0  0  0
 19 25  1  1  0  0  0
 19 29  1  0  0  0  0
 19 31  2  0  0  0  0
 20 21  1  0  0  0  0
 21 22  1  0  0  0  0
 22 23  1  0  0  0  0
 23 28  1  0  0  0  0
 24 25  1  0  0  0  0
 27 29  1  0  0  0  0
  1 33  1  0  0  0  0
  2 34  1  0  0  0  0
  3 35  1  0  0  0  0
  4 36  1  0  0  0  0
  5 37  1  0  0  0  0
  6 38  1  0  0  0  0
  7 39  1  0  0  0  0
  8 40  1  0  0  0  0
  9 41  1  0  0  0  0
 10 42  1  0  0  0  0
 11 43  1  0  0  0  0
 12 44  1  0  0  0  0
 20 45  1  0  0  0  0
 20 46  1  0  0  0  0
 21 47  1  0  0  0  0
 21 48  1  0  0  0  0
 22 49  1  0  0  0  0
 22 50  1  0  0  0  0
 23 51  1  0  0  0  0
 23 52  1  0  0  0  0
 24 53  1  0  0  0  0
 24 54  1  0  0  0  0
 25 55  1  0  0  0  0
 29 56  1  0  0  0  0
M  END
> <clash_score>
0.7790931276820443

> <docking_score>
-7.575383186340332

> <overlap_score>
0.8940867185592651

$$$$
BENZO_216_2
  -OEChem-08232013453D

 56 60  0     1  0  0  0  0  0999 V2000
    3.9160    2.0630   19.5520 C   0  0  0  0  0  0  0  0  0  0  0  0
    4.2750    1.7050   20.8490 C   0  0  0  0  0  0  0  0  0  0  0  0
    9.0720   -1.1280   24.8640 C   0  0  0  0  0  0  0  0  0  0  0  0
    9.7200   -2.2600   22.8630 C   0  0  0  0  0  0  0  0  0  0  0  0
    4.6890    1.6810   18.4640 C   0  0  0  0  0  0  0  0  0  0  0  0
    5.4210    0.9600   21.0930 C   0  0  0  0  0  0  0  0  0  0  0  0
    8.9960   -2.3380   25.5320 C   0  0  0  0  0  0  0  0  0  0  0  0
    9.6730   -3.4710   23.5300 C   0  0  0  0  0  0  0  0  0  0  0  0
   12.0512    2.8846   22.0403 C   0  0  0  0  0  0  0  0  0  0  0  0
   12.0244    4.2502   22.2188 C   0  0  0  0  0  0  0  0  0  0  0  0
   10.5154    3.0857   23.7733 C   0  0  0  0  0  0  0  0  0  0  0  0
    7.6390   -0.2680   18.5410 C   0  0  0  0  0  0  0  0  0  0  0  0
    9.3350   -1.0880   23.5010 C   0  0  0  0  0  0  0  0  0  0  0  0
   11.1770    2.2099   22.9407 C   0  0  0  0  0  0  0  0  0  0  0  0
    5.8300    0.9190   18.6970 C   0  0  0  0  0  0  0  0  0  0  0  0
    6.1790    0.5730   19.9990 C   0  0  0  0  0  0  0  0  0  0  0  0
    9.3070   -3.5340   24.8780 C   0  0  0  0  0  0  0  0  0  0  0  0
    8.3596   -5.0074   26.6306 C   0  0  0  0  0  0  0  0  0  0  0  0
    9.0420    0.3700   21.5280 C   0  0  0  0  0  0  0  0  0  0  0  0
    8.4719   -6.3982   27.2294 C   0  0  0  0  0  0  0  0  0  0  0  0
    9.9251   -6.7607   27.4801 C   0  0  0  0  0  0  0  0  0  0  0  0
   10.7833   -6.6095   26.2280 C   0  0  0  0  0  0  0  0  0  0  0  0
   10.0539   -5.9100   25.0821 C   0  0  0  0  0  0  0  0  0  0  0  0
   10.9988    0.7103   22.9770 C   0  0  0  0  0  0  0  0  0  0  0  0
    9.4560    0.1560   22.8130 C   0  0  2  0  0  0  0  0  0  0  0  0
    6.7580    0.3810   17.8350 N   0  0  0  0  0  0  0  0  0  0  0  0
    7.3170   -0.1610   19.8550 N   0  0  0  0  0  0  0  0  0  0  0  0
    9.2529   -4.7797   25.5643 N   0  0  0  0  0  0  0  0  0  0  0  0
    8.1890   -0.7180   20.8700 N   0  0  0  0  0  0  0  0  0  0  0  0
    7.4954   -4.2357   27.0448 O   0  0  0  0  0  0  0  0  0  0  0  0
    9.2690    1.4140   20.9380 O   0  0  0  0  0  0  0  0  0  0  0  0
   10.9486    4.7140   23.4678 S   0  0  0  0  0  0  0  0  0  0  0  0
    3.0134    2.6521   19.3911 H   0  0  0  0  0  0  0  0  0  0  0  0
    3.6460    2.0128   21.6812 H   0  0  0  0  0  0  0  0  0  0  0  0
    8.9202   -0.1986   25.4206 H   0  0  0  0  0  0  0  0  0  0  0  0
   10.0631   -2.2319   21.8252 H   0  0  0  0  0  0  0  0  0  0  0  0
    4.4037    1.9731   17.4543 H   0  0  0  0  0  0  0  0  0  0  0  0
    5.7084    0.6923   22.1132 H   0  0  0  0  0  0  0  0  0  0  0  0
    8.6898   -2.3534   26.5810 H   0  0  0  0  0  0  0  0  0  0  0  0
    9.9254   -4.3899   22.9914 H   0  0  0  0  0  0  0  0  0  0  0  0
   12.6704    2.3968   21.2980 H   0  0  0  0  0  0  0  0  0  0  0  0
   12.5855    4.9977   21.6760 H   0  0  0  0  0  0  0  0  0  0  0  0
    9.7987    2.8515   24.5482 H   0  0  0  0  0  0  0  0  0  0  0  0
    8.4862   -0.8060   18.1787 H   0  0  0  0  0  0  0  0  0  0  0  0
    7.9324   -6.4149   28.1639 H   0  0  0  0  0  0  0  0  0  0  0  0
    8.0254   -7.0921   26.5330 H   0  0  0  0  0  0  0  0  0  0  0  0
   10.3386   -6.1268   28.2921 H   0  0  0  0  0  0  0  0  0  0  0  0
    9.9903   -7.8025   27.8535 H   0  0  0  0  0  0  0  0  0  0  0  0
   11.7036   -6.0405   26.4770 H   0  0  0  0  0  0  0  0  0  0  0  0
   11.1411   -7.6069   25.8917 H   0  0  0  0  0  0  0  0  0  0  0  0
   10.7783   -5.5162   24.3756 H   0  0  0  0  0  0  0  0  0  0  0  0
    9.4042   -6.6189   24.5805 H   0  0  0  0  0  0  0  0  0  0  0  0
   11.6488    0.2736   22.2061 H   0  0  0  0  0  0  0  0  0  0  0  0
   11.3815    0.3161   23.9279 H   0  0  0  0  0  0  0  0  0  0  0  0
    8.9230    0.9815   23.4801 H   0  0  0  0  0  0  0  0  0  0  0  0
    8.2487   -1.5564   21.0972 H   0  0  0  0  0  0  0  0  0  0  0  0
  1  2  1  0  0  0  0
  1  5  2  0  0  0  0
  2  6  2  0  0  0  0
  3  7  2  0  0  0  0
  3 13  1  0  0  0  0
  4  8  1  0  0  0  0
  4 13  2  0  0  0  0
  5 15  1  0  0  0  0
  6 16  1  0  0  0  0
  7 17  1  0  0  0  0
  8 17  2  0  0  0  0
  9 10  2  0  0  0  0
  9 14  1  0  0  0  0
 10 32  1  0  0  0  0
 11 14  2  0  0  0  0
 11 32  1  0  0  0  0
 12 26  2  0  0  0  0
 12 27  1  0  0  0  0
 13 25  1  0  0  0  0
 14 24  1  0  0  0  0
 15 16  2  0  0  0  0
 15 26  1  0  0  0  0
 16 27  1  0  0  0  0
 17 28  1  0  0  0  0
 18 20  1  0  0  0  0
 18 28  1  0  0  0  0
 18 30  2  0  0  0  0
 19 25  1  6  0  0  0
 19 29  1  0  0  0  0
 19 31  2  0  0  0  0
 20 21  1  0  0  0  0
 21 22  1  0  0  0  0
 22 23  1  0  0  0  0
 23 28  1  0  0  0  0
 24 25  1  0  0  0  0
 27 29  1  0  0  0  0
  1 33  1  0  0  0  0
  2 34  1  0  0  0  0
  3 35  1  0  0  0  0
  4 36  1  0  0  0  0
  5 37  1  0  0  0  0
  6 38  1  0  0  0  0
  7 39  1  0  0  0  0
  8 40  1  0  0  0  0
  9 41  1  0  0  0  0
 10 42  1  0  0  0  0
 11 43  1  0  0  0  0
 12 44  1  0  0  0  0
 20 45  1  0  0  0  0
 20 46  1  0  0  0  0
 21 47  1  0  0  0  0
 21 48  1  0  0  0  0
 22 49  1  0  0  0  0
 22 50  1  0  0  0  0
 23 51  1  0  0  0  0
 23 52  1  0  0  0  0
 24 53  1  0  0  0  0
 24 54  1  0  0  0  0
 25 55  1  0  0  0  0
 29 56  1  0  0  0  0
M  END
> <clash_score>
0.7790931276820443

> <docking_score>
-8.548476219177246

> <overlap_score>
0.9400838017463684

$$$$
BENZO_218_1
  -OEChem-08232013453D

 59 63  0     1  0  0  0  0  0999 V2000
    3.9160    2.0630   19.5520 C   0  0  0  0  0  0  0  0  0  0  0  0
    4.2750    1.7050   20.8490 C   0  0  0  0  0  0  0  0  0  0  0  0
    9.6807    4.7078   22.1655 C   0  0  0  0  0  0  0  0  0  0  0  0
    9.0376    3.5049   22.4569 C   0  0  0  0  0  0  0  0  0  0  0  0
    9.0720   -1.1280   24.8640 C   0  0  0  0  0  0  0  0  0  0  0  0
    9.7200   -2.2600   22.8630 C   0  0  0  0  0  0  0  0  0  0  0  0
    4.6890    1.6810   18.4640 C   0  0  0  0  0  0  0  0  0  0  0  0
    5.4210    0.9600   21.0930 C   0  0  0  0  0  0  0  0  0  0  0  0
    8.9960   -2.3380   25.5320 C   0  0  0  0  0  0  0  0  0  0  0  0
    9.6730   -3.4710   23.5300 C   0  0  0  0  0  0  0  0  0  0  0  0
   10.8360    5.0672   22.8597 C   0  0  0  0  0  0  0  0  0  0  0  0
   10.7048    3.0207   24.1371 C   0  0  0  0  0  0  0  0  0  0  0  0
    7.6390   -0.2680   18.5410 C   0  0  0  0  0  0  0  0  0  0  0  0
    9.3350   -1.0880   23.5010 C   0  0  0  0  0  0  0  0  0  0  0  0
    9.5496    2.6614   23.4428 C   0  0  0  0  0  0  0  0  0  0  0  0
    5.8300    0.9190   18.6970 C   0  0  0  0  0  0  0  0  0  0  0  0
    6.1790    0.5730   19.9990 C   0  0  0  0  0  0  0  0  0  0  0  0
    9.3070   -3.5340   24.8780 C   0  0  0  0  0  0  0  0  0  0  0  0
   11.3480    4.2236   23.8456 C   0  0  0  0  0  0  0  0  0  0  0  0
    8.3596   -5.0075   26.6307 C   0  0  0  0  0  0  0  0  0  0  0  0
    9.0420    0.3700   21.5280 C   0  0  0  0  0  0  0  0  0  0  0  0
    8.4579   -6.4048   27.2167 C   0  0  0  0  0  0  0  0  0  0  0  0
    8.4717   -7.4504   26.1157 C   0  0  0  0  0  0  0  0  0  0  0  0
    9.5645   -7.1893   25.0840 C   0  0  0  0  0  0  0  0  0  0  0  0
   10.2327   -5.8252   25.2500 C   0  0  0  0  0  0  0  0  0  0  0  0
    8.8518    1.3594   23.7588 C   0  0  0  0  0  0  0  0  0  0  0  0
    9.4560    0.1560   22.8130 C   0  0  1  0  0  0  0  0  0  0  0  0
    6.7580    0.3810   17.8350 N   0  0  0  0  0  0  0  0  0  0  0  0
    7.3170   -0.1610   19.8550 N   0  0  0  0  0  0  0  0  0  0  0  0
    9.2529   -4.7799   25.5644 N   0  0  0  0  0  0  0  0  0  0  0  0
    8.1890   -0.7180   20.8700 N   0  0  0  0  0  0  0  0  0  0  0  0
    7.5989   -4.1866   27.1423 O   0  0  0  0  0  0  0  0  0  0  0  0
    9.2690    1.4140   20.9380 O   0  0  0  0  0  0  0  0  0  0  0  0
   12.7727    4.6680   24.7026 Cl  0  0  0  0  0  0  0  0  0  0  0  0
    3.0134    2.6521   19.3911 H   0  0  0  0  0  0  0  0  0  0  0  0
    3.6460    2.0127   21.6812 H   0  0  0  0  0  0  0  0  0  0  0  0
    9.2816    5.3645   21.3978 H   0  0  0  0  0  0  0  0  0  0  0  0
    8.1379    3.2331   21.9110 H   0  0  0  0  0  0  0  0  0  0  0  0
    8.9202   -0.1986   25.4206 H   0  0  0  0  0  0  0  0  0  0  0  0
   10.0631   -2.2319   21.8252 H   0  0  0  0  0  0  0  0  0  0  0  0
    4.4037    1.9731   17.4543 H   0  0  0  0  0  0  0  0  0  0  0  0
    5.7084    0.6923   22.1132 H   0  0  0  0  0  0  0  0  0  0  0  0
    8.6898   -2.3534   26.5810 H   0  0  0  0  0  0  0  0  0  0  0  0
    9.9254   -4.3899   22.9914 H   0  0  0  0  0  0  0  0  0  0  0  0
   11.3266    6.0079   22.6222 H   0  0  0  0  0  0  0  0  0  0  0  0
   11.1003    2.3593   24.9045 H   0  0  0  0  0  0  0  0  0  0  0  0
    8.4862   -0.8060   18.1787 H   0  0  0  0  0  0  0  0  0  0  0  0
    9.3705   -6.4746   27.7883 H   0  0  0  0  0  0  0  0  0  0  0  0
    7.6054   -6.5499   27.8634 H   0  0  0  0  0  0  0  0  0  0  0  0
    8.6096   -8.4605   26.5547 H   0  0  0  0  0  0  0  0  0  0  0  0
    7.4835   -7.4764   25.6139 H   0  0  0  0  0  0  0  0  0  0  0  0
   10.3359   -7.9850   25.1529 H   0  0  0  0  0  0  0  0  0  0  0  0
    9.1459   -7.2795   24.0580 H   0  0  0  0  0  0  0  0  0  0  0  0
   10.9408   -5.8640   26.0724 H   0  0  0  0  0  0  0  0  0  0  0  0
   10.7522   -5.5631   24.3346 H   0  0  0  0  0  0  0  0  0  0  0  0
    8.9481    1.1773   24.8382 H   0  0  0  0  0  0  0  0  0  0  0  0
    7.7730    1.4670   23.5839 H   0  0  0  0  0  0  0  0  0  0  0  0
   10.5990    0.4745   22.8590 H   0  0  0  0  0  0  0  0  0  0  0  0
    8.2487   -1.5564   21.0972 H   0  0  0  0  0  0  0  0  0  0  0  0
  1  2  1  0  0  0  0
  1  7  2  0  0  0  0
  2  8  2  0  0  0  0
  3  4  2  0  0  0  0
  3 11  1  0  0  0  0
  4 15  1  0  0  0  0
  5  9  2  0  0  0  0
  5 14  1  0  0  0  0
  6 10  1  0  0  0  0
  6 14  2  0  0  0  0
  7 16  1  0  0  0  0
  8 17  1  0  0  0  0
  9 18  1  0  0  0  0
 10 18  2  0  0  0  0
 11 19  2  0  0  0  0
 12 15  2  0  0  0  0
 12 19  1  0  0  0  0
 13 28  2  0  0  0  0
 13 29  1  0  0  0  0
 14 27  1  0  0  0  0
 15 26  1  0  0  0  0
 16 17  2  0  0  0  0
 16 28  1  0  0  0  0
 17 29  1  0  0  0  0
 18 30  1  0  0  0  0
 19 34  1  0  0  0  0
 20 22  1  0  0  0  0
 20 30  1  0  0  0  0
 20 32  2  0  0  0  0
 21 27  1  1  0  0  0
 21 31  1  0  0  0  0
 21 33  2  0  0  0  0
 22 23  1  0  0  0  0
 23 24  1  0  0  0  0
 24 25  1  0  0  0  0
 25 30  1  0  0  0  0
 26 27  1  0  0  0  0
 29 31  1  0  0  0  0
  1 35  1  0  0  0  0
  2 36  1  0  0  0  0
  3 37  1  0  0  0  0
  4 38  1  0  0  0  0
  5 39  1  0  0  0  0
  6 40  1  0  0  0  0
  7 41  1  0  0  0  0
  8 42  1  0  0  0  0
  9 43  1  0  0  0  0
 10 44  1  0  0  0  0
 11 45  1  0  0  0  0
 12 46  1  0  0  0  0
 13 47  1  0  0  0  0
 22 48  1  0  0  0  0
 22 49  1  0  0  0  0
 23 50  1  0  0  0  0
 23 51  1  0  0  0  0
 24 52  1  0  0  0  0
 24 53  1  0  0  0  0
 25 54  1  0  0  0  0
 25 55  1  0  0  0  0
 26 56  1  0  0  0  0
 26 57  1  0  0  0  0
 27 58  1  0  0  0  0
 31 59  1  0  0  0  0
M  END
> <clash_score>
1.2476913415892477

> <docking_score>
-5.684147834777832

> <overlap_score>
0.8842952847480774

$$$$
BENZO_219_2
  -OEChem-08232013453D

 59 63  0     1  0  0  0  0  0999 V2000
    3.9160    2.0630   19.5520 C   0  0  0  0  0  0  0  0  0  0  0  0
    4.2750    1.7050   20.8490 C   0  0  0  0  0  0  0  0  0  0  0  0
    9.0720   -1.1280   24.8640 C   0  0  0  0  0  0  0  0  0  0  0  0
    9.7200   -2.2600   22.8630 C   0  0  0  0  0  0  0  0  0  0  0  0
    4.6890    1.6810   18.4640 C   0  0  0  0  0  0  0  0  0  0  0  0
    5.4210    0.9600   21.0930 C   0  0  0  0  0  0  0  0  0  0  0  0
    8.9960   -2.3380   25.5320 C   0  0  0  0  0  0  0  0  0  0  0  0
    9.6730   -3.4710   23.5300 C   0  0  0  0  0  0  0  0  0  0  0  0
   10.8679    2.8459   22.9848 C   0  0  0  0  0  0  0  0  0  0  0  0
    9.0373    3.9324   23.5358 C   0  0  0  0  0  0  0  0  0  0  0  0
    7.6390   -0.2680   18.5410 C   0  0  0  0  0  0  0  0  0  0  0  0
    9.3350   -1.0880   23.5010 C   0  0  0  0  0  0  0  0  0  0  0  0
    9.5496    2.6614   23.4428 C   0  0  0  0  0  0  0  0  0  0  0  0
    5.8300    0.9190   18.6970 C   0  0  0  0  0  0  0  0  0  0  0  0
    6.1790    0.5730   19.9990 C   0  0  0  0  0  0  0  0  0  0  0  0
    9.3070   -3.5340   24.8780 C   0  0  0  0  0  0  0  0  0  0  0  0
    8.3596   -5.0074   26.6306 C   0  0  0  0  0  0  0  0  0  0  0  0
    9.0420    0.3700   21.5280 C   0  0  0  0  0  0  0  0  0  0  0  0
    8.4719   -6.3982   27.2294 C   0  0  0  0  0  0  0  0  0  0  0  0
    9.9251   -6.7607   27.4801 C   0  0  0  0  0  0  0  0  0  0  0  0
   10.7833   -6.6095   26.2280 C   0  0  0  0  0  0  0  0  0  0  0  0
   10.0539   -5.9100   25.0821 C   0  0  0  0  0  0  0  0  0  0  0  0
    9.9773    6.2085   23.0730 C   0  0  0  0  0  0  0  0  0  0  0  0
    8.8518    1.3594   23.7588 C   0  0  0  0  0  0  0  0  0  0  0  0
    9.4560    0.1560   22.8130 C   0  0  2  0  0  0  0  0  0  0  0  0
   11.1741    4.1328   22.7996 N   0  0  0  0  0  0  0  0  0  0  0  0
    6.7580    0.3810   17.8350 N   0  0  0  0  0  0  0  0  0  0  0  0
   10.0408    4.7684   23.1429 N   0  0  0  0  0  0  0  0  0  0  0  0
    7.3170   -0.1610   19.8550 N   0  0  0  0  0  0  0  0  0  0  0  0
    9.2529   -4.7797   25.5643 N   0  0  0  0  0  0  0  0  0  0  0  0
    8.1890   -0.7180   20.8700 N   0  0  0  0  0  0  0  0  0  0  0  0
    7.4954   -4.2357   27.0448 O   0  0  0  0  0  0  0  0  0  0  0  0
    9.2690    1.4140   20.9380 O   0  0  0  0  0  0  0  0  0  0  0  0
    3.0134    2.6521   19.3911 H   0  0  0  0  0  0  0  0  0  0  0  0
    3.6460    2.0127   21.6812 H   0  0  0  0  0  0  0  0  0  0  0  0
    8.9202   -0.1986   25.4206 H   0  0  0  0  0  0  0  0  0  0  0  0
   10.0631   -2.2319   21.8252 H   0  0  0  0  0  0  0  0  0  0  0  0
    4.4037    1.9731   17.4543 H   0  0  0  0  0  0  0  0  0  0  0  0
    5.7084    0.6923   22.1132 H   0  0  0  0  0  0  0  0  0  0  0  0
    8.6898   -2.3534   26.5810 H   0  0  0  0  0  0  0  0  0  0  0  0
    9.9254   -4.3899   22.9914 H   0  0  0  0  0  0  0  0  0  0  0  0
   11.6199    2.0979   22.7767 H   0  0  0  0  0  0  0  0  0  0  0  0
    8.0679    4.3038   23.8393 H   0  0  0  0  0  0  0  0  0  0  0  0
    8.4862   -0.8060   18.1787 H   0  0  0  0  0  0  0  0  0  0  0  0
    7.9324   -6.4149   28.1639 H   0  0  0  0  0  0  0  0  0  0  0  0
    8.0254   -7.0921   26.5330 H   0  0  0  0  0  0  0  0  0  0  0  0
   10.3386   -6.1268   28.2921 H   0  0  0  0  0  0  0  0  0  0  0  0
    9.9903   -7.8025   27.8535 H   0  0  0  0  0  0  0  0  0  0  0  0
   11.7036   -6.0405   26.4770 H   0  0  0  0  0  0  0  0  0  0  0  0
   11.1411   -7.6069   25.8917 H   0  0  0  0  0  0  0  0  0  0  0  0
   10.7783   -5.5162   24.3756 H   0  0  0  0  0  0  0  0  0  0  0  0
    9.4042   -6.6189   24.5805 H   0  0  0  0  0  0  0  0  0  0  0  0
   10.2955    6.6075   24.0398 H   0  0  0  0  0  0  0  0  0  0  0  0
   10.6374    6.5639   22.2768 H   0  0  0  0  0  0  0  0  0  0  0  0
    8.9513    6.5147   22.8509 H   0  0  0  0  0  0  0  0  0  0  0  0
    8.9481    1.1773   24.8382 H   0  0  0  0  0  0  0  0  0  0  0  0
    7.7730    1.4670   23.5839 H   0  0  0  0  0  0  0  0  0  0  0  0
   10.5990    0.4745   22.8590 H   0  0  0  0  0  0  0  0  0  0  0  0
    8.2487   -1.5564   21.0972 H   0  0  0  0  0  0  0  0  0  0  0  0
  1  2  1  0  0  0  0
  1  5  2  0  0  0  0
  2  6  2  0  0  0  0
  3  7  2  0  0  0  0
  3 12  1  0  0  0  0
  4  8  1  0  0  0  0
  4 12  2  0  0  0  0
  5 14  1  0  0  0  0
  6 15  1  0  0  0  0
  7 16  1  0  0  0  0
  8 16  2  0  0  0  0
  9 13  1  0  0  0  0
  9 26  2  0  0  0  0
 10 13  2  0  0  0  0
 10 28  1  0  0  0  0
 11 27  2  0  0  0  0
 11 29  1  0  0  0  0
 12 25  1  0  0  0  0
 13 24  1  0  0  0  0
 14 15  2  0  0  0  0
 14 27  1  0  0  0  0
 15 29  1  0  0  0  0
 16 30  1  0  0  0  0
 17 19  1  0  0  0  0
 17 30  1  0  0  0  0
 17 32  2  0  0  0  0
 18 25  1  0  0  0  0
 18 31  1  0  0  0  0
 18 33  2  0  0  0  0
 19 20  1  0  0  0  0
 20 21  1  0  0  0  0
 21 22  1  0  0  0  0
 22 30  1  0  0  0  0
 23 28  1  0  0  0  0
 24 25  1  6  0  0  0
 26 28  1  0  0  0  0
 29 31  1  0  0  0  0
  1 34  1  0  0  0  0
  2 35  1  0  0  0  0
  3 36  1  0  0  0  0
  4 37  1  0  0  0  0
  5 38  1  0  0  0  0
  6 39  1  0  0  0  0
  7 40  1  0  0  0  0
  8 41  1  0  0  0  0
  9 42  1  0  0  0  0
 10 43  1  0  0  0  0
 11 44  1  0  0  0  0
 19 45  1  0  0  0  0
 19 46  1  0  0  0  0
 20 47  1  0  0  0  0
 20 48  1  0  0  0  0
 21 49  1  0  0  0  0
 21 50  1  0  0  0  0
 22 51  1  0  0  0  0
 22 52  1  0  0  0  0
 23 53  1  0  0  0  0
 23 54  1  0  0  0  0
 23 55  1  0  0  0  0
 24 56  1  0  0  0  0
 24 57  1  0  0  0  0
 25 58  1  0  0  0  0
 31 59  1  0  0  0  0
M  END
> <clash_score>
0.7790931276820443

> <docking_score>
-7.827096939086914

> <overlap_score>
0.888633668422699

$$$$
BENZO_218_2
  -OEChem-08232013453D

 59 63  0     1  0  0  0  0  0999 V2000
    3.9160    2.0630   19.5520 C   0  0  0  0  0  0  0  0  0  0  0  0
    4.2750    1.7050   20.8490 C   0  0  0  0  0  0  0  0  0  0  0  0
   10.3202    4.4289   23.3636 C   0  0  0  0  0  0  0  0  0  0  0  0
   10.1559    3.0441   23.3958 C   0  0  0  0  0  0  0  0  0  0  0  0
    9.0720   -1.1280   24.8640 C   0  0  0  0  0  0  0  0  0  0  0  0
    9.7200   -2.2600   22.8630 C   0  0  0  0  0  0  0  0  0  0  0  0
    4.6890    1.6810   18.4640 C   0  0  0  0  0  0  0  0  0  0  0  0
    5.4210    0.9600   21.0930 C   0  0  0  0  0  0  0  0  0  0  0  0
    8.9960   -2.3380   25.5320 C   0  0  0  0  0  0  0  0  0  0  0  0
    9.6730   -3.4710   23.5300 C   0  0  0  0  0  0  0  0  0  0  0  0
   11.5056    4.9794   22.8762 C   0  0  0  0  0  0  0  0  0  0  0  0
   12.3623    2.7604   22.4533 C   0  0  0  0  0  0  0  0  0  0  0  0
    7.6390   -0.2680   18.5410 C   0  0  0  0  0  0  0  0  0  0  0  0
    9.3350   -1.0880   23.5010 C   0  0  0  0  0  0  0  0  0  0  0  0
   11.1770    2.2099   22.9407 C   0  0  0  0  0  0  0  0  0  0  0  0
    5.8300    0.9190   18.6970 C   0  0  0  0  0  0  0  0  0  0  0  0
    6.1790    0.5730   19.9990 C   0  0  0  0  0  0  0  0  0  0  0  0
    9.3070   -3.5340   24.8780 C   0  0  0  0  0  0  0  0  0  0  0  0
   12.5266    4.1452   22.4211 C   0  0  0  0  0  0  0  0  0  0  0  0
    8.3596   -5.0074   26.6306 C   0  0  0  0  0  0  0  0  0  0  0  0
    9.0420    0.3700   21.5280 C   0  0  0  0  0  0  0  0  0  0  0  0
    8.4719   -6.3982   27.2294 C   0  0  0  0  0  0  0  0  0  0  0  0
    9.9251   -6.7607   27.4801 C   0  0  0  0  0  0  0  0  0  0  0  0
   10.7833   -6.6095   26.2280 C   0  0  0  0  0  0  0  0  0  0  0  0
   10.0539   -5.9100   25.0821 C   0  0  0  0  0  0  0  0  0  0  0  0
   10.9988    0.7103   22.9770 C   0  0  0  0  0  0  0  0  0  0  0  0
    9.4560    0.1560   22.8130 C   0  0  2  0  0  0  0  0  0  0  0  0
    6.7580    0.3810   17.8350 N   0  0  0  0  0  0  0  0  0  0  0  0
    7.3170   -0.1610   19.8550 N   0  0  0  0  0  0  0  0  0  0  0  0
    9.2529   -4.7797   25.5643 N   0  0  0  0  0  0  0  0  0  0  0  0
    8.1890   -0.7180   20.8700 N   0  0  0  0  0  0  0  0  0  0  0  0
    7.4954   -4.2357   27.0448 O   0  0  0  0  0  0  0  0  0  0  0  0
    9.2690    1.4140   20.9380 O   0  0  0  0  0  0  0  0  0  0  0  0
   13.9893    4.8250   21.8209 Cl  0  0  0  0  0  0  0  0  0  0  0  0
    3.0134    2.6521   19.3911 H   0  0  0  0  0  0  0  0  0  0  0  0
    3.6460    2.0128   21.6812 H   0  0  0  0  0  0  0  0  0  0  0  0
    9.5250    5.0782   23.7183 H   0  0  0  0  0  0  0  0  0  0  0  0
    9.2290    2.6239   23.7774 H   0  0  0  0  0  0  0  0  0  0  0  0
    8.9202   -0.1986   25.4206 H   0  0  0  0  0  0  0  0  0  0  0  0
   10.0631   -2.2319   21.8252 H   0  0  0  0  0  0  0  0  0  0  0  0
    4.4037    1.9731   17.4543 H   0  0  0  0  0  0  0  0  0  0  0  0
    5.7084    0.6923   22.1132 H   0  0  0  0  0  0  0  0  0  0  0  0
    8.6898   -2.3534   26.5810 H   0  0  0  0  0  0  0  0  0  0  0  0
    9.9254   -4.3899   22.9914 H   0  0  0  0  0  0  0  0  0  0  0  0
   11.6199    6.0605   22.8573 H   0  0  0  0  0  0  0  0  0  0  0  0
   13.1552    2.1057   22.0991 H   0  0  0  0  0  0  0  0  0  0  0  0
    8.4862   -0.8060   18.1787 H   0  0  0  0  0  0  0  0  0  0  0  0
    7.9324   -6.4149   28.1639 H   0  0  0  0  0  0  0  0  0  0  0  0
    8.0254   -7.0921   26.5330 H   0  0  0  0  0  0  0  0  0  0  0  0
   10.3386   -6.1268   28.2921 H   0  0  0  0  0  0  0  0  0  0  0  0
    9.9903   -7.8025   27.8535 H   0  0  0  0  0  0  0  0  0  0  0  0
   11.7036   -6.0405   26.4770 H   0  0  0  0  0  0  0  0  0  0  0  0
   11.1411   -7.6069   25.8917 H   0  0  0  0  0  0  0  0  0  0  0  0
   10.7783   -5.5162   24.3756 H   0  0  0  0  0  0  0  0  0  0  0  0
    9.4042   -6.6189   24.5805 H   0  0  0  0  0  0  0  0  0  0  0  0
   11.6488    0.2736   22.2061 H   0  0  0  0  0  0  0  0  0  0  0  0
   11.3815    0.3161   23.9279 H   0  0  0  0  0  0  0  0  0  0  0  0
    8.9230    0.9815   23.4801 H   0  0  0  0  0  0  0  0  0  0  0  0
    8.2487   -1.5564   21.0972 H   0  0  0  0  0  0  0  0  0  0  0  0
  1  2  1  0  0  0  0
  1  7  2  0  0  0  0
  2  8  2  0  0  0  0
  3  4  2  0  0  0  0
  3 11  1  0  0  0  0
  4 15  1  0  0  0  0
  5  9  2  0  0  0  0
  5 14  1  0  0  0  0
  6 10  1  0  0  0  0
  6 14  2  0  0  0  0
  7 16  1  0  0  0  0
  8 17  1  0  0  0  0
  9 18  1  0  0  0  0
 10 18  2  0  0  0  0
 11 19  2  0  0  0  0
 12 15  2  0  0  0  0
 12 19  1  0  0  0  0
 13 28  2  0  0  0  0
 13 29  1  0  0  0  0
 14 27  1  0  0  0  0
 15 26  1  0  0  0  0
 16 17  2  0  0  0  0
 16 28  1  0  0  0  0
 17 29  1  0  0  0  0
 18 30  1  0  0  0  0
 19 34  1  0  0  0  0
 20 22  1  0  0  0  0
 20 30  1  0  0  0  0
 20 32  2  0  0  0  0
 21 27  1  6  0  0  0
 21 31  1  0  0  0  0
 21 33  2  0  0  0  0
 22 23  1  0  0  0  0
 23 24  1  0  0  0  0
 24 25  1  0  0  0  0
 25 30  1  0  0  0  0
 26 27  1  0  0  0  0
 29 31  1  0  0  0  0
  1 35  1  0  0  0  0
  2 36  1  0  0  0  0
  3 37  1  0  0  0  0
  4 38  1  0  0  0  0
  5 39  1  0  0  0  0
  6 40  1  0  0  0  0
  7 41  1  0  0  0  0
  8 42  1  0  0  0  0
  9 43  1  0  0  0  0
 10 44  1  0  0  0  0
 11 45  1  0  0  0  0
 12 46  1  0  0  0  0
 13 47  1  0  0  0  0
 22 48  1  0  0  0  0
 22 49  1  0  0  0  0
 23 50  1  0  0  0  0
 23 51  1  0  0  0  0
 24 52  1  0  0  0  0
 24 53  1  0  0  0  0
 25 54  1  0  0  0  0
 25 55  1  0  0  0  0
 26 56  1  0  0  0  0
 26 57  1  0  0  0  0
 27 58  1  0  0  0  0
 31 59  1  0  0  0  0
M  END
> <clash_score>
0.7790931276820443

> <docking_score>
-9.489195823669434

> <overlap_score>
0.9516308307647705

$$$$
BENZO_221_1
  -OEChem-08232013453D

 58 62  0     1  0  0  0  0  0999 V2000
   10.8376    5.0659   22.8578 C   0  0  0  0  0  0  0  0  0  0  0  0
   11.3489    4.2229   23.8444 C   0  0  0  0  0  0  0  0  0  0  0  0
    9.6822    4.7067   22.1636 C   0  0  0  0  0  0  0  0  0  0  0  0
    3.9160    2.0630   19.5520 C   0  0  0  0  0  0  0  0  0  0  0  0
    4.2750    1.7050   20.8490 C   0  0  0  0  0  0  0  0  0  0  0  0
   10.7049    3.0206   24.1368 C   0  0  0  0  0  0  0  0  0  0  0  0
    9.0382    3.5045   22.4561 C   0  0  0  0  0  0  0  0  0  0  0  0
    9.0720   -1.1280   24.8640 C   0  0  0  0  0  0  0  0  0  0  0  0
    9.7200   -2.2600   22.8630 C   0  0  0  0  0  0  0  0  0  0  0  0
    4.6890    1.6810   18.4640 C   0  0  0  0  0  0  0  0  0  0  0  0
    5.4210    0.9600   21.0930 C   0  0  0  0  0  0  0  0  0  0  0  0
    8.9960   -2.3380   25.5320 C   0  0  0  0  0  0  0  0  0  0  0  0
    9.6730   -3.4710   23.5300 C   0  0  0  0  0  0  0  0  0  0  0  0
    7.6390   -0.2680   18.5410 C   0  0  0  0  0  0  0  0  0  0  0  0
    9.5496    2.6614   23.4427 C   0  0  0  0  0  0  0  0  0  0  0  0
    9.3350   -1.0880   23.5010 C   0  0  0  0  0  0  0  0  0  0  0  0
    5.8300    0.9190   18.6970 C   0  0  0  0  0  0  0  0  0  0  0  0
    6.1790    0.5730   19.9990 C   0  0  0  0  0  0  0  0  0  0  0  0
    9.3070   -3.5340   24.8780 C   0  0  0  0  0  0  0  0  0  0  0  0
    9.0420    0.3700   21.5280 C   0  0  0  0  0  0  0  0  0  0  0  0
    9.5176   -4.8600   26.9769 C   0  0  0  0  0  0  0  0  0  0  0  0
    8.5166   -5.8725   24.9805 C   0  0  0  0  0  0  0  0  0  0  0  0
    8.1870   -5.0443   27.6986 C   0  0  0  0  0  0  0  0  0  0  0  0
    7.2201   -6.0348   25.7753 C   0  0  0  0  0  0  0  0  0  0  0  0
    8.8518    1.3594   23.7587 C   0  0  0  0  0  0  0  0  0  0  0  0
    9.4560    0.1560   22.8130 C   0  0  1  0  0  0  0  0  0  0  0  0
    6.7580    0.3810   17.8350 N   0  0  0  0  0  0  0  0  0  0  0  0
    7.3170   -0.1610   19.8550 N   0  0  0  0  0  0  0  0  0  0  0  0
    9.2564   -4.7368   25.5411 N   0  0  0  0  0  0  0  0  0  0  0  0
    8.1890   -0.7180   20.8700 N   0  0  0  0  0  0  0  0  0  0  0  0
    9.2690    1.4140   20.9380 O   0  0  0  0  0  0  0  0  0  0  0  0
    7.4995   -6.1856   27.1717 O   0  0  0  0  0  0  0  0  0  0  0  0
   11.3383    6.0026   22.6311 H   0  0  0  0  0  0  0  0  0  0  0  0
   12.2479    4.5029   24.3857 H   0  0  0  0  0  0  0  0  0  0  0  0
    9.2832    5.3633   21.3962 H   0  0  0  0  0  0  0  0  0  0  0  0
    3.0134    2.6521   19.3911 H   0  0  0  0  0  0  0  0  0  0  0  0
    3.6460    2.0127   21.6812 H   0  0  0  0  0  0  0  0  0  0  0  0
   11.1107    2.3699   24.9070 H   0  0  0  0  0  0  0  0  0  0  0  0
    8.1387    3.2328   21.9100 H   0  0  0  0  0  0  0  0  0  0  0  0
    8.9214   -0.1986   25.4206 H   0  0  0  0  0  0  0  0  0  0  0  0
   10.0622   -2.2326   21.8251 H   0  0  0  0  0  0  0  0  0  0  0  0
    4.4037    1.9731   17.4543 H   0  0  0  0  0  0  0  0  0  0  0  0
    5.7084    0.6923   22.1132 H   0  0  0  0  0  0  0  0  0  0  0  0
    8.6882   -2.3542   26.5803 H   0  0  0  0  0  0  0  0  0  0  0  0
    9.9258   -4.3896   22.9914 H   0  0  0  0  0  0  0  0  0  0  0  0
    8.4862   -0.8060   18.1787 H   0  0  0  0  0  0  0  0  0  0  0  0
   10.0207   -3.9702   27.3608 H   0  0  0  0  0  0  0  0  0  0  0  0
   10.1536   -5.7313   27.1546 H   0  0  0  0  0  0  0  0  0  0  0  0
    9.1181   -6.7774   25.0751 H   0  0  0  0  0  0  0  0  0  0  0  0
    8.2812   -5.7063   23.9302 H   0  0  0  0  0  0  0  0  0  0  0  0
    8.3631   -5.2257   28.7609 H   0  0  0  0  0  0  0  0  0  0  0  0
    7.5532   -4.1574   27.6103 H   0  0  0  0  0  0  0  0  0  0  0  0
    6.5460   -5.1840   25.6220 H   0  0  0  0  0  0  0  0  0  0  0  0
    6.6948   -6.9355   25.4433 H   0  0  0  0  0  0  0  0  0  0  0  0
    8.9481    1.1774   24.8382 H   0  0  0  0  0  0  0  0  0  0  0  0
    7.7730    1.4670   23.5839 H   0  0  0  0  0  0  0  0  0  0  0  0
   10.5990    0.4745   22.8590 H   0  0  0  0  0  0  0  0  0  0  0  0
    8.2487   -1.5564   21.0972 H   0  0  0  0  0  0  0  0  0  0  0  0
  1  2  1  0  0  0  0
  1  3  2  0  0  0  0
  2  6  2  0  0  0  0
  3  7  1  0  0  0  0
  4  5  1  0  0  0  0
  4 10  2  0  0  0  0
  5 11  2  0  0  0  0
  6 15  1  0  0  0  0
  7 15  2  0  0  0  0
  8 12  2  0  0  0  0
  8 16  1  0  0  0  0
  9 13  1  0  0  0  0
  9 16  2  0  0  0  0
 10 17  1  0  0  0  0
 11 18  1  0  0  0  0
 12 19  1  0  0  0  0
 13 19  2  0  0  0  0
 14 27  2  0  0  0  0
 14 28  1  0  0  0  0
 15 25  1  0  0  0  0
 16 26  1  0  0  0  0
 17 18  2  0  0  0  0
 17 27  1  0  0  0  0
 18 28  1  0  0  0  0
 19 29  1  0  0  0  0
 20 26  1  1  0  0  0
 20 30  1  0  0  0  0
 20 31  2  0  0  0  0
 21 23  1  0  0  0  0
 21 29  1  0  0  0  0
 22 24  1  0  0  0  0
 22 29  1  0  0  0  0
 23 32  1  0  0  0  0
 24 32  1  0  0  0  0
 25 26  1  0  0  0  0
 28 30  1  0  0  0  0
  1 33  1  0  0  0  0
  2 34  1  0  0  0  0
  3 35  1  0  0  0  0
  4 36  1  0  0  0  0
  5 37  1  0  0  0  0
  6 38  1  0  0  0  0
  7 39  1  0  0  0  0
  8 40  1  0  0  0  0
  9 41  1  0  0  0  0
 10 42  1  0  0  0  0
 11 43  1  0  0  0  0
 12 44  1  0  0  0  0
 13 45  1  0  0  0  0
 14 46  1  0  0  0  0
 21 47  1  0  0  0  0
 21 48  1  0  0  0  0
 22 49  1  0  0  0  0
 22 50  1  0  0  0  0
 23 51  1  0  0  0  0
 23 52  1  0  0  0  0
 24 53  1  0  0  0  0
 24 54  1  0  0  0  0
 25 55  1  0  0  0  0
 25 56  1  0  0  0  0
 26 57  1  0  0  0  0
 30 58  1  0  0  0  0
M  END
> <clash_score>
0.6129046322907171

> <docking_score>
-7.477969646453857

> <overlap_score>
0.8695846199989319

$$$$
BENZO_219_1
  -OEChem-08232013453D

 59 63  0     1  0  0  0  0  0999 V2000
    3.9160    2.0630   19.5520 C   0  0  0  0  0  0  0  0  0  0  0  0
    4.2750    1.7050   20.8490 C   0  0  0  0  0  0  0  0  0  0  0  0
    9.0720   -1.1280   24.8640 C   0  0  0  0  0  0  0  0  0  0  0  0
    9.7200   -2.2600   22.8630 C   0  0  0  0  0  0  0  0  0  0  0  0
    4.6890    1.6810   18.4640 C   0  0  0  0  0  0  0  0  0  0  0  0
    5.4210    0.9600   21.0930 C   0  0  0  0  0  0  0  0  0  0  0  0
    8.9960   -2.3380   25.5320 C   0  0  0  0  0  0  0  0  0  0  0  0
    9.6730   -3.4710   23.5300 C   0  0  0  0  0  0  0  0  0  0  0  0
   10.2647    3.1985   23.3556 C   0  0  0  0  0  0  0  0  0  0  0  0
   12.2689    2.9149   22.4968 C   0  0  0  0  0  0  0  0  0  0  0  0
    7.6390   -0.2680   18.5410 C   0  0  0  0  0  0  0  0  0  0  0  0
    9.3350   -1.0880   23.5010 C   0  0  0  0  0  0  0  0  0  0  0  0
   11.1770    2.2099   22.9407 C   0  0  0  0  0  0  0  0  0  0  0  0
    5.8300    0.9190   18.6970 C   0  0  0  0  0  0  0  0  0  0  0  0
    6.1790    0.5730   19.9990 C   0  0  0  0  0  0  0  0  0  0  0  0
    9.3070   -3.5340   24.8780 C   0  0  0  0  0  0  0  0  0  0  0  0
    8.3596   -5.0074   26.6306 C   0  0  0  0  0  0  0  0  0  0  0  0
    9.0420    0.3700   21.5280 C   0  0  0  0  0  0  0  0  0  0  0  0
    8.4719   -6.3982   27.2294 C   0  0  0  0  0  0  0  0  0  0  0  0
    9.9251   -6.7607   27.4801 C   0  0  0  0  0  0  0  0  0  0  0  0
   10.7833   -6.6095   26.2280 C   0  0  0  0  0  0  0  0  0  0  0  0
   10.0539   -5.9100   25.0821 C   0  0  0  0  0  0  0  0  0  0  0  0
   12.7964    5.3596   22.3419 C   0  0  0  0  0  0  0  0  0  0  0  0
   10.9988    0.7103   22.9770 C   0  0  0  0  0  0  0  0  0  0  0  0
    9.4560    0.1560   22.8130 C   0  0  1  0  0  0  0  0  0  0  0  0
   10.7361    4.4372   23.1903 N   0  0  0  0  0  0  0  0  0  0  0  0
    6.7580    0.3810   17.8350 N   0  0  0  0  0  0  0  0  0  0  0  0
   11.9566    4.2317   22.6667 N   0  0  0  0  0  0  0  0  0  0  0  0
    7.3170   -0.1610   19.8550 N   0  0  0  0  0  0  0  0  0  0  0  0
    9.2529   -4.7797   25.5643 N   0  0  0  0  0  0  0  0  0  0  0  0
    8.1890   -0.7180   20.8700 N   0  0  0  0  0  0  0  0  0  0  0  0
    7.4954   -4.2357   27.0448 O   0  0  0  0  0  0  0  0  0  0  0  0
    9.2690    1.4140   20.9380 O   0  0  0  0  0  0  0  0  0  0  0  0
    3.0134    2.6521   19.3911 H   0  0  0  0  0  0  0  0  0  0  0  0
    3.6460    2.0128   21.6812 H   0  0  0  0  0  0  0  0  0  0  0  0
    8.9202   -0.1986   25.4206 H   0  0  0  0  0  0  0  0  0  0  0  0
   10.0631   -2.2319   21.8252 H   0  0  0  0  0  0  0  0  0  0  0  0
    4.4037    1.9731   17.4543 H   0  0  0  0  0  0  0  0  0  0  0  0
    5.7084    0.6923   22.1132 H   0  0  0  0  0  0  0  0  0  0  0  0
    8.6898   -2.3534   26.5810 H   0  0  0  0  0  0  0  0  0  0  0  0
    9.9254   -4.3899   22.9914 H   0  0  0  0  0  0  0  0  0  0  0  0
    9.2758    3.0704   23.7727 H   0  0  0  0  0  0  0  0  0  0  0  0
   13.2185    2.5996   22.0861 H   0  0  0  0  0  0  0  0  0  0  0  0
    8.4862   -0.8060   18.1787 H   0  0  0  0  0  0  0  0  0  0  0  0
    7.9324   -6.4149   28.1639 H   0  0  0  0  0  0  0  0  0  0  0  0
    8.0254   -7.0921   26.5330 H   0  0  0  0  0  0  0  0  0  0  0  0
   10.3386   -6.1268   28.2921 H   0  0  0  0  0  0  0  0  0  0  0  0
    9.9903   -7.8025   27.8535 H   0  0  0  0  0  0  0  0  0  0  0  0
   11.7036   -6.0405   26.4770 H   0  0  0  0  0  0  0  0  0  0  0  0
   11.1411   -7.6069   25.8917 H   0  0  0  0  0  0  0  0  0  0  0  0
   10.7783   -5.5162   24.3756 H   0  0  0  0  0  0  0  0  0  0  0  0
    9.4042   -6.6189   24.5805 H   0  0  0  0  0  0  0  0  0  0  0  0
   12.5864    5.6502   21.3092 H   0  0  0  0  0  0  0  0  0  0  0  0
   12.5764    6.1857   23.0239 H   0  0  0  0  0  0  0  0  0  0  0  0
   13.8458    5.0729   22.4537 H   0  0  0  0  0  0  0  0  0  0  0  0
   11.6488    0.2736   22.2061 H   0  0  0  0  0  0  0  0  0  0  0  0
   11.3815    0.3161   23.9279 H   0  0  0  0  0  0  0  0  0  0  0  0
    8.9230    0.9815   23.4801 H   0  0  0  0  0  0  0  0  0  0  0  0
    8.2487   -1.5564   21.0972 H   0  0  0  0  0  0  0  0  0  0  0  0
  1  2  1  0  0  0  0
  1  5  2  0  0  0  0
  2  6  2  0  0  0  0
  3  7  2  0  0  0  0
  3 12  1  0  0  0  0
  4  8  1  0  0  0  0
  4 12  2  0  0  0  0
  5 14  1  0  0  0  0
  6 15  1  0  0  0  0
  7 16  1  0  0  0  0
  8 16  2  0  0  0  0
  9 13  1  0  0  0  0
  9 26  2  0  0  0  0
 10 13  2  0  0  0  0
 10 28  1  0  0  0  0
 11 27  2  0  0  0  0
 11 29  1  0  0  0  0
 12 25  1  0  0  0  0
 13 24  1  0  0  0  0
 14 15  2  0  0  0  0
 14 27  1  0  0  0  0
 15 29  1  0  0  0  0
 16 30  1  0  0  0  0
 17 19  1  0  0  0  0
 17 30  1  0  0  0  0
 17 32  2  0  0  0  0
 18 25  1  0  0  0  0
 18 31  1  0  0  0  0
 18 33  2  0  0  0  0
 19 20  1  0  0  0  0
 20 21  1  0  0  0  0
 21 22  1  0  0  0  0
 22 30  1  0  0  0  0
 23 28  1  0  0  0  0
 24 25  1  1  0  0  0
 26 28  1  0  0  0  0
 29 31  1  0  0  0  0
  1 34  1  0  0  0  0
  2 35  1  0  0  0  0
  3 36  1  0  0  0  0
  4 37  1  0  0  0  0
  5 38  1  0  0  0  0
  6 39  1  0  0  0  0
  7 40  1  0  0  0  0
  8 41  1  0  0  0  0
  9 42  1  0  0  0  0
 10 43  1  0  0  0  0
 11 44  1  0  0  0  0
 19 45  1  0  0  0  0
 19 46  1  0  0  0  0
 20 47  1  0  0  0  0
 20 48  1  0  0  0  0
 21 49  1  0  0  0  0
 21 50  1  0  0  0  0
 22 51  1  0  0  0  0
 22 52  1  0  0  0  0
 23 53  1  0  0  0  0
 23 54  1  0  0  0  0
 23 55  1  0  0  0  0
 24 56  1  0  0  0  0
 24 57  1  0  0  0  0
 25 58  1  0  0  0  0
 31 59  1  0  0  0  0
M  END
> <clash_score>
0.7790931276820443

> <docking_score>
-9.127303123474121

> <overlap_score>
0.9476698040962219

$$$$
BENZO_220_1
  -OEChem-08232013453D

 55 59  0     1  0  0  0  0  0999 V2000
    3.9160    2.0630   19.5520 C   0  0  0  0  0  0  0  0  0  0  0  0
    4.2750    1.7050   20.8490 C   0  0  0  0  0  0  0  0  0  0  0  0
    9.0720   -1.1280   24.8640 C   0  0  0  0  0  0  0  0  0  0  0  0
    9.7200   -2.2600   22.8630 C   0  0  0  0  0  0  0  0  0  0  0  0
    4.6890    1.6810   18.4640 C   0  0  0  0  0  0  0  0  0  0  0  0
    5.4210    0.9600   21.0930 C   0  0  0  0  0  0  0  0  0  0  0  0
    8.9960   -2.3380   25.5320 C   0  0  0  0  0  0  0  0  0  0  0  0
    9.6730   -3.4710   23.5300 C   0  0  0  0  0  0  0  0  0  0  0  0
   10.9259    2.7594   23.0875 C   0  0  0  0  0  0  0  0  0  0  0  0
   11.3079    4.0616   22.8512 C   0  0  0  0  0  0  0  0  0  0  0  0
    8.9320    3.8927   23.4646 C   0  0  0  0  0  0  0  0  0  0  0  0
    7.6390   -0.2680   18.5410 C   0  0  0  0  0  0  0  0  0  0  0  0
    9.3350   -1.0880   23.5010 C   0  0  0  0  0  0  0  0  0  0  0  0
    9.5496    2.6614   23.4427 C   0  0  0  0  0  0  0  0  0  0  0  0
    5.8300    0.9190   18.6970 C   0  0  0  0  0  0  0  0  0  0  0  0
    6.1790    0.5730   19.9990 C   0  0  0  0  0  0  0  0  0  0  0  0
    9.3070   -3.5340   24.8780 C   0  0  0  0  0  0  0  0  0  0  0  0
    9.0420    0.3700   21.5280 C   0  0  0  0  0  0  0  0  0  0  0  0
    8.8802   -4.8468   26.9522 C   0  0  0  0  0  0  0  0  0  0  0  0
    9.1312   -5.9971   24.8013 C   0  0  0  0  0  0  0  0  0  0  0  0
    7.4537   -5.3795   27.0345 C   0  0  0  0  0  0  0  0  0  0  0  0
    7.6970   -6.5030   24.9624 C   0  0  0  0  0  0  0  0  0  0  0  0
    8.8518    1.3594   23.7587 C   0  0  0  0  0  0  0  0  0  0  0  0
    9.4560    0.1560   22.8130 C   0  0  1  0  0  0  0  0  0  0  0  0
    6.7580    0.3810   17.8350 N   0  0  0  0  0  0  0  0  0  0  0  0
    7.3170   -0.1610   19.8550 N   0  0  0  0  0  0  0  0  0  0  0  0
    9.2564   -4.7368   25.5411 N   0  0  0  0  0  0  0  0  0  0  0  0
    8.1890   -0.7180   20.8700 N   0  0  0  0  0  0  0  0  0  0  0  0
    9.2690    1.4140   20.9380 O   0  0  0  0  0  0  0  0  0  0  0  0
    7.3604   -6.6337   26.3481 O   0  0  0  0  0  0  0  0  0  0  0  0
   10.0100    5.1594   23.0577 S   0  0  0  0  0  0  0  0  0  0  0  0
    3.0134    2.6521   19.3911 H   0  0  0  0  0  0  0  0  0  0  0  0
    3.6460    2.0127   21.6812 H   0  0  0  0  0  0  0  0  0  0  0  0
    8.9214   -0.1986   25.4206 H   0  0  0  0  0  0  0  0  0  0  0  0
   10.0622   -2.2326   21.8251 H   0  0  0  0  0  0  0  0  0  0  0  0
    4.4037    1.9731   17.4543 H   0  0  0  0  0  0  0  0  0  0  0  0
    5.7084    0.6923   22.1132 H   0  0  0  0  0  0  0  0  0  0  0  0
    8.6882   -2.3542   26.5803 H   0  0  0  0  0  0  0  0  0  0  0  0
    9.9258   -4.3896   22.9914 H   0  0  0  0  0  0  0  0  0  0  0  0
   11.6051    1.9199   23.0085 H   0  0  0  0  0  0  0  0  0  0  0  0
   12.2871    4.4210   22.5679 H   0  0  0  0  0  0  0  0  0  0  0  0
    7.9002    4.1134   23.7006 H   0  0  0  0  0  0  0  0  0  0  0  0
    8.4862   -0.8060   18.1787 H   0  0  0  0  0  0  0  0  0  0  0  0
    8.9362   -3.8759   27.4489 H   0  0  0  0  0  0  0  0  0  0  0  0
    9.5593   -5.5413   27.4538 H   0  0  0  0  0  0  0  0  0  0  0  0
    9.8251   -6.7295   25.2159 H   0  0  0  0  0  0  0  0  0  0  0  0
    9.3501   -5.8539   23.7441 H   0  0  0  0  0  0  0  0  0  0  0  0
    7.1818   -5.5525   28.0779 H   0  0  0  0  0  0  0  0  0  0  0  0
    6.7334   -4.6727   26.6129 H   0  0  0  0  0  0  0  0  0  0  0  0
    6.9790   -5.8386   24.4676 H   0  0  0  0  0  0  0  0  0  0  0  0
    7.6015   -7.4918   24.5034 H   0  0  0  0  0  0  0  0  0  0  0  0
    8.9481    1.1774   24.8382 H   0  0  0  0  0  0  0  0  0  0  0  0
    7.7730    1.4670   23.5839 H   0  0  0  0  0  0  0  0  0  0  0  0
   10.5990    0.4745   22.8590 H   0  0  0  0  0  0  0  0  0  0  0  0
    8.2487   -1.5564   21.0972 H   0  0  0  0  0  0  0  0  0  0  0  0
  1  2  1  0  0  0  0
  1  5  2  0  0  0  0
  2  6  2  0  0  0  0
  3  7  2  0  0  0  0
  3 13  1  0  0  0  0
  4  8  1  0  0  0  0
  4 13  2  0  0  0  0
  5 15  1  0  0  0  0
  6 16  1  0  0  0  0
  7 17  1  0  0  0  0
  8 17  2  0  0  0  0
  9 10  2  0  0  0  0
  9 14  1  0  0  0  0
 10 31  1  0  0  0  0
 11 14  2  0  0  0  0
 11 31  1  0  0  0  0
 12 25  2  0  0  0  0
 12 26  1  0  0  0  0
 13 24  1  0  0  0  0
 14 23  1  0  0  0  0
 15 16  2  0  0  0  0
 15 25  1  0  0  0  0
 16 26  1  0  0  0  0
 17 27  1  0  0  0  0
 18 24  1  1  0  0  0
 18 28  1  0  0  0  0
 18 29  2  0  0  0  0
 19 21  1  0  0  0  0
 19 27  1  0  0  0  0
 20 22  1  0  0  0  0
 20 27  1  0  0  0  0
 21 30  1  0  0  0  0
 22 30  1  0  0  0  0
 23 24  1  0  0  0  0
 26 28  1  0  0  0  0
  1 32  1  0  0  0  0
  2 33  1  0  0  0  0
  3 34  1  0  0  0  0
  4 35  1  0  0  0  0
  5 36  1  0  0  0  0
  6 37  1  0  0  0  0
  7 38  1  0  0  0  0
  8 39  1  0  0  0  0
  9 40  1  0  0  0  0
 10 41  1  0  0  0  0
 11 42  1  0  0  0  0
 12 43  1  0  0  0  0
 19 44  1  0  0  0  0
 19 45  1  0  0  0  0
 20 46  1  0  0  0  0
 20 47  1  0  0  0  0
 21 48  1  0  0  0  0
 21 49  1  0  0  0  0
 22 50  1  0  0  0  0
 22 51  1  0  0  0  0
 23 52  1  0  0  0  0
 23 53  1  0  0  0  0
 24 54  1  0  0  0  0
 28 55  1  0  0  0  0
M  END
> <clash_score>
0

> <docking_score>
-8.53376579284668

> <overlap_score>
0.8887324929237366

$$$$
BENZO_221_2
  -OEChem-08232013453D

 58 62  0     1  0  0  0  0  0999 V2000
   11.5046    4.9795   22.8735 C   0  0  0  0  0  0  0  0  0  0  0  0
   12.5260    4.1453   22.4195 C   0  0  0  0  0  0  0  0  0  0  0  0
   10.3193    4.4290   23.3612 C   0  0  0  0  0  0  0  0  0  0  0  0
    3.9160    2.0630   19.5520 C   0  0  0  0  0  0  0  0  0  0  0  0
    4.2750    1.7050   20.8490 C   0  0  0  0  0  0  0  0  0  0  0  0
   12.3622    2.7604   22.4530 C   0  0  0  0  0  0  0  0  0  0  0  0
   10.1555    3.0442   23.3947 C   0  0  0  0  0  0  0  0  0  0  0  0
    9.0720   -1.1280   24.8640 C   0  0  0  0  0  0  0  0  0  0  0  0
    9.7200   -2.2600   22.8630 C   0  0  0  0  0  0  0  0  0  0  0  0
    4.6890    1.6810   18.4640 C   0  0  0  0  0  0  0  0  0  0  0  0
    5.4210    0.9600   21.0930 C   0  0  0  0  0  0  0  0  0  0  0  0
    8.9960   -2.3380   25.5320 C   0  0  0  0  0  0  0  0  0  0  0  0
    9.6730   -3.4710   23.5300 C   0  0  0  0  0  0  0  0  0  0  0  0
    7.6390   -0.2680   18.5410 C   0  0  0  0  0  0  0  0  0  0  0  0
   11.1769    2.2099   22.9406 C   0  0  0  0  0  0  0  0  0  0  0  0
    9.3350   -1.0880   23.5010 C   0  0  0  0  0  0  0  0  0  0  0  0
    5.8300    0.9190   18.6970 C   0  0  0  0  0  0  0  0  0  0  0  0
    6.1790    0.5730   19.9990 C   0  0  0  0  0  0  0  0  0  0  0  0
    9.3070   -3.5340   24.8780 C   0  0  0  0  0  0  0  0  0  0  0  0
    9.0420    0.3700   21.5280 C   0  0  0  0  0  0  0  0  0  0  0  0
    9.5176   -4.8600   26.9769 C   0  0  0  0  0  0  0  0  0  0  0  0
    8.5166   -5.8725   24.9805 C   0  0  0  0  0  0  0  0  0  0  0  0
    8.1870   -5.0443   27.6986 C   0  0  0  0  0  0  0  0  0  0  0  0
    7.2201   -6.0348   25.7753 C   0  0  0  0  0  0  0  0  0  0  0  0
   10.9988    0.7103   22.9770 C   0  0  0  0  0  0  0  0  0  0  0  0
    9.4560    0.1560   22.8130 C   0  0  2  0  0  0  0  0  0  0  0  0
    6.7580    0.3810   17.8350 N   0  0  0  0  0  0  0  0  0  0  0  0
    7.3170   -0.1610   19.8550 N   0  0  0  0  0  0  0  0  0  0  0  0
    9.2564   -4.7368   25.5411 N   0  0  0  0  0  0  0  0  0  0  0  0
    8.1890   -0.7180   20.8700 N   0  0  0  0  0  0  0  0  0  0  0  0
    9.2690    1.4140   20.9380 O   0  0  0  0  0  0  0  0  0  0  0  0
    7.4995   -6.1856   27.1717 O   0  0  0  0  0  0  0  0  0  0  0  0
   11.6328    6.0578   22.8486 H   0  0  0  0  0  0  0  0  0  0  0  0
   13.4494    4.5737   22.0407 H   0  0  0  0  0  0  0  0  0  0  0  0
    9.5243    5.0783   23.7158 H   0  0  0  0  0  0  0  0  0  0  0  0
    3.0134    2.6521   19.3911 H   0  0  0  0  0  0  0  0  0  0  0  0
    3.6460    2.0127   21.6812 H   0  0  0  0  0  0  0  0  0  0  0  0
   13.1634    2.1181   22.0969 H   0  0  0  0  0  0  0  0  0  0  0  0
    9.2286    2.6243   23.7762 H   0  0  0  0  0  0  0  0  0  0  0  0
    8.9214   -0.1986   25.4206 H   0  0  0  0  0  0  0  0  0  0  0  0
   10.0622   -2.2326   21.8251 H   0  0  0  0  0  0  0  0  0  0  0  0
    4.4037    1.9731   17.4543 H   0  0  0  0  0  0  0  0  0  0  0  0
    5.7084    0.6923   22.1132 H   0  0  0  0  0  0  0  0  0  0  0  0
    8.6882   -2.3542   26.5803 H   0  0  0  0  0  0  0  0  0  0  0  0
    9.9258   -4.3896   22.9914 H   0  0  0  0  0  0  0  0  0  0  0  0
    8.4862   -0.8060   18.1787 H   0  0  0  0  0  0  0  0  0  0  0  0
   10.0207   -3.9702   27.3608 H   0  0  0  0  0  0  0  0  0  0  0  0
   10.1536   -5.7313   27.1546 H   0  0  0  0  0  0  0  0  0  0  0  0
    9.1181   -6.7774   25.0751 H   0  0  0  0  0  0  0  0  0  0  0  0
    8.2812   -5.7063   23.9302 H   0  0  0  0  0  0  0  0  0  0  0  0
    8.3631   -5.2257   28.7609 H   0  0  0  0  0  0  0  0  0  0  0  0
    7.5532   -4.1574   27.6103 H   0  0  0  0  0  0  0  0  0  0  0  0
    6.5460   -5.1840   25.6220 H   0  0  0  0  0  0  0  0  0  0  0  0
    6.6948   -6.9355   25.4433 H   0  0  0  0  0  0  0  0  0  0  0  0
   11.6488    0.2736   22.2061 H   0  0  0  0  0  0  0  0  0  0  0  0
   11.3815    0.3162   23.9278 H   0  0  0  0  0  0  0  0  0  0  0  0
    8.9230    0.9815   23.4801 H   0  0  0  0  0  0  0  0  0  0  0  0
    8.2487   -1.5564   21.0972 H   0  0  0  0  0  0  0  0  0  0  0  0
  1  2  1  0  0  0  0
  1  3  2  0  0  0  0
  2  6  2  0  0  0  0
  3  7  1  0  0  0  0
  4  5  1  0  0  0  0
  4 10  2  0  0  0  0
  5 11  2  0  0  0  0
  6 15  1  0  0  0  0
  7 15  2  0  0  0  0
  8 12  2  0  0  0  0
  8 16  1  0  0  0  0
  9 13  1  0  0  0  0
  9 16  2  0  0  0  0
 10 17  1  0  0  0  0
 11 18  1  0  0  0  0
 12 19  1  0  0  0  0
 13 19  2  0  0  0  0
 14 27  2  0  0  0  0
 14 28  1  0  0  0  0
 15 25  1  0  0  0  0
 16 26  1  0  0  0  0
 17 18  2  0  0  0  0
 17 27  1  0  0  0  0
 18 28  1  0  0  0  0
 19 29  1  0  0  0  0
 20 26  1  6  0  0  0
 20 30  1  0  0  0  0
 20 31  2  0  0  0  0
 21 23  1  0  0  0  0
 21 29  1  0  0  0  0
 22 24  1  0  0  0  0
 22 29  1  0  0  0  0
 23 32  1  0  0  0  0
 24 32  1  0  0  0  0
 25 26  1  0  0  0  0
 28 30  1  0  0  0  0
  1 33  1  0  0  0  0
  2 34  1  0  0  0  0
  3 35  1  0  0  0  0
  4 36  1  0  0  0  0
  5 37  1  0  0  0  0
  6 38  1  0  0  0  0
  7 39  1  0  0  0  0
  8 40  1  0  0  0  0
  9 41  1  0  0  0  0
 10 42  1  0  0  0  0
 11 43  1  0  0  0  0
 12 44  1  0  0  0  0
 13 45  1  0  0  0  0
 14 46  1  0  0  0  0
 21 47  1  0  0  0  0
 21 48  1  0  0  0  0
 22 49  1  0  0  0  0
 22 50  1  0  0  0  0
 23 51  1  0  0  0  0
 23 52  1  0  0  0  0
 24 53  1  0  0  0  0
 24 54  1  0  0  0  0
 25 55  1  0  0  0  0
 25 56  1  0  0  0  0
 26 57  1  0  0  0  0
 30 58  1  0  0  0  0
M  END
> <clash_score>
0

> <docking_score>
-10.138704299926758

> <overlap_score>
0.9408429265022278

$$$$
BENZO_220_2
  -OEChem-08232013453D

 55 59  0     1  0  0  0  0  0999 V2000
    3.9160    2.0630   19.5520 C   0  0  0  0  0  0  0  0  0  0  0  0
    4.2750    1.7050   20.8490 C   0  0  0  0  0  0  0  0  0  0  0  0
    9.0720   -1.1280   24.8640 C   0  0  0  0  0  0  0  0  0  0  0  0
    9.7200   -2.2600   22.8630 C   0  0  0  0  0  0  0  0  0  0  0  0
    4.6890    1.6810   18.4640 C   0  0  0  0  0  0  0  0  0  0  0  0
    5.4210    0.9600   21.0930 C   0  0  0  0  0  0  0  0  0  0  0  0
    8.9960   -2.3380   25.5320 C   0  0  0  0  0  0  0  0  0  0  0  0
    9.6730   -3.4710   23.5300 C   0  0  0  0  0  0  0  0  0  0  0  0
   12.0511    2.8846   22.0402 C   0  0  0  0  0  0  0  0  0  0  0  0
   12.0243    4.2502   22.2187 C   0  0  0  0  0  0  0  0  0  0  0  0
   10.5154    3.0858   23.7732 C   0  0  0  0  0  0  0  0  0  0  0  0
    7.6390   -0.2680   18.5410 C   0  0  0  0  0  0  0  0  0  0  0  0
    9.3350   -1.0880   23.5010 C   0  0  0  0  0  0  0  0  0  0  0  0
   11.1769    2.2099   22.9406 C   0  0  0  0  0  0  0  0  0  0  0  0
    5.8300    0.9190   18.6970 C   0  0  0  0  0  0  0  0  0  0  0  0
    6.1790    0.5730   19.9990 C   0  0  0  0  0  0  0  0  0  0  0  0
    9.3070   -3.5340   24.8780 C   0  0  0  0  0  0  0  0  0  0  0  0
    9.0420    0.3700   21.5280 C   0  0  0  0  0  0  0  0  0  0  0  0
    8.8802   -4.8468   26.9522 C   0  0  0  0  0  0  0  0  0  0  0  0
    9.1312   -5.9971   24.8013 C   0  0  0  0  0  0  0  0  0  0  0  0
    7.4537   -5.3795   27.0345 C   0  0  0  0  0  0  0  0  0  0  0  0
    7.6970   -6.5030   24.9624 C   0  0  0  0  0  0  0  0  0  0  0  0
   10.9988    0.7103   22.9770 C   0  0  0  0  0  0  0  0  0  0  0  0
    9.4560    0.1560   22.8130 C   0  0  2  0  0  0  0  0  0  0  0  0
    6.7580    0.3810   17.8350 N   0  0  0  0  0  0  0  0  0  0  0  0
    7.3170   -0.1610   19.8550 N   0  0  0  0  0  0  0  0  0  0  0  0
    9.2564   -4.7368   25.5411 N   0  0  0  0  0  0  0  0  0  0  0  0
    8.1890   -0.7180   20.8700 N   0  0  0  0  0  0  0  0  0  0  0  0
    9.2690    1.4140   20.9380 O   0  0  0  0  0  0  0  0  0  0  0  0
    7.3604   -6.6337   26.3481 O   0  0  0  0  0  0  0  0  0  0  0  0
   10.9486    4.7140   23.4677 S   0  0  0  0  0  0  0  0  0  0  0  0
    3.0134    2.6521   19.3911 H   0  0  0  0  0  0  0  0  0  0  0  0
    3.6460    2.0127   21.6812 H   0  0  0  0  0  0  0  0  0  0  0  0
    8.9214   -0.1986   25.4206 H   0  0  0  0  0  0  0  0  0  0  0  0
   10.0622   -2.2326   21.8251 H   0  0  0  0  0  0  0  0  0  0  0  0
    4.4037    1.9731   17.4543 H   0  0  0  0  0  0  0  0  0  0  0  0
    5.7084    0.6923   22.1132 H   0  0  0  0  0  0  0  0  0  0  0  0
    8.6882   -2.3542   26.5803 H   0  0  0  0  0  0  0  0  0  0  0  0
    9.9258   -4.3896   22.9914 H   0  0  0  0  0  0  0  0  0  0  0  0
   12.6704    2.3968   21.2980 H   0  0  0  0  0  0  0  0  0  0  0  0
   12.5855    4.9978   21.6759 H   0  0  0  0  0  0  0  0  0  0  0  0
    9.7987    2.8515   24.5482 H   0  0  0  0  0  0  0  0  0  0  0  0
    8.4862   -0.8060   18.1787 H   0  0  0  0  0  0  0  0  0  0  0  0
    8.9362   -3.8759   27.4489 H   0  0  0  0  0  0  0  0  0  0  0  0
    9.5593   -5.5413   27.4538 H   0  0  0  0  0  0  0  0  0  0  0  0
    9.8251   -6.7295   25.2159 H   0  0  0  0  0  0  0  0  0  0  0  0
    9.3501   -5.8539   23.7441 H   0  0  0  0  0  0  0  0  0  0  0  0
    7.1818   -5.5525   28.0779 H   0  0  0  0  0  0  0  0  0  0  0  0
    6.7334   -4.6727   26.6129 H   0  0  0  0  0  0  0  0  0  0  0  0
    6.9790   -5.8386   24.4676 H   0  0  0  0  0  0  0  0  0  0  0  0
    7.6015   -7.4918   24.5034 H   0  0  0  0  0  0  0  0  0  0  0  0
   11.6488    0.2736   22.2061 H   0  0  0  0  0  0  0  0  0  0  0  0
   11.3815    0.3162   23.9278 H   0  0  0  0  0  0  0  0  0  0  0  0
    8.9230    0.9815   23.4801 H   0  0  0  0  0  0  0  0  0  0  0  0
    8.2487   -1.5564   21.0972 H   0  0  0  0  0  0  0  0  0  0  0  0
  1  2  1  0  0  0  0
  1  5  2  0  0  0  0
  2  6  2  0  0  0  0
  3  7  2  0  0  0  0
  3 13  1  0  0  0  0
  4  8  1  0  0  0  0
  4 13  2  0  0  0  0
  5 15  1  0  0  0  0
  6 16  1  0  0  0  0
  7 17  1  0  0  0  0
  8 17  2  0  0  0  0
  9 10  2  0  0  0  0
  9 14  1  0  0  0  0
 10 31  1  0  0  0  0
 11 14  2  0  0  0  0
 11 31  1  0  0  0  0
 12 25  2  0  0  0  0
 12 26  1  0  0  0  0
 13 24  1  0  0  0  0
 14 23  1  0  0  0  0
 15 16  2  0  0  0  0
 15 25  1  0  0  0  0
 16 26  1  0  0  0  0
 17 27  1  0  0  0  0
 18 24  1  6  0  0  0
 18 28  1  0  0  0  0
 18 29  2  0  0  0  0
 19 21  1  0  0  0  0
 19 27  1  0  0  0  0
 20 22  1  0  0  0  0
 20 27  1  0  0  0  0
 21 30  1  0  0  0  0
 22 30  1  0  0  0  0
 23 24  1  0  0  0  0
 26 28  1  0  0  0  0
  1 32  1  0  0  0  0
  2 33  1  0  0  0  0
  3 34  1  0  0  0  0
  4 35  1  0  0  0  0
  5 36  1  0  0  0  0
  6 37  1  0  0  0  0
  7 38  1  0  0  0  0
  8 39  1  0  0  0  0
  9 40  1  0  0  0  0
 10 41  1  0  0  0  0
 11 42  1  0  0  0  0
 12 43  1  0  0  0  0
 19 44  1  0  0  0  0
 19 45  1  0  0  0  0
 20 46  1  0  0  0  0
 20 47  1  0  0  0  0
 21 48  1  0  0  0  0
 21 49  1  0  0  0  0
 22 50  1  0  0  0  0
 22 51  1  0  0  0  0
 23 52  1  0  0  0  0
 23 53  1  0  0  0  0
 24 54  1  0  0  0  0
 28 55  1  0  0  0  0
M  END
> <clash_score>
0

> <docking_score>
-9.507015228271484

> <overlap_score>
0.9348042011260986

$$$$
BENZO_222_1
  -OEChem-08232013453D

 58 62  0     1  0  0  0  0  0999 V2000
    3.9160    2.0630   19.5520 C   0  0  0  0  0  0  0  0  0  0  0  0
    4.2750    1.7050   20.8490 C   0  0  0  0  0  0  0  0  0  0  0  0
    9.6807    4.7078   22.1653 C   0  0  0  0  0  0  0  0  0  0  0  0
    9.0376    3.5049   22.4568 C   0  0  0  0  0  0  0  0  0  0  0  0
    9.0720   -1.1280   24.8640 C   0  0  0  0  0  0  0  0  0  0  0  0
    9.7200   -2.2600   22.8630 C   0  0  0  0  0  0  0  0  0  0  0  0
    4.6890    1.6810   18.4640 C   0  0  0  0  0  0  0  0  0  0  0  0
    5.4210    0.9600   21.0930 C   0  0  0  0  0  0  0  0  0  0  0  0
    8.9960   -2.3380   25.5320 C   0  0  0  0  0  0  0  0  0  0  0  0
    9.6730   -3.4710   23.5300 C   0  0  0  0  0  0  0  0  0  0  0  0
   10.8360    5.0672   22.8595 C   0  0  0  0  0  0  0  0  0  0  0  0
   10.7048    3.0207   24.1370 C   0  0  0  0  0  0  0  0  0  0  0  0
    7.6390   -0.2680   18.5410 C   0  0  0  0  0  0  0  0  0  0  0  0
    9.3350   -1.0880   23.5010 C   0  0  0  0  0  0  0  0  0  0  0  0
    9.5496    2.6614   23.4427 C   0  0  0  0  0  0  0  0  0  0  0  0
    5.8300    0.9190   18.6970 C   0  0  0  0  0  0  0  0  0  0  0  0
    6.1790    0.5730   19.9990 C   0  0  0  0  0  0  0  0  0  0  0  0
    9.3070   -3.5340   24.8780 C   0  0  0  0  0  0  0  0  0  0  0  0
   11.3480    4.2236   23.8454 C   0  0  0  0  0  0  0  0  0  0  0  0
    9.0420    0.3700   21.5280 C   0  0  0  0  0  0  0  0  0  0  0  0
    9.5835   -5.9889   24.8508 C   0  0  0  0  0  0  0  0  0  0  0  0
    8.4830   -4.9307   26.7696 C   0  0  0  0  0  0  0  0  0  0  0  0
    8.2780   -6.7382   24.5802 C   0  0  0  0  0  0  0  0  0  0  0  0
    7.2139   -5.7040   26.4277 C   0  0  0  0  0  0  0  0  0  0  0  0
    8.8518    1.3594   23.7587 C   0  0  0  0  0  0  0  0  0  0  0  0
    9.4560    0.1560   22.8130 C   0  0  1  0  0  0  0  0  0  0  0  0
    6.7580    0.3810   17.8350 N   0  0  0  0  0  0  0  0  0  0  0  0
    7.3170   -0.1610   19.8550 N   0  0  0  0  0  0  0  0  0  0  0  0
    9.2564   -4.7368   25.5411 N   0  0  0  0  0  0  0  0  0  0  0  0
    8.1890   -0.7180   20.8700 N   0  0  0  0  0  0  0  0  0  0  0  0
    9.2690    1.4140   20.9380 O   0  0  0  0  0  0  0  0  0  0  0  0
    7.5531   -6.9453   25.7977 O   0  0  0  0  0  0  0  0  0  0  0  0
   12.7727    4.6681   24.7024 Cl  0  0  0  0  0  0  0  0  0  0  0  0
    3.0134    2.6521   19.3911 H   0  0  0  0  0  0  0  0  0  0  0  0
    3.6460    2.0127   21.6812 H   0  0  0  0  0  0  0  0  0  0  0  0
    9.2816    5.3644   21.3976 H   0  0  0  0  0  0  0  0  0  0  0  0
    8.1379    3.2330   21.9109 H   0  0  0  0  0  0  0  0  0  0  0  0
    8.9214   -0.1986   25.4206 H   0  0  0  0  0  0  0  0  0  0  0  0
   10.0622   -2.2326   21.8251 H   0  0  0  0  0  0  0  0  0  0  0  0
    4.4037    1.9731   17.4543 H   0  0  0  0  0  0  0  0  0  0  0  0
    5.7084    0.6923   22.1132 H   0  0  0  0  0  0  0  0  0  0  0  0
    8.6882   -2.3542   26.5803 H   0  0  0  0  0  0  0  0  0  0  0  0
    9.9258   -4.3896   22.9914 H   0  0  0  0  0  0  0  0  0  0  0  0
   11.3266    6.0079   22.6219 H   0  0  0  0  0  0  0  0  0  0  0  0
   11.1004    2.3593   24.9044 H   0  0  0  0  0  0  0  0  0  0  0  0
    8.4862   -0.8060   18.1787 H   0  0  0  0  0  0  0  0  0  0  0  0
   10.2403   -6.6108   25.4579 H   0  0  0  0  0  0  0  0  0  0  0  0
   10.0757   -5.7616   23.9043 H   0  0  0  0  0  0  0  0  0  0  0  0
    8.2168   -3.9556   27.1860 H   0  0  0  0  0  0  0  0  0  0  0  0
    9.0602   -5.4857   27.5117 H   0  0  0  0  0  0  0  0  0  0  0  0
    7.6439   -6.1455   23.9135 H   0  0  0  0  0  0  0  0  0  0  0  0
    8.4620   -7.7014   24.0901 H   0  0  0  0  0  0  0  0  0  0  0  0
    6.6049   -5.8940   27.3159 H   0  0  0  0  0  0  0  0  0  0  0  0
    6.6090   -5.1300   25.7228 H   0  0  0  0  0  0  0  0  0  0  0  0
    8.9481    1.1774   24.8382 H   0  0  0  0  0  0  0  0  0  0  0  0
    7.7730    1.4670   23.5839 H   0  0  0  0  0  0  0  0  0  0  0  0
   10.5990    0.4745   22.8590 H   0  0  0  0  0  0  0  0  0  0  0  0
    8.2487   -1.5564   21.0972 H   0  0  0  0  0  0  0  0  0  0  0  0
  1  2  1  0  0  0  0
  1  7  2  0  0  0  0
  2  8  2  0  0  0  0
  3  4  2  0  0  0  0
  3 11  1  0  0  0  0
  4 15  1  0  0  0  0
  5  9  2  0  0  0  0
  5 14  1  0  0  0  0
  6 10  1  0  0  0  0
  6 14  2  0  0  0  0
  7 16  1  0  0  0  0
  8 17  1  0  0  0  0
  9 18  1  0  0  0  0
 10 18  2  0  0  0  0
 11 19  2  0  0  0  0
 12 15  2  0  0  0  0
 12 19  1  0  0  0  0
 13 27  2  0  0  0  0
 13 28  1  0  0  0  0
 14 26  1  0  0  0  0
 15 25  1  0  0  0  0
 16 17  2  0  0  0  0
 16 27  1  0  0  0  0
 17 28  1  0  0  0  0
 18 29  1  0  0  0  0
 19 33  1  0  0  0  0
 20 26  1  1  0  0  0
 20 30  1  0  0  0  0
 20 31  2  0  0  0  0
 21 23  1  0  0  0  0
 21 29  1  0  0  0  0
 22 24  1  0  0  0  0
 22 29  1  0  0  0  0
 23 32  1  0  0  0  0
 24 32  1  0  0  0  0
 25 26  1  0  0  0  0
 28 30  1  0  0  0  0
  1 34  1  0  0  0  0
  2 35  1  0  0  0  0
  3 36  1  0  0  0  0
  4 37  1  0  0  0  0
  5 38  1  0  0  0  0
  6 39  1  0  0  0  0
  7 40  1  0  0  0  0
  8 41  1  0  0  0  0
  9 42  1  0  0  0  0
 10 43  1  0  0  0  0
 11 44  1  0  0  0  0
 12 45  1  0  0  0  0
 13 46  1  0  0  0  0
 21 47  1  0  0  0  0
 21 48  1  0  0  0  0
 22 49  1  0  0  0  0
 22 50  1  0  0  0  0
 23 51  1  0  0  0  0
 23 52  1  0  0  0  0
 24 53  1  0  0  0  0
 24 54  1  0  0  0  0
 25 55  1  0  0  0  0
 25 56  1  0  0  0  0
 26 57  1  0  0  0  0
 30 58  1  0  0  0  0
M  END
> <clash_score>
0.6123042987570698

> <docking_score>
-6.178497791290283

> <overlap_score>
0.8767106533050537

$$$$
BENZO_225_1
  -OEChem-08232013453D

 53 56  0     1  0  0  0  0  0999 V2000
   11.4726    4.9577   23.1210 C   0  0  0  0  0  0  0  0  0  0  0  0
    4.2750    1.7050   20.8490 C   0  0  0  0  0  0  0  0  0  0  0  0
   12.5103    4.1537   22.6496 C   0  0  0  0  0  0  0  0  0  0  0  0
   10.2847    4.3752   23.5633 C   0  0  0  0  0  0  0  0  0  0  0  0
    3.9160    2.0630   19.5520 C   0  0  0  0  0  0  0  0  0  0  0  0
    5.4210    0.9600   21.0930 C   0  0  0  0  0  0  0  0  0  0  0  0
   12.3602    2.7672   22.6203 C   0  0  0  0  0  0  0  0  0  0  0  0
   10.1346    2.9888   23.5339 C   0  0  0  0  0  0  0  0  0  0  0  0
    9.0720   -1.1280   24.8640 C   0  0  0  0  0  0  0  0  0  0  0  0
    9.7200   -2.2600   22.8630 C   0  0  0  0  0  0  0  0  0  0  0  0
    4.6890    1.6810   18.4640 C   0  0  0  0  0  0  0  0  0  0  0  0
    8.9960   -2.3380   25.5320 C   0  0  0  0  0  0  0  0  0  0  0  0
    9.6730   -3.4710   23.5300 C   0  0  0  0  0  0  0  0  0  0  0  0
    6.1790    0.5730   19.9990 C   0  0  0  0  0  0  0  0  0  0  0  0
   11.1723    2.1848   23.0624 C   0  0  0  0  0  0  0  0  0  0  0  0
    9.3350   -1.0880   23.5010 C   0  0  0  0  0  0  0  0  0  0  0  0
    5.8300    0.9190   18.6970 C   0  0  0  0  0  0  0  0  0  0  0  0
    9.3070   -3.5340   24.8780 C   0  0  0  0  0  0  0  0  0  0  0  0
    7.3170   -0.1610   19.8550 C   0  0  0  0  0  0  0  0  0  0  0  0
    9.0420    0.3700   21.5280 C   0  0  0  0  0  0  0  0  0  0  0  0
    8.0148   -5.2164   26.1419 C   0  0  0  0  0  0  0  0  0  0  0  0
   10.4390   -5.5857   25.6570 C   0  0  0  0  0  0  0  0  0  0  0  0
   11.0089    0.6825   23.0307 C   0  0  0  0  0  0  0  0  0  0  0  0
    9.4560    0.1560   22.8130 C   0  0  1  0  0  0  0  0  0  0  0  0
    7.6390   -0.2680   18.5410 N   0  0  0  0  0  0  0  0  0  0  0  0
    6.7580    0.3810   17.8350 N   0  0  0  0  0  0  0  0  0  0  0  0
    8.1890   -0.7180   20.8700 N   0  0  0  0  0  0  0  0  0  0  0  0
    9.2556   -4.7554   25.5514 N   0  0  0  0  0  0  0  0  0  0  0  0
    9.2690    1.4140   20.9380 O   0  0  0  0  0  0  0  0  0  0  0  0
   11.5901    6.0371   23.1451 H   0  0  0  0  0  0  0  0  0  0  0  0
    3.6468    2.0173   21.6825 H   0  0  0  0  0  0  0  0  0  0  0  0
   13.4357    4.6069   22.3063 H   0  0  0  0  0  0  0  0  0  0  0  0
    9.4770    5.0009   23.9314 H   0  0  0  0  0  0  0  0  0  0  0  0
    3.0153    2.6527   19.3907 H   0  0  0  0  0  0  0  0  0  0  0  0
    5.7015    0.6980   22.1071 H   0  0  0  0  0  0  0  0  0  0  0  0
   13.1740    2.1486   22.2511 H   0  0  0  0  0  0  0  0  0  0  0  0
    9.2056    2.5438   23.8803 H   0  0  0  0  0  0  0  0  0  0  0  0
    8.9214   -0.1986   25.4206 H   0  0  0  0  0  0  0  0  0  0  0  0
   10.0622   -2.2326   21.8251 H   0  0  0  0  0  0  0  0  0  0  0  0
    4.4064    1.9744   17.4453 H   0  0  0  0  0  0  0  0  0  0  0  0
    8.6882   -2.3542   26.5803 H   0  0  0  0  0  0  0  0  0  0  0  0
    9.9258   -4.3896   22.9914 H   0  0  0  0  0  0  0  0  0  0  0  0
    8.1775   -6.1919   26.6235 H   0  0  0  0  0  0  0  0  0  0  0  0
    7.6740   -4.4889   26.8933 H   0  0  0  0  0  0  0  0  0  0  0  0
    7.2508   -5.3180   25.3570 H   0  0  0  0  0  0  0  0  0  0  0  0
   10.1974   -6.4996   26.2196 H   0  0  0  0  0  0  0  0  0  0  0  0
   10.7877   -5.8568   24.6496 H   0  0  0  0  0  0  0  0  0  0  0  0
   11.2305   -5.0307   26.1820 H   0  0  0  0  0  0  0  0  0  0  0  0
   11.6011    0.2707   22.2030 H   0  0  0  0  0  0  0  0  0  0  0  0
   11.4624    0.2744   23.9446 H   0  0  0  0  0  0  0  0  0  0  0  0
    8.9284    0.9668   23.5149 H   0  0  0  0  0  0  0  0  0  0  0  0
    6.8044    0.4388   16.8592 H   0  0  0  0  0  0  0  0  0  0  0  0
    8.2434   -1.5614   21.0991 H   0  0  0  0  0  0  0  0  0  0  0  0
  1  3  1  0  0  0  0
  1  4  2  0  0  0  0
  2  5  1  0  0  0  0
  2  6  2  0  0  0  0
  3  7  2  0  0  0  0
  4  8  1  0  0  0  0
  5 11  2  0  0  0  0
  6 14  1  0  0  0  0
  7 15  1  0  0  0  0
  8 15  2  0  0  0  0
  9 12  2  0  0  0  0
  9 16  1  0  0  0  0
 10 13  1  0  0  0  0
 10 16  2  0  0  0  0
 11 17  1  0  0  0  0
 12 18  1  0  0  0  0
 13 18  2  0  0  0  0
 14 17  2  0  0  0  0
 14 19  1  0  0  0  0
 15 23  1  0  0  0  0
 16 24  1  0  0  0  0
 17 26  1  0  0  0  0
 18 28  1  0  0  0  0
 19 25  2  0  0  0  0
 19 27  1  0  0  0  0
 20 24  1  0  0  0  0
 20 27  1  0  0  0  0
 20 29  2  0  0  0  0
 21 28  1  0  0  0  0
 22 28  1  0  0  0  0
 23 24  1  1  0  0  0
 25 26  1  0  0  0  0
  1 30  1  0  0  0  0
  2 31  1  0  0  0  0
  3 32  1  0  0  0  0
  4 33  1  0  0  0  0
  5 34  1  0  0  0  0
  6 35  1  0  0  0  0
  7 36  1  0  0  0  0
  8 37  1  0  0  0  0
  9 38  1  0  0  0  0
 10 39  1  0  0  0  0
 11 40  1  0  0  0  0
 12 41  1  0  0  0  0
 13 42  1  0  0  0  0
 21 43  1  0  0  0  0
 21 44  1  0  0  0  0
 21 45  1  0  0  0  0
 22 46  1  0  0  0  0
 22 47  1  0  0  0  0
 22 48  1  0  0  0  0
 23 49  1  0  0  0  0
 23 50  1  0  0  0  0
 24 51  1  0  0  0  0
 26 52  1  0  0  0  0
 27 53  1  0  0  0  0
M  END
> <clash_score>
0

> <docking_score>
-10.430013656616211

> <overlap_score>
0.9285068511962891

$$$$
BENZO_223_2
  -OEChem-08232013453D

 58 62  0     1  0  0  0  0  0999 V2000
    3.9160    2.0630   19.5520 C   0  0  0  0  0  0  0  0  0  0  0  0
    4.2750    1.7050   20.8490 C   0  0  0  0  0  0  0  0  0  0  0  0
    9.0720   -1.1280   24.8640 C   0  0  0  0  0  0  0  0  0  0  0  0
    9.7200   -2.2600   22.8630 C   0  0  0  0  0  0  0  0  0  0  0  0
    4.6890    1.6810   18.4640 C   0  0  0  0  0  0  0  0  0  0  0  0
    5.4210    0.9600   21.0930 C   0  0  0  0  0  0  0  0  0  0  0  0
    8.9960   -2.3380   25.5320 C   0  0  0  0  0  0  0  0  0  0  0  0
    9.6730   -3.4710   23.5300 C   0  0  0  0  0  0  0  0  0  0  0  0
   10.8679    2.8459   22.9847 C   0  0  0  0  0  0  0  0  0  0  0  0
    9.0373    3.9324   23.5357 C   0  0  0  0  0  0  0  0  0  0  0  0
    7.6390   -0.2680   18.5410 C   0  0  0  0  0  0  0  0  0  0  0  0
    9.3350   -1.0880   23.5010 C   0  0  0  0  0  0  0  0  0  0  0  0
    9.5496    2.6614   23.4427 C   0  0  0  0  0  0  0  0  0  0  0  0
    5.8300    0.9190   18.6970 C   0  0  0  0  0  0  0  0  0  0  0  0
    6.1790    0.5730   19.9990 C   0  0  0  0  0  0  0  0  0  0  0  0
    9.3070   -3.5340   24.8780 C   0  0  0  0  0  0  0  0  0  0  0  0
    9.0420    0.3700   21.5280 C   0  0  0  0  0  0  0  0  0  0  0  0
   10.0772   -5.0257   26.7191 C   0  0  0  0  0  0  0  0  0  0  0  0
    8.0927   -5.6196   25.4069 C   0  0  0  0  0  0  0  0  0  0  0  0
    9.1935   -4.9431   27.9590 C   0  0  0  0  0  0  0  0  0  0  0  0
    7.2758   -5.5292   26.6966 C   0  0  0  0  0  0  0  0  0  0  0  0
    9.9774    6.2085   23.0728 C   0  0  0  0  0  0  0  0  0  0  0  0
    8.8518    1.3594   23.7587 C   0  0  0  0  0  0  0  0  0  0  0  0
    9.4560    0.1560   22.8130 C   0  0  2  0  0  0  0  0  0  0  0  0
   11.1740    4.1328   22.7995 N   0  0  0  0  0  0  0  0  0  0  0  0
    6.7580    0.3810   17.8350 N   0  0  0  0  0  0  0  0  0  0  0  0
   10.0408    4.7684   23.1427 N   0  0  0  0  0  0  0  0  0  0  0  0
    7.3170   -0.1610   19.8550 N   0  0  0  0  0  0  0  0  0  0  0  0
    9.2564   -4.7368   25.5411 N   0  0  0  0  0  0  0  0  0  0  0  0
    8.1890   -0.7180   20.8700 N   0  0  0  0  0  0  0  0  0  0  0  0
    9.2690    1.4140   20.9380 O   0  0  0  0  0  0  0  0  0  0  0  0
    8.0884   -5.8462   27.8322 O   0  0  0  0  0  0  0  0  0  0  0  0
    3.0134    2.6521   19.3911 H   0  0  0  0  0  0  0  0  0  0  0  0
    3.6460    2.0127   21.6812 H   0  0  0  0  0  0  0  0  0  0  0  0
    8.9214   -0.1986   25.4206 H   0  0  0  0  0  0  0  0  0  0  0  0
   10.0622   -2.2326   21.8251 H   0  0  0  0  0  0  0  0  0  0  0  0
    4.4037    1.9731   17.4543 H   0  0  0  0  0  0  0  0  0  0  0  0
    5.7084    0.6923   22.1132 H   0  0  0  0  0  0  0  0  0  0  0  0
    8.6882   -2.3542   26.5803 H   0  0  0  0  0  0  0  0  0  0  0  0
    9.9258   -4.3896   22.9914 H   0  0  0  0  0  0  0  0  0  0  0  0
   11.6198    2.0979   22.7767 H   0  0  0  0  0  0  0  0  0  0  0  0
    8.0679    4.3039   23.8392 H   0  0  0  0  0  0  0  0  0  0  0  0
    8.4862   -0.8060   18.1787 H   0  0  0  0  0  0  0  0  0  0  0  0
   10.8986   -4.3117   26.8083 H   0  0  0  0  0  0  0  0  0  0  0  0
   10.4916   -6.0336   26.6319 H   0  0  0  0  0  0  0  0  0  0  0  0
    8.4328   -6.6457   25.2617 H   0  0  0  0  0  0  0  0  0  0  0  0
    7.4726   -5.3240   24.5618 H   0  0  0  0  0  0  0  0  0  0  0  0
    9.7638   -5.2402   28.8416 H   0  0  0  0  0  0  0  0  0  0  0  0
    8.8238   -3.9272   28.1248 H   0  0  0  0  0  0  0  0  0  0  0  0
    6.8340   -4.5339   26.8232 H   0  0  0  0  0  0  0  0  0  0  0  0
    6.4551   -6.2523   26.6641 H   0  0  0  0  0  0  0  0  0  0  0  0
   10.2956    6.6075   24.0395 H   0  0  0  0  0  0  0  0  0  0  0  0
   10.6374    6.5638   22.2766 H   0  0  0  0  0  0  0  0  0  0  0  0
    8.9513    6.5147   22.8506 H   0  0  0  0  0  0  0  0  0  0  0  0
    8.9481    1.1774   24.8382 H   0  0  0  0  0  0  0  0  0  0  0  0
    7.7730    1.4670   23.5839 H   0  0  0  0  0  0  0  0  0  0  0  0
   10.5990    0.4745   22.8590 H   0  0  0  0  0  0  0  0  0  0  0  0
    8.2487   -1.5564   21.0972 H   0  0  0  0  0  0  0  0  0  0  0  0
  1  2  1  0  0  0  0
  1  5  2  0  0  0  0
  2  6  2  0  0  0  0
  3  7  2  0  0  0  0
  3 12  1  0  0  0  0
  4  8  1  0  0  0  0
  4 12  2  0  0  0  0
  5 14  1  0  0  0  0
  6 15  1  0  0  0  0
  7 16  1  0  0  0  0
  8 16  2  0  0  0  0
  9 13  1  0  0  0  0
  9 25  2  0  0  0  0
 10 13  2  0  0  0  0
 10 27  1  0  0  0  0
 11 26  2  0  0  0  0
 11 28  1  0  0  0  0
 12 24  1  0  0  0  0
 13 23  1  0  0  0  0
 14 15  2  0  0  0  0
 14 26  1  0  0  0  0
 15 28  1  0  0  0  0
 16 29  1  0  0  0  0
 17 24  1  0  0  0  0
 17 30  1  0  0  0  0
 17 31  2  0  0  0  0
 18 20  1  0  0  0  0
 18 29  1  0  0  0  0
 19 21  1  0  0  0  0
 19 29  1  0  0  0  0
 20 32  1  0  0  0  0
 21 32  1  0  0  0  0
 22 27  1  0  0  0  0
 23 24  1  6  0  0  0
 25 27  1  0  0  0  0
 28 30  1  0  0  0  0
  1 33  1  0  0  0  0
  2 34  1  0  0  0  0
  3 35  1  0  0  0  0
  4 36  1  0  0  0  0
  5 37  1  0  0  0  0
  6 38  1  0  0  0  0
  7 39  1  0  0  0  0
  8 40  1  0  0  0  0
  9 41  1  0  0  0  0
 10 42  1  0  0  0  0
 11 43  1  0  0  0  0
 18 44  1  0  0  0  0
 18 45  1  0  0  0  0
 19 46  1  0  0  0  0
 19 47  1  0  0  0  0
 20 48  1  0  0  0  0
 20 49  1  0  0  0  0
 21 50  1  0  0  0  0
 21 51  1  0  0  0  0
 22 52  1  0  0  0  0
 22 53  1  0  0  0  0
 22 54  1  0  0  0  0
 23 55  1  0  0  0  0
 23 56  1  0  0  0  0
 24 57  1  0  0  0  0
 30 58  1  0  0  0  0
M  END
> <clash_score>
0

> <docking_score>
-8.807971954345703

> <overlap_score>
0.8746647238731384

$$$$
BENZO_225_2
  -OEChem-08232013453D

 53 56  0     1  0  0  0  0  0999 V2000
    9.6170    5.4099   22.6808 C   0  0  0  0  0  0  0  0  0  0  0  0
    4.2750    1.7050   20.8490 C   0  0  0  0  0  0  0  0  0  0  0  0
    8.4752    5.0878   23.4143 C   0  0  0  0  0  0  0  0  0  0  0  0
   10.5182    4.4090   22.3177 C   0  0  0  0  0  0  0  0  0  0  0  0
    3.9160    2.0630   19.5520 C   0  0  0  0  0  0  0  0  0  0  0  0
    5.4210    0.9600   21.0930 C   0  0  0  0  0  0  0  0  0  0  0  0
    8.2345    3.7648   23.7849 C   0  0  0  0  0  0  0  0  0  0  0  0
   10.2775    3.0860   22.6883 C   0  0  0  0  0  0  0  0  0  0  0  0
    9.0720   -1.1280   24.8640 C   0  0  0  0  0  0  0  0  0  0  0  0
    9.7200   -2.2600   22.8630 C   0  0  0  0  0  0  0  0  0  0  0  0
    4.6890    1.6810   18.4640 C   0  0  0  0  0  0  0  0  0  0  0  0
    8.9960   -2.3380   25.5320 C   0  0  0  0  0  0  0  0  0  0  0  0
    9.6730   -3.4710   23.5300 C   0  0  0  0  0  0  0  0  0  0  0  0
    6.1790    0.5730   19.9990 C   0  0  0  0  0  0  0  0  0  0  0  0
    9.1357    2.7638   23.4219 C   0  0  0  0  0  0  0  0  0  0  0  0
    9.3350   -1.0880   23.5010 C   0  0  0  0  0  0  0  0  0  0  0  0
    5.8300    0.9190   18.6970 C   0  0  0  0  0  0  0  0  0  0  0  0
    9.3070   -3.5340   24.8780 C   0  0  0  0  0  0  0  0  0  0  0  0
    7.3170   -0.1610   19.8550 C   0  0  0  0  0  0  0  0  0  0  0  0
    9.0420    0.3700   21.5280 C   0  0  0  0  0  0  0  0  0  0  0  0
    8.8766   -4.8075   26.9494 C   0  0  0  0  0  0  0  0  0  0  0  0
    9.5670   -5.9896   24.8578 C   0  0  0  0  0  0  0  0  0  0  0  0
    8.8757    1.3301   23.8233 C   0  0  0  0  0  0  0  0  0  0  0  0
    9.4560    0.1560   22.8130 C   0  0  2  0  0  0  0  0  0  0  0  0
    7.6390   -0.2680   18.5410 N   0  0  0  0  0  0  0  0  0  0  0  0
    6.7580    0.3810   17.8350 N   0  0  0  0  0  0  0  0  0  0  0  0
    8.1890   -0.7180   20.8700 N   0  0  0  0  0  0  0  0  0  0  0  0
    9.2556   -4.7554   25.5514 N   0  0  0  0  0  0  0  0  0  0  0  0
    9.2690    1.4140   20.9380 O   0  0  0  0  0  0  0  0  0  0  0  0
    9.8035    6.4400   22.3912 H   0  0  0  0  0  0  0  0  0  0  0  0
    3.6468    2.0173   21.6825 H   0  0  0  0  0  0  0  0  0  0  0  0
    7.7728    5.8668   23.6961 H   0  0  0  0  0  0  0  0  0  0  0  0
   11.4067    4.6593   21.7457 H   0  0  0  0  0  0  0  0  0  0  0  0
    3.0153    2.6527   19.3907 H   0  0  0  0  0  0  0  0  0  0  0  0
    5.7015    0.6980   22.1071 H   0  0  0  0  0  0  0  0  0  0  0  0
    7.3424    3.5231   24.3565 H   0  0  0  0  0  0  0  0  0  0  0  0
   10.9853    2.3128   22.4011 H   0  0  0  0  0  0  0  0  0  0  0  0
    8.9214   -0.1986   25.4206 H   0  0  0  0  0  0  0  0  0  0  0  0
   10.0622   -2.2326   21.8251 H   0  0  0  0  0  0  0  0  0  0  0  0
    4.4064    1.9744   17.4453 H   0  0  0  0  0  0  0  0  0  0  0  0
    8.6882   -2.3542   26.5803 H   0  0  0  0  0  0  0  0  0  0  0  0
    9.9258   -4.3896   22.9914 H   0  0  0  0  0  0  0  0  0  0  0  0
    8.8956   -5.8512   27.2963 H   0  0  0  0  0  0  0  0  0  0  0  0
    9.5845   -4.2109   27.5435 H   0  0  0  0  0  0  0  0  0  0  0  0
    7.8621   -4.3997   27.0696 H   0  0  0  0  0  0  0  0  0  0  0  0
    9.4707   -6.8361   25.5536 H   0  0  0  0  0  0  0  0  0  0  0  0
    8.8693   -6.1242   24.0181 H   0  0  0  0  0  0  0  0  0  0  0  0
   10.5972   -5.9450   24.4750 H   0  0  0  0  0  0  0  0  0  0  0  0
    9.2390    1.1684   24.8466 H   0  0  0  0  0  0  0  0  0  0  0  0
    7.7875    1.1860   23.8742 H   0  0  0  0  0  0  0  0  0  0  0  0
   10.6103    0.4565   22.8881 H   0  0  0  0  0  0  0  0  0  0  0  0
    6.8044    0.4388   16.8592 H   0  0  0  0  0  0  0  0  0  0  0  0
    8.2434   -1.5614   21.0991 H   0  0  0  0  0  0  0  0  0  0  0  0
  1  3  1  0  0  0  0
  1  4  2  0  0  0  0
  2  5  1  0  0  0  0
  2  6  2  0  0  0  0
  3  7  2  0  0  0  0
  4  8  1  0  0  0  0
  5 11  2  0  0  0  0
  6 14  1  0  0  0  0
  7 15  1  0  0  0  0
  8 15  2  0  0  0  0
  9 12  2  0  0  0  0
  9 16  1  0  0  0  0
 10 13  1  0  0  0  0
 10 16  2  0  0  0  0
 11 17  1  0  0  0  0
 12 18  1  0  0  0  0
 13 18  2  0  0  0  0
 14 17  2  0  0  0  0
 14 19  1  0  0  0  0
 15 23  1  0  0  0  0
 16 24  1  0  0  0  0
 17 26  1  0  0  0  0
 18 28  1  0  0  0  0
 19 25  2  0  0  0  0
 19 27  1  0  0  0  0
 20 24  1  0  0  0  0
 20 27  1  0  0  0  0
 20 29  2  0  0  0  0
 21 28  1  0  0  0  0
 22 28  1  0  0  0  0
 23 24  1  6  0  0  0
 25 26  1  0  0  0  0
  1 30  1  0  0  0  0
  2 31  1  0  0  0  0
  3 32  1  0  0  0  0
  4 33  1  0  0  0  0
  5 34  1  0  0  0  0
  6 35  1  0  0  0  0
  7 36  1  0  0  0  0
  8 37  1  0  0  0  0
  9 38  1  0  0  0  0
 10 39  1  0  0  0  0
 11 40  1  0  0  0  0
 12 41  1  0  0  0  0
 13 42  1  0  0  0  0
 21 43  1  0  0  0  0
 21 44  1  0  0  0  0
 21 45  1  0  0  0  0
 22 46  1  0  0  0  0
 22 47  1  0  0  0  0
 22 48  1  0  0  0  0
 23 49  1  0  0  0  0
 23 50  1  0  0  0  0
 24 51  1  0  0  0  0
 26 52  1  0  0  0  0
 27 53  1  0  0  0  0
M  END
> <clash_score>
0

> <docking_score>
-6.644452095031738

> <overlap_score>
0.8459813594818115

$$$$
BENZO_224_2
  -OEChem-08232013453D

 50 53  0     1  0  0  0  0  0999 V2000
    4.2750    1.7050   20.8490 C   0  0  0  0  0  0  0  0  0  0  0  0
    3.9160    2.0630   19.5520 C   0  0  0  0  0  0  0  0  0  0  0  0
    5.4210    0.9600   21.0930 C   0  0  0  0  0  0  0  0  0  0  0  0
    9.0720   -1.1280   24.8640 C   0  0  0  0  0  0  0  0  0  0  0  0
    9.7200   -2.2600   22.8630 C   0  0  0  0  0  0  0  0  0  0  0  0
    4.6890    1.6810   18.4640 C   0  0  0  0  0  0  0  0  0  0  0  0
    8.9960   -2.3380   25.5320 C   0  0  0  0  0  0  0  0  0  0  0  0
    9.6730   -3.4710   23.5300 C   0  0  0  0  0  0  0  0  0  0  0  0
   10.3314    3.2065   22.7858 C   0  0  0  0  0  0  0  0  0  0  0  0
   10.3108    4.5599   22.5298 C   0  0  0  0  0  0  0  0  0  0  0  0
    8.2468    3.7959   23.6280 C   0  0  0  0  0  0  0  0  0  0  0  0
    6.1790    0.5730   19.9990 C   0  0  0  0  0  0  0  0  0  0  0  0
    9.3350   -1.0880   23.5010 C   0  0  0  0  0  0  0  0  0  0  0  0
    9.1357    2.7638   23.4219 C   0  0  0  0  0  0  0  0  0  0  0  0
    5.8300    0.9190   18.6970 C   0  0  0  0  0  0  0  0  0  0  0  0
    9.3070   -3.5340   24.8780 C   0  0  0  0  0  0  0  0  0  0  0  0
    7.3170   -0.1610   19.8550 C   0  0  0  0  0  0  0  0  0  0  0  0
    9.0420    0.3700   21.5280 C   0  0  0  0  0  0  0  0  0  0  0  0
    8.8766   -4.8075   26.9494 C   0  0  0  0  0  0  0  0  0  0  0  0
    9.5670   -5.9896   24.8578 C   0  0  0  0  0  0  0  0  0  0  0  0
    8.8757    1.3301   23.8233 C   0  0  0  0  0  0  0  0  0  0  0  0
    9.4560    0.1560   22.8130 C   0  0  2  0  0  0  0  0  0  0  0  0
    7.6390   -0.2680   18.5410 N   0  0  0  0  0  0  0  0  0  0  0  0
    6.7580    0.3810   17.8350 N   0  0  0  0  0  0  0  0  0  0  0  0
    8.1890   -0.7180   20.8700 N   0  0  0  0  0  0  0  0  0  0  0  0
    9.2556   -4.7554   25.5514 N   0  0  0  0  0  0  0  0  0  0  0  0
    9.2690    1.4140   20.9380 O   0  0  0  0  0  0  0  0  0  0  0  0
    8.8543    5.2911   23.0556 S   0  0  0  0  0  0  0  0  0  0  0  0
    3.6468    2.0173   21.6825 H   0  0  0  0  0  0  0  0  0  0  0  0
    3.0153    2.6527   19.3907 H   0  0  0  0  0  0  0  0  0  0  0  0
    5.7015    0.6980   22.1071 H   0  0  0  0  0  0  0  0  0  0  0  0
    8.9214   -0.1986   25.4206 H   0  0  0  0  0  0  0  0  0  0  0  0
   10.0622   -2.2326   21.8251 H   0  0  0  0  0  0  0  0  0  0  0  0
    4.4064    1.9744   17.4453 H   0  0  0  0  0  0  0  0  0  0  0  0
    8.6882   -2.3542   26.5803 H   0  0  0  0  0  0  0  0  0  0  0  0
    9.9258   -4.3896   22.9914 H   0  0  0  0  0  0  0  0  0  0  0  0
   11.1669    2.5681   22.5277 H   0  0  0  0  0  0  0  0  0  0  0  0
   11.0815    5.1544   22.0599 H   0  0  0  0  0  0  0  0  0  0  0  0
    7.2694    3.7480   24.0879 H   0  0  0  0  0  0  0  0  0  0  0  0
    8.8956   -5.8512   27.2963 H   0  0  0  0  0  0  0  0  0  0  0  0
    9.5845   -4.2109   27.5435 H   0  0  0  0  0  0  0  0  0  0  0  0
    7.8621   -4.3997   27.0696 H   0  0  0  0  0  0  0  0  0  0  0  0
    9.4707   -6.8361   25.5536 H   0  0  0  0  0  0  0  0  0  0  0  0
    8.8693   -6.1242   24.0181 H   0  0  0  0  0  0  0  0  0  0  0  0
   10.5972   -5.9450   24.4750 H   0  0  0  0  0  0  0  0  0  0  0  0
    9.2390    1.1684   24.8466 H   0  0  0  0  0  0  0  0  0  0  0  0
    7.7875    1.1860   23.8742 H   0  0  0  0  0  0  0  0  0  0  0  0
   10.6103    0.4565   22.8881 H   0  0  0  0  0  0  0  0  0  0  0  0
    6.8044    0.4388   16.8592 H   0  0  0  0  0  0  0  0  0  0  0  0
    8.2434   -1.5614   21.0991 H   0  0  0  0  0  0  0  0  0  0  0  0
  1  2  1  0  0  0  0
  1  3  2  0  0  0  0
  2  6  2  0  0  0  0
  3 12  1  0  0  0  0
  4  7  2  0  0  0  0
  4 13  1  0  0  0  0
  5  8  1  0  0  0  0
  5 13  2  0  0  0  0
  6 15  1  0  0  0  0
  7 16  1  0  0  0  0
  8 16  2  0  0  0  0
  9 10  2  0  0  0  0
  9 14  1  0  0  0  0
 10 28  1  0  0  0  0
 11 14  2  0  0  0  0
 11 28  1  0  0  0  0
 12 15  2  0  0  0  0
 12 17  1  0  0  0  0
 13 22  1  0  0  0  0
 14 21  1  0  0  0  0
 15 24  1  0  0  0  0
 16 26  1  0  0  0  0
 17 23  2  0  0  0  0
 17 25  1  0  0  0  0
 18 22  1  0  0  0  0
 18 25  1  0  0  0  0
 18 27  2  0  0  0  0
 19 26  1  0  0  0  0
 20 26  1  0  0  0  0
 21 22  1  6  0  0  0
 23 24  1  0  0  0  0
  1 29  1  0  0  0  0
  2 30  1  0  0  0  0
  3 31  1  0  0  0  0
  4 32  1  0  0  0  0
  5 33  1  0  0  0  0
  6 34  1  0  0  0  0
  7 35  1  0  0  0  0
  8 36  1  0  0  0  0
  9 37  1  0  0  0  0
 10 38  1  0  0  0  0
 11 39  1  0  0  0  0
 19 40  1  0  0  0  0
 19 41  1  0  0  0  0
 19 42  1  0  0  0  0
 20 43  1  0  0  0  0
 20 44  1  0  0  0  0
 20 45  1  0  0  0  0
 21 46  1  0  0  0  0
 21 47  1  0  0  0  0
 22 48  1  0  0  0  0
 24 49  1  0  0  0  0
 25 50  1  0  0  0  0
M  END
> <clash_score>
0

> <docking_score>
-7.0315704345703125

> <overlap_score>
0.8462643027305603

$$$$
BENZO_224_1
  -OEChem-08232013453D

 50 53  0     1  0  0  0  0  0999 V2000
    4.2750    1.7050   20.8490 C   0  0  0  0  0  0  0  0  0  0  0  0
    3.9160    2.0630   19.5520 C   0  0  0  0  0  0  0  0  0  0  0  0
    5.4210    0.9600   21.0930 C   0  0  0  0  0  0  0  0  0  0  0  0
    9.0720   -1.1280   24.8640 C   0  0  0  0  0  0  0  0  0  0  0  0
    9.7200   -2.2600   22.8630 C   0  0  0  0  0  0  0  0  0  0  0  0
    4.6890    1.6810   18.4640 C   0  0  0  0  0  0  0  0  0  0  0  0
    8.9960   -2.3380   25.5320 C   0  0  0  0  0  0  0  0  0  0  0  0
    9.6730   -3.4710   23.5300 C   0  0  0  0  0  0  0  0  0  0  0  0
   11.9789    2.9159   22.1431 C   0  0  0  0  0  0  0  0  0  0  0  0
   11.9531    4.2698   22.3953 C   0  0  0  0  0  0  0  0  0  0  0  0
   10.5610    3.0079   23.9825 C   0  0  0  0  0  0  0  0  0  0  0  0
    6.1790    0.5730   19.9990 C   0  0  0  0  0  0  0  0  0  0  0  0
    9.3350   -1.0880   23.5010 C   0  0  0  0  0  0  0  0  0  0  0  0
   11.1723    2.1848   23.0624 C   0  0  0  0  0  0  0  0  0  0  0  0
    5.8300    0.9190   18.6970 C   0  0  0  0  0  0  0  0  0  0  0  0
    9.3070   -3.5340   24.8780 C   0  0  0  0  0  0  0  0  0  0  0  0
    7.3170   -0.1610   19.8550 C   0  0  0  0  0  0  0  0  0  0  0  0
    9.0420    0.3700   21.5280 C   0  0  0  0  0  0  0  0  0  0  0  0
    8.0148   -5.2164   26.1419 C   0  0  0  0  0  0  0  0  0  0  0  0
   10.4390   -5.5857   25.6570 C   0  0  0  0  0  0  0  0  0  0  0  0
   11.0089    0.6825   23.0307 C   0  0  0  0  0  0  0  0  0  0  0  0
    9.4560    0.1560   22.8130 C   0  0  1  0  0  0  0  0  0  0  0  0
    7.6390   -0.2680   18.5410 N   0  0  0  0  0  0  0  0  0  0  0  0
    6.7580    0.3810   17.8350 N   0  0  0  0  0  0  0  0  0  0  0  0
    8.1890   -0.7180   20.8700 N   0  0  0  0  0  0  0  0  0  0  0  0
    9.2556   -4.7554   25.5514 N   0  0  0  0  0  0  0  0  0  0  0  0
    9.2690    1.4140   20.9380 O   0  0  0  0  0  0  0  0  0  0  0  0
   10.9597    4.6549   23.7359 S   0  0  0  0  0  0  0  0  0  0  0  0
    3.6468    2.0173   21.6825 H   0  0  0  0  0  0  0  0  0  0  0  0
    3.0153    2.6527   19.3907 H   0  0  0  0  0  0  0  0  0  0  0  0
    5.7015    0.6980   22.1071 H   0  0  0  0  0  0  0  0  0  0  0  0
    8.9214   -0.1986   25.4206 H   0  0  0  0  0  0  0  0  0  0  0  0
   10.0622   -2.2326   21.8251 H   0  0  0  0  0  0  0  0  0  0  0  0
    4.4064    1.9744   17.4453 H   0  0  0  0  0  0  0  0  0  0  0  0
    8.6882   -2.3542   26.5803 H   0  0  0  0  0  0  0  0  0  0  0  0
    9.9258   -4.3896   22.9914 H   0  0  0  0  0  0  0  0  0  0  0  0
   12.5509    2.4750   21.3365 H   0  0  0  0  0  0  0  0  0  0  0  0
   12.4707    5.0513   21.8570 H   0  0  0  0  0  0  0  0  0  0  0  0
    9.8997    2.7250   24.7898 H   0  0  0  0  0  0  0  0  0  0  0  0
    8.1775   -6.1919   26.6235 H   0  0  0  0  0  0  0  0  0  0  0  0
    7.6740   -4.4889   26.8933 H   0  0  0  0  0  0  0  0  0  0  0  0
    7.2508   -5.3180   25.3570 H   0  0  0  0  0  0  0  0  0  0  0  0
   10.1974   -6.4996   26.2196 H   0  0  0  0  0  0  0  0  0  0  0  0
   10.7877   -5.8568   24.6496 H   0  0  0  0  0  0  0  0  0  0  0  0
   11.2305   -5.0307   26.1820 H   0  0  0  0  0  0  0  0  0  0  0  0
   11.6011    0.2707   22.2030 H   0  0  0  0  0  0  0  0  0  0  0  0
   11.4624    0.2744   23.9446 H   0  0  0  0  0  0  0  0  0  0  0  0
    8.9284    0.9668   23.5149 H   0  0  0  0  0  0  0  0  0  0  0  0
    6.8044    0.4388   16.8592 H   0  0  0  0  0  0  0  0  0  0  0  0
    8.2434   -1.5614   21.0991 H   0  0  0  0  0  0  0  0  0  0  0  0
  1  2  1  0  0  0  0
  1  3  2  0  0  0  0
  2  6  2  0  0  0  0
  3 12  1  0  0  0  0
  4  7  2  0  0  0  0
  4 13  1  0  0  0  0
  5  8  1  0  0  0  0
  5 13  2  0  0  0  0
  6 15  1  0  0  0  0
  7 16  1  0  0  0  0
  8 16  2  0  0  0  0
  9 10  2  0  0  0  0
  9 14  1  0  0  0  0
 10 28  1  0  0  0  0
 11 14  2  0  0  0  0
 11 28  1  0  0  0  0
 12 15  2  0  0  0  0
 12 17  1  0  0  0  0
 13 22  1  0  0  0  0
 14 21  1  0  0  0  0
 15 24  1  0  0  0  0
 16 26  1  0  0  0  0
 17 23  2  0  0  0  0
 17 25  1  0  0  0  0
 18 22  1  0  0  0  0
 18 25  1  0  0  0  0
 18 27  2  0  0  0  0
 19 26  1  0  0  0  0
 20 26  1  0  0  0  0
 21 22  1  1  0  0  0
 23 24  1  0  0  0  0
  1 29  1  0  0  0  0
  2 30  1  0  0  0  0
  3 31  1  0  0  0  0
  4 32  1  0  0  0  0
  5 33  1  0  0  0  0
  6 34  1  0  0  0  0
  7 35  1  0  0  0  0
  8 36  1  0  0  0  0
  9 37  1  0  0  0  0
 10 38  1  0  0  0  0
 11 39  1  0  0  0  0
 19 40  1  0  0  0  0
 19 41  1  0  0  0  0
 19 42  1  0  0  0  0
 20 43  1  0  0  0  0
 20 44  1  0  0  0  0
 20 45  1  0  0  0  0
 21 46  1  0  0  0  0
 21 47  1  0  0  0  0
 22 48  1  0  0  0  0
 24 49  1  0  0  0  0
 25 50  1  0  0  0  0
M  END
> <clash_score>
0

> <docking_score>
-9.471696853637695

> <overlap_score>
0.9158617854118347

$$$$
BENZO_222_2
  -OEChem-08232013453D

 58 62  0     1  0  0  0  0  0999 V2000
    3.9160    2.0630   19.5520 C   0  0  0  0  0  0  0  0  0  0  0  0
    4.2750    1.7050   20.8490 C   0  0  0  0  0  0  0  0  0  0  0  0
   10.3202    4.4289   23.3636 C   0  0  0  0  0  0  0  0  0  0  0  0
   10.1559    3.0442   23.3958 C   0  0  0  0  0  0  0  0  0  0  0  0
    9.0720   -1.1280   24.8640 C   0  0  0  0  0  0  0  0  0  0  0  0
    9.7200   -2.2600   22.8630 C   0  0  0  0  0  0  0  0  0  0  0  0
    4.6890    1.6810   18.4640 C   0  0  0  0  0  0  0  0  0  0  0  0
    5.4210    0.9600   21.0930 C   0  0  0  0  0  0  0  0  0  0  0  0
    8.9960   -2.3380   25.5320 C   0  0  0  0  0  0  0  0  0  0  0  0
    9.6730   -3.4710   23.5300 C   0  0  0  0  0  0  0  0  0  0  0  0
   11.5055    4.9795   22.8761 C   0  0  0  0  0  0  0  0  0  0  0  0
   12.3623    2.7604   22.4532 C   0  0  0  0  0  0  0  0  0  0  0  0
    7.6390   -0.2680   18.5410 C   0  0  0  0  0  0  0  0  0  0  0  0
    9.3350   -1.0880   23.5010 C   0  0  0  0  0  0  0  0  0  0  0  0
   11.1769    2.2099   22.9406 C   0  0  0  0  0  0  0  0  0  0  0  0
    5.8300    0.9190   18.6970 C   0  0  0  0  0  0  0  0  0  0  0  0
    6.1790    0.5730   19.9990 C   0  0  0  0  0  0  0  0  0  0  0  0
    9.3070   -3.5340   24.8780 C   0  0  0  0  0  0  0  0  0  0  0  0
   12.5266    4.1452   22.4210 C   0  0  0  0  0  0  0  0  0  0  0  0
    9.0420    0.3700   21.5280 C   0  0  0  0  0  0  0  0  0  0  0  0
    9.5176   -4.8600   26.9769 C   0  0  0  0  0  0  0  0  0  0  0  0
    8.5166   -5.8725   24.9805 C   0  0  0  0  0  0  0  0  0  0  0  0
    8.1870   -5.0443   27.6986 C   0  0  0  0  0  0  0  0  0  0  0  0
    7.2201   -6.0348   25.7753 C   0  0  0  0  0  0  0  0  0  0  0  0
   10.9988    0.7103   22.9770 C   0  0  0  0  0  0  0  0  0  0  0  0
    9.4560    0.1560   22.8130 C   0  0  2  0  0  0  0  0  0  0  0  0
    6.7580    0.3810   17.8350 N   0  0  0  0  0  0  0  0  0  0  0  0
    7.3170   -0.1610   19.8550 N   0  0  0  0  0  0  0  0  0  0  0  0
    9.2564   -4.7368   25.5411 N   0  0  0  0  0  0  0  0  0  0  0  0
    8.1890   -0.7180   20.8700 N   0  0  0  0  0  0  0  0  0  0  0  0
    9.2690    1.4140   20.9380 O   0  0  0  0  0  0  0  0  0  0  0  0
    7.4995   -6.1856   27.1717 O   0  0  0  0  0  0  0  0  0  0  0  0
   13.9892    4.8250   21.8208 Cl  0  0  0  0  0  0  0  0  0  0  0  0
    3.0134    2.6521   19.3911 H   0  0  0  0  0  0  0  0  0  0  0  0
    3.6460    2.0127   21.6812 H   0  0  0  0  0  0  0  0  0  0  0  0
    9.5249    5.0782   23.7182 H   0  0  0  0  0  0  0  0  0  0  0  0
    9.2290    2.6239   23.7773 H   0  0  0  0  0  0  0  0  0  0  0  0
    8.9214   -0.1986   25.4206 H   0  0  0  0  0  0  0  0  0  0  0  0
   10.0622   -2.2326   21.8251 H   0  0  0  0  0  0  0  0  0  0  0  0
    4.4037    1.9731   17.4543 H   0  0  0  0  0  0  0  0  0  0  0  0
    5.7084    0.6923   22.1132 H   0  0  0  0  0  0  0  0  0  0  0  0
    8.6882   -2.3542   26.5803 H   0  0  0  0  0  0  0  0  0  0  0  0
    9.9258   -4.3896   22.9914 H   0  0  0  0  0  0  0  0  0  0  0  0
   11.6198    6.0605   22.8572 H   0  0  0  0  0  0  0  0  0  0  0  0
   13.1552    2.1057   22.0990 H   0  0  0  0  0  0  0  0  0  0  0  0
    8.4862   -0.8060   18.1787 H   0  0  0  0  0  0  0  0  0  0  0  0
   10.0207   -3.9702   27.3608 H   0  0  0  0  0  0  0  0  0  0  0  0
   10.1536   -5.7313   27.1546 H   0  0  0  0  0  0  0  0  0  0  0  0
    9.1181   -6.7774   25.0751 H   0  0  0  0  0  0  0  0  0  0  0  0
    8.2812   -5.7063   23.9302 H   0  0  0  0  0  0  0  0  0  0  0  0
    8.3631   -5.2257   28.7609 H   0  0  0  0  0  0  0  0  0  0  0  0
    7.5532   -4.1574   27.6103 H   0  0  0  0  0  0  0  0  0  0  0  0
    6.5460   -5.1840   25.6220 H   0  0  0  0  0  0  0  0  0  0  0  0
    6.6948   -6.9355   25.4433 H   0  0  0  0  0  0  0  0  0  0  0  0
   11.6488    0.2736   22.2061 H   0  0  0  0  0  0  0  0  0  0  0  0
   11.3815    0.3162   23.9278 H   0  0  0  0  0  0  0  0  0  0  0  0
    8.9230    0.9815   23.4801 H   0  0  0  0  0  0  0  0  0  0  0  0
    8.2487   -1.5564   21.0972 H   0  0  0  0  0  0  0  0  0  0  0  0
  1  2  1  0  0  0  0
  1  7  2  0  0  0  0
  2  8  2  0  0  0  0
  3  4  2  0  0  0  0
  3 11  1  0  0  0  0
  4 15  1  0  0  0  0
  5  9  2  0  0  0  0
  5 14  1  0  0  0  0
  6 10  1  0  0  0  0
  6 14  2  0  0  0  0
  7 16  1  0  0  0  0
  8 17  1  0  0  0  0
  9 18  1  0  0  0  0
 10 18  2  0  0  0  0
 11 19  2  0  0  0  0
 12 15  2  0  0  0  0
 12 19  1  0  0  0  0
 13 27  2  0  0  0  0
 13 28  1  0  0  0  0
 14 26  1  0  0  0  0
 15 25  1  0  0  0  0
 16 17  2  0  0  0  0
 16 27  1  0  0  0  0
 17 28  1  0  0  0  0
 18 29  1  0  0  0  0
 19 33  1  0  0  0  0
 20 26  1  6  0  0  0
 20 30  1  0  0  0  0
 20 31  2  0  0  0  0
 21 23  1  0  0  0  0
 21 29  1  0  0  0  0
 22 24  1  0  0  0  0
 22 29  1  0  0  0  0
 23 32  1  0  0  0  0
 24 32  1  0  0  0  0
 25 26  1  0  0  0  0
 28 30  1  0  0  0  0
  1 34  1  0  0  0  0
  2 35  1  0  0  0  0
  3 36  1  0  0  0  0
  4 37  1  0  0  0  0
  5 38  1  0  0  0  0
  6 39  1  0  0  0  0
  7 40  1  0  0  0  0
  8 41  1  0  0  0  0
  9 42  1  0  0  0  0
 10 43  1  0  0  0  0
 11 44  1  0  0  0  0
 12 45  1  0  0  0  0
 13 46  1  0  0  0  0
 21 47  1  0  0  0  0
 21 48  1  0  0  0  0
 22 49  1  0  0  0  0
 22 50  1  0  0  0  0
 23 51  1  0  0  0  0
 23 52  1  0  0  0  0
 24 53  1  0  0  0  0
 24 54  1  0  0  0  0
 25 55  1  0  0  0  0
 25 56  1  0  0  0  0
 26 57  1  0  0  0  0
 30 58  1  0  0  0  0
M  END
> <clash_score>
0

> <docking_score>
-10.432662963867188

> <overlap_score>
0.9415144324302673

$$$$
BENZO_223_1
  -OEChem-08232013453D

 58 62  0     1  0  0  0  0  0999 V2000
    3.9160    2.0630   19.5520 C   0  0  0  0  0  0  0  0  0  0  0  0
    4.2750    1.7050   20.8490 C   0  0  0  0  0  0  0  0  0  0  0  0
    9.0720   -1.1280   24.8640 C   0  0  0  0  0  0  0  0  0  0  0  0
    9.7200   -2.2600   22.8630 C   0  0  0  0  0  0  0  0  0  0  0  0
    4.6890    1.6810   18.4640 C   0  0  0  0  0  0  0  0  0  0  0  0
    5.4210    0.9600   21.0930 C   0  0  0  0  0  0  0  0  0  0  0  0
    8.9960   -2.3380   25.5320 C   0  0  0  0  0  0  0  0  0  0  0  0
    9.6730   -3.4710   23.5300 C   0  0  0  0  0  0  0  0  0  0  0  0
   10.2646    3.1985   23.3556 C   0  0  0  0  0  0  0  0  0  0  0  0
   12.2689    2.9150   22.4968 C   0  0  0  0  0  0  0  0  0  0  0  0
    7.6390   -0.2680   18.5410 C   0  0  0  0  0  0  0  0  0  0  0  0
    9.3350   -1.0880   23.5010 C   0  0  0  0  0  0  0  0  0  0  0  0
   11.1769    2.2099   22.9406 C   0  0  0  0  0  0  0  0  0  0  0  0
    5.8300    0.9190   18.6970 C   0  0  0  0  0  0  0  0  0  0  0  0
    6.1790    0.5730   19.9990 C   0  0  0  0  0  0  0  0  0  0  0  0
    9.3070   -3.5340   24.8780 C   0  0  0  0  0  0  0  0  0  0  0  0
    9.0420    0.3700   21.5280 C   0  0  0  0  0  0  0  0  0  0  0  0
   10.0772   -5.0257   26.7191 C   0  0  0  0  0  0  0  0  0  0  0  0
    8.0927   -5.6196   25.4069 C   0  0  0  0  0  0  0  0  0  0  0  0
    9.1935   -4.9431   27.9590 C   0  0  0  0  0  0  0  0  0  0  0  0
    7.2758   -5.5292   26.6966 C   0  0  0  0  0  0  0  0  0  0  0  0
   12.7964    5.3596   22.3418 C   0  0  0  0  0  0  0  0  0  0  0  0
   10.9988    0.7103   22.9770 C   0  0  0  0  0  0  0  0  0  0  0  0
    9.4560    0.1560   22.8130 C   0  0  1  0  0  0  0  0  0  0  0  0
   10.7361    4.4372   23.1902 N   0  0  0  0  0  0  0  0  0  0  0  0
    6.7580    0.3810   17.8350 N   0  0  0  0  0  0  0  0  0  0  0  0
   11.9566    4.2317   22.6666 N   0  0  0  0  0  0  0  0  0  0  0  0
    7.3170   -0.1610   19.8550 N   0  0  0  0  0  0  0  0  0  0  0  0
    9.2564   -4.7368   25.5411 N   0  0  0  0  0  0  0  0  0  0  0  0
    8.1890   -0.7180   20.8700 N   0  0  0  0  0  0  0  0  0  0  0  0
    9.2690    1.4140   20.9380 O   0  0  0  0  0  0  0  0  0  0  0  0
    8.0884   -5.8462   27.8322 O   0  0  0  0  0  0  0  0  0  0  0  0
    3.0134    2.6521   19.3911 H   0  0  0  0  0  0  0  0  0  0  0  0
    3.6460    2.0127   21.6812 H   0  0  0  0  0  0  0  0  0  0  0  0
    8.9214   -0.1986   25.4206 H   0  0  0  0  0  0  0  0  0  0  0  0
   10.0622   -2.2326   21.8251 H   0  0  0  0  0  0  0  0  0  0  0  0
    4.4037    1.9731   17.4543 H   0  0  0  0  0  0  0  0  0  0  0  0
    5.7084    0.6923   22.1132 H   0  0  0  0  0  0  0  0  0  0  0  0
    8.6882   -2.3542   26.5803 H   0  0  0  0  0  0  0  0  0  0  0  0
    9.9258   -4.3896   22.9914 H   0  0  0  0  0  0  0  0  0  0  0  0
    9.2758    3.0704   23.7726 H   0  0  0  0  0  0  0  0  0  0  0  0
   13.2185    2.5997   22.0860 H   0  0  0  0  0  0  0  0  0  0  0  0
    8.4862   -0.8060   18.1787 H   0  0  0  0  0  0  0  0  0  0  0  0
   10.8986   -4.3117   26.8083 H   0  0  0  0  0  0  0  0  0  0  0  0
   10.4916   -6.0336   26.6319 H   0  0  0  0  0  0  0  0  0  0  0  0
    8.4328   -6.6457   25.2617 H   0  0  0  0  0  0  0  0  0  0  0  0
    7.4726   -5.3240   24.5618 H   0  0  0  0  0  0  0  0  0  0  0  0
    9.7638   -5.2402   28.8416 H   0  0  0  0  0  0  0  0  0  0  0  0
    8.8238   -3.9272   28.1248 H   0  0  0  0  0  0  0  0  0  0  0  0
    6.8340   -4.5339   26.8232 H   0  0  0  0  0  0  0  0  0  0  0  0
    6.4551   -6.2523   26.6641 H   0  0  0  0  0  0  0  0  0  0  0  0
   12.5864    5.6503   21.3091 H   0  0  0  0  0  0  0  0  0  0  0  0
   12.5763    6.1858   23.0237 H   0  0  0  0  0  0  0  0  0  0  0  0
   13.8458    5.0729   22.4536 H   0  0  0  0  0  0  0  0  0  0  0  0
   11.6488    0.2736   22.2061 H   0  0  0  0  0  0  0  0  0  0  0  0
   11.3815    0.3162   23.9278 H   0  0  0  0  0  0  0  0  0  0  0  0
    8.9230    0.9815   23.4801 H   0  0  0  0  0  0  0  0  0  0  0  0
    8.2487   -1.5564   21.0972 H   0  0  0  0  0  0  0  0  0  0  0  0
  1  2  1  0  0  0  0
  1  5  2  0  0  0  0
  2  6  2  0  0  0  0
  3  7  2  0  0  0  0
  3 12  1  0  0  0  0
  4  8  1  0  0  0  0
  4 12  2  0  0  0  0
  5 14  1  0  0  0  0
  6 15  1  0  0  0  0
  7 16  1  0  0  0  0
  8 16  2  0  0  0  0
  9 13  1  0  0  0  0
  9 25  2  0  0  0  0
 10 13  2  0  0  0  0
 10 27  1  0  0  0  0
 11 26  2  0  0  0  0
 11 28  1  0  0  0  0
 12 24  1  0  0  0  0
 13 23  1  0  0  0  0
 14 15  2  0  0  0  0
 14 26  1  0  0  0  0
 15 28  1  0  0  0  0
 16 29  1  0  0  0  0
 17 24  1  0  0  0  0
 17 30  1  0  0  0  0
 17 31  2  0  0  0  0
 18 20  1  0  0  0  0
 18 29  1  0  0  0  0
 19 21  1  0  0  0  0
 19 29  1  0  0  0  0
 20 32  1  0  0  0  0
 21 32  1  0  0  0  0
 22 27  1  0  0  0  0
 23 24  1  1  0  0  0
 25 27  1  0  0  0  0
 28 30  1  0  0  0  0
  1 33  1  0  0  0  0
  2 34  1  0  0  0  0
  3 35  1  0  0  0  0
  4 36  1  0  0  0  0
  5 37  1  0  0  0  0
  6 38  1  0  0  0  0
  7 39  1  0  0  0  0
  8 40  1  0  0  0  0
  9 41  1  0  0  0  0
 10 42  1  0  0  0  0
 11 43  1  0  0  0  0
 18 44  1  0  0  0  0
 18 45  1  0  0  0  0
 19 46  1  0  0  0  0
 19 47  1  0  0  0  0
 20 48  1  0  0  0  0
 20 49  1  0  0  0  0
 21 50  1  0  0  0  0
 21 51  1  0  0  0  0
 22 52  1  0  0  0  0
 22 53  1  0  0  0  0
 22 54  1  0  0  0  0
 23 55  1  0  0  0  0
 23 56  1  0  0  0  0
 24 57  1  0  0  0  0
 30 58  1  0  0  0  0
M  END
> <clash_score>
0

> <docking_score>
-10.108490943908691

> <overlap_score>
0.933799147605896

$$$$
BENZO_227_2
  -OEChem-08232013453D

 53 56  0     1  0  0  0  0  0999 V2000
    4.2750    1.7050   20.8490 C   0  0  0  0  0  0  0  0  0  0  0  0
    3.9160    2.0630   19.5520 C   0  0  0  0  0  0  0  0  0  0  0  0
    5.4210    0.9600   21.0930 C   0  0  0  0  0  0  0  0  0  0  0  0
    9.0720   -1.1280   24.8640 C   0  0  0  0  0  0  0  0  0  0  0  0
    9.7200   -2.2600   22.8630 C   0  0  0  0  0  0  0  0  0  0  0  0
    4.6890    1.6810   18.4640 C   0  0  0  0  0  0  0  0  0  0  0  0
    8.9960   -2.3380   25.5320 C   0  0  0  0  0  0  0  0  0  0  0  0
    9.6730   -3.4710   23.5300 C   0  0  0  0  0  0  0  0  0  0  0  0
   10.2230    3.2711   22.6855 C   0  0  0  0  0  0  0  0  0  0  0  0
    8.3607    3.8650   23.6924 C   0  0  0  0  0  0  0  0  0  0  0  0
    6.1790    0.5730   19.9990 C   0  0  0  0  0  0  0  0  0  0  0  0
    9.3350   -1.0880   23.5010 C   0  0  0  0  0  0  0  0  0  0  0  0
    9.1357    2.7638   23.4218 C   0  0  0  0  0  0  0  0  0  0  0  0
    5.8300    0.9190   18.6970 C   0  0  0  0  0  0  0  0  0  0  0  0
    9.3070   -3.5340   24.8780 C   0  0  0  0  0  0  0  0  0  0  0  0
    7.3170   -0.1610   19.8550 C   0  0  0  0  0  0  0  0  0  0  0  0
    9.0420    0.3700   21.5280 C   0  0  0  0  0  0  0  0  0  0  0  0
    8.5727    6.3003   23.1419 C   0  0  0  0  0  0  0  0  0  0  0  0
    8.8766   -4.8075   26.9494 C   0  0  0  0  0  0  0  0  0  0  0  0
    9.5670   -5.9896   24.8578 C   0  0  0  0  0  0  0  0  0  0  0  0
    8.8757    1.3301   23.8233 C   0  0  0  0  0  0  0  0  0  0  0  0
    9.4560    0.1560   22.8130 C   0  0  2  0  0  0  0  0  0  0  0  0
   10.1488    4.5917   22.4999 N   0  0  0  0  0  0  0  0  0  0  0  0
    7.6390   -0.2680   18.5410 N   0  0  0  0  0  0  0  0  0  0  0  0
    6.7580    0.3810   17.8350 N   0  0  0  0  0  0  0  0  0  0  0  0
    9.0056    4.9236   23.1235 N   0  0  0  0  0  0  0  0  0  0  0  0
    8.1890   -0.7180   20.8700 N   0  0  0  0  0  0  0  0  0  0  0  0
    9.2556   -4.7554   25.5514 N   0  0  0  0  0  0  0  0  0  0  0  0
    9.2690    1.4140   20.9380 O   0  0  0  0  0  0  0  0  0  0  0  0
    3.6468    2.0173   21.6825 H   0  0  0  0  0  0  0  0  0  0  0  0
    3.0153    2.6527   19.3907 H   0  0  0  0  0  0  0  0  0  0  0  0
    5.7015    0.6980   22.1071 H   0  0  0  0  0  0  0  0  0  0  0  0
    8.9214   -0.1986   25.4206 H   0  0  0  0  0  0  0  0  0  0  0  0
   10.0622   -2.2326   21.8251 H   0  0  0  0  0  0  0  0  0  0  0  0
    4.4064    1.9744   17.4453 H   0  0  0  0  0  0  0  0  0  0  0  0
    8.6882   -2.3542   26.5803 H   0  0  0  0  0  0  0  0  0  0  0  0
    9.9258   -4.3896   22.9914 H   0  0  0  0  0  0  0  0  0  0  0  0
   11.0671    2.7354   22.2746 H   0  0  0  0  0  0  0  0  0  0  0  0
    7.4277    3.9824   24.2269 H   0  0  0  0  0  0  0  0  0  0  0  0
    8.9983    6.7758   24.0295 H   0  0  0  0  0  0  0  0  0  0  0  0
    8.9199    6.8033   22.2351 H   0  0  0  0  0  0  0  0  0  0  0  0
    7.4802    6.3352   23.1748 H   0  0  0  0  0  0  0  0  0  0  0  0
    8.8956   -5.8512   27.2963 H   0  0  0  0  0  0  0  0  0  0  0  0
    9.5845   -4.2109   27.5435 H   0  0  0  0  0  0  0  0  0  0  0  0
    7.8621   -4.3997   27.0696 H   0  0  0  0  0  0  0  0  0  0  0  0
    9.4707   -6.8361   25.5536 H   0  0  0  0  0  0  0  0  0  0  0  0
    8.8693   -6.1242   24.0181 H   0  0  0  0  0  0  0  0  0  0  0  0
   10.5972   -5.9450   24.4750 H   0  0  0  0  0  0  0  0  0  0  0  0
    9.2390    1.1684   24.8466 H   0  0  0  0  0  0  0  0  0  0  0  0
    7.7875    1.1860   23.8742 H   0  0  0  0  0  0  0  0  0  0  0  0
   10.6103    0.4565   22.8881 H   0  0  0  0  0  0  0  0  0  0  0  0
    6.8044    0.4388   16.8592 H   0  0  0  0  0  0  0  0  0  0  0  0
    8.2434   -1.5614   21.0991 H   0  0  0  0  0  0  0  0  0  0  0  0
  1  2  1  0  0  0  0
  1  3  2  0  0  0  0
  2  6  2  0  0  0  0
  3 11  1  0  0  0  0
  4  7  2  0  0  0  0
  4 12  1  0  0  0  0
  5  8  1  0  0  0  0
  5 12  2  0  0  0  0
  6 14  1  0  0  0  0
  7 15  1  0  0  0  0
  8 15  2  0  0  0  0
  9 13  1  0  0  0  0
  9 23  2  0  0  0  0
 10 13  2  0  0  0  0
 10 26  1  0  0  0  0
 11 14  2  0  0  0  0
 11 16  1  0  0  0  0
 12 22  1  0  0  0  0
 13 21  1  0  0  0  0
 14 25  1  0  0  0  0
 15 28  1  0  0  0  0
 16 24  2  0  0  0  0
 16 27  1  0  0  0  0
 17 22  1  0  0  0  0
 17 27  1  0  0  0  0
 17 29  2  0  0  0  0
 18 26  1  0  0  0  0
 19 28  1  0  0  0  0
 20 28  1  0  0  0  0
 21 22  1  6  0  0  0
 23 26  1  0  0  0  0
 24 25  1  0  0  0  0
  1 30  1  0  0  0  0
  2 31  1  0  0  0  0
  3 32  1  0  0  0  0
  4 33  1  0  0  0  0
  5 34  1  0  0  0  0
  6 35  1  0  0  0  0
  7 36  1  0  0  0  0
  8 37  1  0  0  0  0
  9 38  1  0  0  0  0
 10 39  1  0  0  0  0
 18 40  1  0  0  0  0
 18 41  1  0  0  0  0
 18 42  1  0  0  0  0
 19 43  1  0  0  0  0
 19 44  1  0  0  0  0
 19 45  1  0  0  0  0
 20 46  1  0  0  0  0
 20 47  1  0  0  0  0
 20 48  1  0  0  0  0
 21 49  1  0  0  0  0
 21 50  1  0  0  0  0
 22 51  1  0  0  0  0
 25 52  1  0  0  0  0
 27 53  1  0  0  0  0
M  END
> <clash_score>
0

> <docking_score>
-6.372869491577148

> <overlap_score>
0.8417669534683228

$$$$
BENZO_227_1
  -OEChem-08232013453D

 53 56  0     1  0  0  0  0  0999 V2000
    4.2750    1.7050   20.8490 C   0  0  0  0  0  0  0  0  0  0  0  0
    3.9160    2.0630   19.5520 C   0  0  0  0  0  0  0  0  0  0  0  0
    5.4210    0.9600   21.0930 C   0  0  0  0  0  0  0  0  0  0  0  0
    9.0720   -1.1280   24.8640 C   0  0  0  0  0  0  0  0  0  0  0  0
    9.7200   -2.2600   22.8630 C   0  0  0  0  0  0  0  0  0  0  0  0
    4.6890    1.6810   18.4640 C   0  0  0  0  0  0  0  0  0  0  0  0
    8.9960   -2.3380   25.5320 C   0  0  0  0  0  0  0  0  0  0  0  0
    9.6730   -3.4710   23.5300 C   0  0  0  0  0  0  0  0  0  0  0  0
   10.2428    3.1457   23.5034 C   0  0  0  0  0  0  0  0  0  0  0  0
   12.2645    2.9188   22.6690 C   0  0  0  0  0  0  0  0  0  0  0  0
    6.1790    0.5730   19.9990 C   0  0  0  0  0  0  0  0  0  0  0  0
    9.3350   -1.0880   23.5010 C   0  0  0  0  0  0  0  0  0  0  0  0
   11.1723    2.1848   23.0624 C   0  0  0  0  0  0  0  0  0  0  0  0
    5.8300    0.9190   18.6970 C   0  0  0  0  0  0  0  0  0  0  0  0
    9.3070   -3.5340   24.8780 C   0  0  0  0  0  0  0  0  0  0  0  0
    7.3170   -0.1610   19.8550 C   0  0  0  0  0  0  0  0  0  0  0  0
    9.0420    0.3700   21.5280 C   0  0  0  0  0  0  0  0  0  0  0  0
   12.7694    5.3728   22.6294 C   0  0  0  0  0  0  0  0  0  0  0  0
    8.0148   -5.2164   26.1419 C   0  0  0  0  0  0  0  0  0  0  0  0
   10.4390   -5.5857   25.6570 C   0  0  0  0  0  0  0  0  0  0  0  0
   11.0089    0.6825   23.0307 C   0  0  0  0  0  0  0  0  0  0  0  0
    9.4560    0.1560   22.8130 C   0  0  1  0  0  0  0  0  0  0  0  0
   10.7043    4.3948   23.4002 N   0  0  0  0  0  0  0  0  0  0  0  0
    7.6390   -0.2680   18.5410 N   0  0  0  0  0  0  0  0  0  0  0  0
    6.7580    0.3810   17.8350 N   0  0  0  0  0  0  0  0  0  0  0  0
   11.9358    4.2239   22.8900 N   0  0  0  0  0  0  0  0  0  0  0  0
    8.1890   -0.7180   20.8700 N   0  0  0  0  0  0  0  0  0  0  0  0
    9.2556   -4.7554   25.5514 N   0  0  0  0  0  0  0  0  0  0  0  0
    9.2690    1.4140   20.9380 O   0  0  0  0  0  0  0  0  0  0  0  0
    3.6468    2.0173   21.6825 H   0  0  0  0  0  0  0  0  0  0  0  0
    3.0153    2.6527   19.3907 H   0  0  0  0  0  0  0  0  0  0  0  0
    5.7015    0.6980   22.1071 H   0  0  0  0  0  0  0  0  0  0  0  0
    8.9214   -0.1986   25.4206 H   0  0  0  0  0  0  0  0  0  0  0  0
   10.0622   -2.2326   21.8251 H   0  0  0  0  0  0  0  0  0  0  0  0
    4.4064    1.9744   17.4453 H   0  0  0  0  0  0  0  0  0  0  0  0
    8.6882   -2.3542   26.5803 H   0  0  0  0  0  0  0  0  0  0  0  0
    9.9258   -4.3896   22.9914 H   0  0  0  0  0  0  0  0  0  0  0  0
    9.2482    2.9901   23.8969 H   0  0  0  0  0  0  0  0  0  0  0  0
   13.2243    2.6307   22.2620 H   0  0  0  0  0  0  0  0  0  0  0  0
   12.5744    5.7060   21.6066 H   0  0  0  0  0  0  0  0  0  0  0  0
   12.5290    6.1664   23.3423 H   0  0  0  0  0  0  0  0  0  0  0  0
   13.8196    5.0915   22.7473 H   0  0  0  0  0  0  0  0  0  0  0  0
    8.1775   -6.1919   26.6235 H   0  0  0  0  0  0  0  0  0  0  0  0
    7.6740   -4.4889   26.8933 H   0  0  0  0  0  0  0  0  0  0  0  0
    7.2508   -5.3180   25.3570 H   0  0  0  0  0  0  0  0  0  0  0  0
   10.1974   -6.4996   26.2196 H   0  0  0  0  0  0  0  0  0  0  0  0
   10.7877   -5.8568   24.6496 H   0  0  0  0  0  0  0  0  0  0  0  0
   11.2305   -5.0307   26.1820 H   0  0  0  0  0  0  0  0  0  0  0  0
   11.6011    0.2707   22.2030 H   0  0  0  0  0  0  0  0  0  0  0  0
   11.4624    0.2744   23.9446 H   0  0  0  0  0  0  0  0  0  0  0  0
    8.9284    0.9668   23.5149 H   0  0  0  0  0  0  0  0  0  0  0  0
    6.8044    0.4388   16.8592 H   0  0  0  0  0  0  0  0  0  0  0  0
    8.2434   -1.5614   21.0991 H   0  0  0  0  0  0  0  0  0  0  0  0
  1  2  1  0  0  0  0
  1  3  2  0  0  0  0
  2  6  2  0  0  0  0
  3 11  1  0  0  0  0
  4  7  2  0  0  0  0
  4 12  1  0  0  0  0
  5  8  1  0  0  0  0
  5 12  2  0  0  0  0
  6 14  1  0  0  0  0
  7 15  1  0  0  0  0
  8 15  2  0  0  0  0
  9 13  1  0  0  0  0
  9 23  2  0  0  0  0
 10 13  2  0  0  0  0
 10 26  1  0  0  0  0
 11 14  2  0  0  0  0
 11 16  1  0  0  0  0
 12 22  1  0  0  0  0
 13 21  1  0  0  0  0
 14 25  1  0  0  0  0
 15 28  1  0  0  0  0
 16 24  2  0  0  0  0
 16 27  1  0  0  0  0
 17 22  1  0  0  0  0
 17 27  1  0  0  0  0
 17 29  2  0  0  0  0
 18 26  1  0  0  0  0
 19 28  1  0  0  0  0
 20 28  1  0  0  0  0
 21 22  1  1  0  0  0
 23 26  1  0  0  0  0
 24 25  1  0  0  0  0
  1 30  1  0  0  0  0
  2 31  1  0  0  0  0
  3 32  1  0  0  0  0
  4 33  1  0  0  0  0
  5 34  1  0  0  0  0
  6 35  1  0  0  0  0
  7 36  1  0  0  0  0
  8 37  1  0  0  0  0
  9 38  1  0  0  0  0
 10 39  1  0  0  0  0
 18 40  1  0  0  0  0
 18 41  1  0  0  0  0
 18 42  1  0  0  0  0
 19 43  1  0  0  0  0
 19 44  1  0  0  0  0
 19 45  1  0  0  0  0
 20 46  1  0  0  0  0
 20 47  1  0  0  0  0
 20 48  1  0  0  0  0
 21 49  1  0  0  0  0
 21 50  1  0  0  0  0
 22 51  1  0  0  0  0
 25 52  1  0  0  0  0
 27 53  1  0  0  0  0
M  END
> <clash_score>
0

> <docking_score>
-10.336156845092773

> <overlap_score>
0.9245859980583191

$$$$
BENZO_229_1
  -OEChem-08232013453D

 55 58  0     1  0  0  0  0  0999 V2000
   11.4726    4.9577   23.1210 C   0  0  0  0  0  0  0  0  0  0  0  0
    4.2750    1.7050   20.8490 C   0  0  0  0  0  0  0  0  0  0  0  0
   12.5103    4.1537   22.6496 C   0  0  0  0  0  0  0  0  0  0  0  0
   10.2847    4.3752   23.5633 C   0  0  0  0  0  0  0  0  0  0  0  0
    3.9160    2.0630   19.5520 C   0  0  0  0  0  0  0  0  0  0  0  0
    5.4210    0.9600   21.0930 C   0  0  0  0  0  0  0  0  0  0  0  0
   12.3602    2.7672   22.6203 C   0  0  0  0  0  0  0  0  0  0  0  0
   10.1346    2.9888   23.5339 C   0  0  0  0  0  0  0  0  0  0  0  0
    9.0720   -1.1280   24.8640 C   0  0  0  0  0  0  0  0  0  0  0  0
    9.7200   -2.2600   22.8630 C   0  0  0  0  0  0  0  0  0  0  0  0
    4.6890    1.6810   18.4640 C   0  0  0  0  0  0  0  0  0  0  0  0
    8.9960   -2.3380   25.5320 C   0  0  0  0  0  0  0  0  0  0  0  0
    9.6730   -3.4710   23.5300 C   0  0  0  0  0  0  0  0  0  0  0  0
    6.1790    0.5730   19.9990 C   0  0  0  0  0  0  0  0  0  0  0  0
   11.1723    2.1848   23.0624 C   0  0  0  0  0  0  0  0  0  0  0  0
    9.3350   -1.0880   23.5010 C   0  0  0  0  0  0  0  0  0  0  0  0
    5.8300    0.9190   18.6970 C   0  0  0  0  0  0  0  0  0  0  0  0
    9.3070   -3.5340   24.8780 C   0  0  0  0  0  0  0  0  0  0  0  0
    7.3170   -0.1610   19.8550 C   0  0  0  0  0  0  0  0  0  0  0  0
    8.4227   -5.1089   26.6141 C   0  0  0  0  0  0  0  0  0  0  0  0
    9.0420    0.3700   21.5280 C   0  0  0  0  0  0  0  0  0  0  0  0
    8.4173   -7.5520   25.9532 C   0  0  0  0  0  0  0  0  0  0  0  0
   11.0089    0.6825   23.0307 C   0  0  0  0  0  0  0  0  0  0  0  0
    8.6900   -6.5411   27.0525 C   0  0  0  0  0  0  0  0  0  0  0  0
    9.4560    0.1560   22.8130 C   0  0  1  0  0  0  0  0  0  0  0  0
    7.6390   -0.2680   18.5410 N   0  0  0  0  0  0  0  0  0  0  0  0
    6.7580    0.3810   17.8350 N   0  0  0  0  0  0  0  0  0  0  0  0
    9.2546   -4.7423   25.5437 N   0  0  0  0  0  0  0  0  0  0  0  0
    8.1890   -0.7180   20.8700 N   0  0  0  0  0  0  0  0  0  0  0  0
    7.5768   -4.4085   27.1602 O   0  0  0  0  0  0  0  0  0  0  0  0
    9.2690    1.4140   20.9380 O   0  0  0  0  0  0  0  0  0  0  0  0
   11.5901    6.0371   23.1451 H   0  0  0  0  0  0  0  0  0  0  0  0
    3.6468    2.0173   21.6825 H   0  0  0  0  0  0  0  0  0  0  0  0
   13.4357    4.6069   22.3063 H   0  0  0  0  0  0  0  0  0  0  0  0
    9.4770    5.0009   23.9314 H   0  0  0  0  0  0  0  0  0  0  0  0
    3.0153    2.6527   19.3907 H   0  0  0  0  0  0  0  0  0  0  0  0
    5.7015    0.6980   22.1071 H   0  0  0  0  0  0  0  0  0  0  0  0
   13.1740    2.1486   22.2511 H   0  0  0  0  0  0  0  0  0  0  0  0
    9.2056    2.5438   23.8803 H   0  0  0  0  0  0  0  0  0  0  0  0
    8.9202   -0.1986   25.4206 H   0  0  0  0  0  0  0  0  0  0  0  0
   10.0631   -2.2319   21.8252 H   0  0  0  0  0  0  0  0  0  0  0  0
    4.4064    1.9744   17.4453 H   0  0  0  0  0  0  0  0  0  0  0  0
    8.6898   -2.3534   26.5810 H   0  0  0  0  0  0  0  0  0  0  0  0
    9.9254   -4.3899   22.9914 H   0  0  0  0  0  0  0  0  0  0  0  0
    7.3765   -7.4970   25.6176 H   0  0  0  0  0  0  0  0  0  0  0  0
    8.6071   -8.5677   26.3138 H   0  0  0  0  0  0  0  0  0  0  0  0
    9.0599   -7.3717   25.0851 H   0  0  0  0  0  0  0  0  0  0  0  0
   11.6011    0.2707   22.2030 H   0  0  0  0  0  0  0  0  0  0  0  0
   11.4624    0.2744   23.9446 H   0  0  0  0  0  0  0  0  0  0  0  0
    9.7367   -6.6182   27.3685 H   0  0  0  0  0  0  0  0  0  0  0  0
    8.0564   -6.7633   27.9189 H   0  0  0  0  0  0  0  0  0  0  0  0
    8.9284    0.9668   23.5149 H   0  0  0  0  0  0  0  0  0  0  0  0
    6.8044    0.4388   16.8592 H   0  0  0  0  0  0  0  0  0  0  0  0
    9.9034   -5.4689   25.2194 H   0  0  0  0  0  0  0  0  0  0  0  0
    8.2434   -1.5614   21.0991 H   0  0  0  0  0  0  0  0  0  0  0  0
  1  3  1  0  0  0  0
  1  4  2  0  0  0  0
  2  5  1  0  0  0  0
  2  6  2  0  0  0  0
  3  7  2  0  0  0  0
  4  8  1  0  0  0  0
  5 11  2  0  0  0  0
  6 14  1  0  0  0  0
  7 15  1  0  0  0  0
  8 15  2  0  0  0  0
  9 12  2  0  0  0  0
  9 16  1  0  0  0  0
 10 13  1  0  0  0  0
 10 16  2  0  0  0  0
 11 17  1  0  0  0  0
 12 18  1  0  0  0  0
 13 18  2  0  0  0  0
 14 17  2  0  0  0  0
 14 19  1  0  0  0  0
 15 23  1  0  0  0  0
 16 25  1  0  0  0  0
 17 27  1  0  0  0  0
 18 28  1  0  0  0  0
 19 26  2  0  0  0  0
 19 29  1  0  0  0  0
 20 24  1  0  0  0  0
 20 28  1  0  0  0  0
 20 30  2  0  0  0  0
 21 25  1  0  0  0  0
 21 29  1  0  0  0  0
 21 31  2  0  0  0  0
 22 24  1  0  0  0  0
 23 25  1  1  0  0  0
 26 27  1  0  0  0  0
  1 32  1  0  0  0  0
  2 33  1  0  0  0  0
  3 34  1  0  0  0  0
  4 35  1  0  0  0  0
  5 36  1  0  0  0  0
  6 37  1  0  0  0  0
  7 38  1  0  0  0  0
  8 39  1  0  0  0  0
  9 40  1  0  0  0  0
 10 41  1  0  0  0  0
 11 42  1  0  0  0  0
 12 43  1  0  0  0  0
 13 44  1  0  0  0  0
 22 45  1  0  0  0  0
 22 46  1  0  0  0  0
 22 47  1  0  0  0  0
 23 48  1  0  0  0  0
 23 49  1  0  0  0  0
 24 50  1  0  0  0  0
 24 51  1  0  0  0  0
 25 52  1  0  0  0  0
 27 53  1  0  0  0  0
 28 54  1  0  0  0  0
 29 55  1  0  0  0  0
M  END
> <clash_score>
0.6426261285623064

> <docking_score>
-8.753796577453613

> <overlap_score>
0.932054340839386

$$$$
BENZO_229_2
  -OEChem-08232013453D

 55 58  0     1  0  0  0  0  0999 V2000
    9.6170    5.4099   22.6808 C   0  0  0  0  0  0  0  0  0  0  0  0
    4.2750    1.7050   20.8490 C   0  0  0  0  0  0  0  0  0  0  0  0
    8.4752    5.0878   23.4143 C   0  0  0  0  0  0  0  0  0  0  0  0
   10.5182    4.4090   22.3177 C   0  0  0  0  0  0  0  0  0  0  0  0
    3.9160    2.0630   19.5520 C   0  0  0  0  0  0  0  0  0  0  0  0
    5.4210    0.9600   21.0930 C   0  0  0  0  0  0  0  0  0  0  0  0
    8.2345    3.7648   23.7849 C   0  0  0  0  0  0  0  0  0  0  0  0
   10.2775    3.0860   22.6883 C   0  0  0  0  0  0  0  0  0  0  0  0
    9.0720   -1.1280   24.8640 C   0  0  0  0  0  0  0  0  0  0  0  0
    9.7200   -2.2600   22.8630 C   0  0  0  0  0  0  0  0  0  0  0  0
    4.6890    1.6810   18.4640 C   0  0  0  0  0  0  0  0  0  0  0  0
    8.9960   -2.3380   25.5320 C   0  0  0  0  0  0  0  0  0  0  0  0
    9.6730   -3.4710   23.5300 C   0  0  0  0  0  0  0  0  0  0  0  0
    6.1790    0.5730   19.9990 C   0  0  0  0  0  0  0  0  0  0  0  0
    9.1357    2.7638   23.4219 C   0  0  0  0  0  0  0  0  0  0  0  0
    9.3350   -1.0880   23.5010 C   0  0  0  0  0  0  0  0  0  0  0  0
    5.8300    0.9190   18.6970 C   0  0  0  0  0  0  0  0  0  0  0  0
    9.3070   -3.5340   24.8780 C   0  0  0  0  0  0  0  0  0  0  0  0
    7.3170   -0.1610   19.8550 C   0  0  0  0  0  0  0  0  0  0  0  0
    8.4227   -5.1089   26.6141 C   0  0  0  0  0  0  0  0  0  0  0  0
    9.0420    0.3700   21.5280 C   0  0  0  0  0  0  0  0  0  0  0  0
    8.4173   -7.5520   25.9532 C   0  0  0  0  0  0  0  0  0  0  0  0
    8.8757    1.3301   23.8233 C   0  0  0  0  0  0  0  0  0  0  0  0
    8.6900   -6.5411   27.0525 C   0  0  0  0  0  0  0  0  0  0  0  0
    9.4560    0.1560   22.8130 C   0  0  2  0  0  0  0  0  0  0  0  0
    7.6390   -0.2680   18.5410 N   0  0  0  0  0  0  0  0  0  0  0  0
    6.7580    0.3810   17.8350 N   0  0  0  0  0  0  0  0  0  0  0  0
    9.2546   -4.7423   25.5437 N   0  0  0  0  0  0  0  0  0  0  0  0
    8.1890   -0.7180   20.8700 N   0  0  0  0  0  0  0  0  0  0  0  0
    7.5768   -4.4085   27.1602 O   0  0  0  0  0  0  0  0  0  0  0  0
    9.2690    1.4140   20.9380 O   0  0  0  0  0  0  0  0  0  0  0  0
    9.8035    6.4400   22.3912 H   0  0  0  0  0  0  0  0  0  0  0  0
    3.6468    2.0173   21.6825 H   0  0  0  0  0  0  0  0  0  0  0  0
    7.7728    5.8668   23.6961 H   0  0  0  0  0  0  0  0  0  0  0  0
   11.4067    4.6593   21.7457 H   0  0  0  0  0  0  0  0  0  0  0  0
    3.0153    2.6527   19.3907 H   0  0  0  0  0  0  0  0  0  0  0  0
    5.7015    0.6980   22.1071 H   0  0  0  0  0  0  0  0  0  0  0  0
    7.3424    3.5231   24.3565 H   0  0  0  0  0  0  0  0  0  0  0  0
   10.9853    2.3128   22.4011 H   0  0  0  0  0  0  0  0  0  0  0  0
    8.9202   -0.1986   25.4206 H   0  0  0  0  0  0  0  0  0  0  0  0
   10.0631   -2.2319   21.8252 H   0  0  0  0  0  0  0  0  0  0  0  0
    4.4064    1.9744   17.4453 H   0  0  0  0  0  0  0  0  0  0  0  0
    8.6898   -2.3534   26.5810 H   0  0  0  0  0  0  0  0  0  0  0  0
    9.9254   -4.3899   22.9914 H   0  0  0  0  0  0  0  0  0  0  0  0
    7.3765   -7.4970   25.6176 H   0  0  0  0  0  0  0  0  0  0  0  0
    8.6071   -8.5677   26.3138 H   0  0  0  0  0  0  0  0  0  0  0  0
    9.0599   -7.3717   25.0851 H   0  0  0  0  0  0  0  0  0  0  0  0
    9.2390    1.1684   24.8466 H   0  0  0  0  0  0  0  0  0  0  0  0
    7.7875    1.1860   23.8742 H   0  0  0  0  0  0  0  0  0  0  0  0
    9.7367   -6.6182   27.3685 H   0  0  0  0  0  0  0  0  0  0  0  0
    8.0564   -6.7633   27.9189 H   0  0  0  0  0  0  0  0  0  0  0  0
   10.6103    0.4565   22.8881 H   0  0  0  0  0  0  0  0  0  0  0  0
    6.8044    0.4388   16.8592 H   0  0  0  0  0  0  0  0  0  0  0  0
    9.9034   -5.4689   25.2194 H   0  0  0  0  0  0  0  0  0  0  0  0
    8.2434   -1.5614   21.0991 H   0  0  0  0  0  0  0  0  0  0  0  0
  1  3  1  0  0  0  0
  1  4  2  0  0  0  0
  2  5  1  0  0  0  0
  2  6  2  0  0  0  0
  3  7  2  0  0  0  0
  4  8  1  0  0  0  0
  5 11  2  0  0  0  0
  6 14  1  0  0  0  0
  7 15  1  0  0  0  0
  8 15  2  0  0  0  0
  9 12  2  0  0  0  0
  9 16  1  0  0  0  0
 10 13  1  0  0  0  0
 10 16  2  0  0  0  0
 11 17  1  0  0  0  0
 12 18  1  0  0  0  0
 13 18  2  0  0  0  0
 14 17  2  0  0  0  0
 14 19  1  0  0  0  0
 15 23  1  0  0  0  0
 16 25  1  0  0  0  0
 17 27  1  0  0  0  0
 18 28  1  0  0  0  0
 19 26  2  0  0  0  0
 19 29  1  0  0  0  0
 20 24  1  0  0  0  0
 20 28  1  0  0  0  0
 20 30  2  0  0  0  0
 21 25  1  0  0  0  0
 21 29  1  0  0  0  0
 21 31  2  0  0  0  0
 22 24  1  0  0  0  0
 23 25  1  6  0  0  0
 26 27  1  0  0  0  0
  1 32  1  0  0  0  0
  2 33  1  0  0  0  0
  3 34  1  0  0  0  0
  4 35  1  0  0  0  0
  5 36  1  0  0  0  0
  6 37  1  0  0  0  0
  7 38  1  0  0  0  0
  8 39  1  0  0  0  0
  9 40  1  0  0  0  0
 10 41  1  0  0  0  0
 11 42  1  0  0  0  0
 12 43  1  0  0  0  0
 13 44  1  0  0  0  0
 22 45  1  0  0  0  0
 22 46  1  0  0  0  0
 22 47  1  0  0  0  0
 23 48  1  0  0  0  0
 23 49  1  0  0  0  0
 24 50  1  0  0  0  0
 24 51  1  0  0  0  0
 25 52  1  0  0  0  0
 27 53  1  0  0  0  0
 28 54  1  0  0  0  0
 29 55  1  0  0  0  0
M  END
> <clash_score>
0.6426261285623064

> <docking_score>
-5.2894392013549805

> <overlap_score>
0.8434734344482422

$$$$
BENZO_226_1
  -OEChem-08232013453D

 53 56  0     1  0  0  0  0  0999 V2000
    4.2750    1.7050   20.8490 C   0  0  0  0  0  0  0  0  0  0  0  0
    3.9160    2.0630   19.5520 C   0  0  0  0  0  0  0  0  0  0  0  0
   10.2856    4.3750   23.5656 C   0  0  0  0  0  0  0  0  0  0  0  0
    5.4210    0.9600   21.0930 C   0  0  0  0  0  0  0  0  0  0  0  0
   10.1350    2.9887   23.5349 C   0  0  0  0  0  0  0  0  0  0  0  0
    9.0720   -1.1280   24.8640 C   0  0  0  0  0  0  0  0  0  0  0  0
    9.7200   -2.2600   22.8630 C   0  0  0  0  0  0  0  0  0  0  0  0
    4.6890    1.6810   18.4640 C   0  0  0  0  0  0  0  0  0  0  0  0
    8.9960   -2.3380   25.5320 C   0  0  0  0  0  0  0  0  0  0  0  0
    9.6730   -3.4710   23.5300 C   0  0  0  0  0  0  0  0  0  0  0  0
   11.4735    4.9575   23.1236 C   0  0  0  0  0  0  0  0  0  0  0  0
   12.3603    2.7672   22.6205 C   0  0  0  0  0  0  0  0  0  0  0  0
    6.1790    0.5730   19.9990 C   0  0  0  0  0  0  0  0  0  0  0  0
    9.3350   -1.0880   23.5010 C   0  0  0  0  0  0  0  0  0  0  0  0
   11.1723    2.1848   23.0624 C   0  0  0  0  0  0  0  0  0  0  0  0
    5.8300    0.9190   18.6970 C   0  0  0  0  0  0  0  0  0  0  0  0
    9.3070   -3.5340   24.8780 C   0  0  0  0  0  0  0  0  0  0  0  0
   12.5108    4.1536   22.6511 C   0  0  0  0  0  0  0  0  0  0  0  0
    7.3170   -0.1610   19.8550 C   0  0  0  0  0  0  0  0  0  0  0  0
    9.0420    0.3700   21.5280 C   0  0  0  0  0  0  0  0  0  0  0  0
    8.0148   -5.2164   26.1419 C   0  0  0  0  0  0  0  0  0  0  0  0
   10.4390   -5.5857   25.6570 C   0  0  0  0  0  0  0  0  0  0  0  0
   11.0089    0.6825   23.0307 C   0  0  0  0  0  0  0  0  0  0  0  0
    9.4560    0.1560   22.8130 C   0  0  1  0  0  0  0  0  0  0  0  0
    7.6390   -0.2680   18.5410 N   0  0  0  0  0  0  0  0  0  0  0  0
    6.7580    0.3810   17.8350 N   0  0  0  0  0  0  0  0  0  0  0  0
    8.1890   -0.7180   20.8700 N   0  0  0  0  0  0  0  0  0  0  0  0
    9.2556   -4.7554   25.5514 N   0  0  0  0  0  0  0  0  0  0  0  0
    9.2690    1.4140   20.9380 O   0  0  0  0  0  0  0  0  0  0  0  0
   13.9766    4.8727   22.1070 Cl  0  0  0  0  0  0  0  0  0  0  0  0
    3.6468    2.0173   21.6825 H   0  0  0  0  0  0  0  0  0  0  0  0
    3.0153    2.6527   19.3907 H   0  0  0  0  0  0  0  0  0  0  0  0
    9.4776    5.0007   23.9337 H   0  0  0  0  0  0  0  0  0  0  0  0
    5.7015    0.6980   22.1071 H   0  0  0  0  0  0  0  0  0  0  0  0
    9.2060    2.5434   23.8814 H   0  0  0  0  0  0  0  0  0  0  0  0
    8.9214   -0.1986   25.4206 H   0  0  0  0  0  0  0  0  0  0  0  0
   10.0622   -2.2326   21.8251 H   0  0  0  0  0  0  0  0  0  0  0  0
    4.4064    1.9744   17.4453 H   0  0  0  0  0  0  0  0  0  0  0  0
    8.6882   -2.3542   26.5803 H   0  0  0  0  0  0  0  0  0  0  0  0
    9.9258   -4.3896   22.9914 H   0  0  0  0  0  0  0  0  0  0  0  0
   11.5769    6.0394   23.1535 H   0  0  0  0  0  0  0  0  0  0  0  0
   13.1659    2.1361   22.2525 H   0  0  0  0  0  0  0  0  0  0  0  0
    8.1775   -6.1919   26.6235 H   0  0  0  0  0  0  0  0  0  0  0  0
    7.6740   -4.4889   26.8933 H   0  0  0  0  0  0  0  0  0  0  0  0
    7.2508   -5.3180   25.3570 H   0  0  0  0  0  0  0  0  0  0  0  0
   10.1974   -6.4996   26.2196 H   0  0  0  0  0  0  0  0  0  0  0  0
   10.7877   -5.8568   24.6496 H   0  0  0  0  0  0  0  0  0  0  0  0
   11.2305   -5.0307   26.1820 H   0  0  0  0  0  0  0  0  0  0  0  0
   11.6011    0.2707   22.2030 H   0  0  0  0  0  0  0  0  0  0  0  0
   11.4624    0.2744   23.9446 H   0  0  0  0  0  0  0  0  0  0  0  0
    8.9284    0.9668   23.5149 H   0  0  0  0  0  0  0  0  0  0  0  0
    6.8044    0.4388   16.8592 H   0  0  0  0  0  0  0  0  0  0  0  0
    8.2434   -1.5614   21.0991 H   0  0  0  0  0  0  0  0  0  0  0  0
  1  2  1  0  0  0  0
  1  4  2  0  0  0  0
  2  8  2  0  0  0  0
  3  5  2  0  0  0  0
  3 11  1  0  0  0  0
  4 13  1  0  0  0  0
  5 15  1  0  0  0  0
  6  9  2  0  0  0  0
  6 14  1  0  0  0  0
  7 10  1  0  0  0  0
  7 14  2  0  0  0  0
  8 16  1  0  0  0  0
  9 17  1  0  0  0  0
 10 17  2  0  0  0  0
 11 18  2  0  0  0  0
 12 15  2  0  0  0  0
 12 18  1  0  0  0  0
 13 16  2  0  0  0  0
 13 19  1  0  0  0  0
 14 24  1  0  0  0  0
 15 23  1  0  0  0  0
 16 26  1  0  0  0  0
 17 28  1  0  0  0  0
 18 30  1  0  0  0  0
 19 25  2  0  0  0  0
 19 27  1  0  0  0  0
 20 24  1  0  0  0  0
 20 27  1  0  0  0  0
 20 29  2  0  0  0  0
 21 28  1  0  0  0  0
 22 28  1  0  0  0  0
 23 24  1  1  0  0  0
 25 26  1  0  0  0  0
  1 31  1  0  0  0  0
  2 32  1  0  0  0  0
  3 33  1  0  0  0  0
  4 34  1  0  0  0  0
  5 35  1  0  0  0  0
  6 36  1  0  0  0  0
  7 37  1  0  0  0  0
  8 38  1  0  0  0  0
  9 39  1  0  0  0  0
 10 40  1  0  0  0  0
 11 41  1  0  0  0  0
 12 42  1  0  0  0  0
 21 43  1  0  0  0  0
 21 44  1  0  0  0  0
 21 45  1  0  0  0  0
 22 46  1  0  0  0  0
 22 47  1  0  0  0  0
 22 48  1  0  0  0  0
 23 49  1  0  0  0  0
 23 50  1  0  0  0  0
 24 51  1  0  0  0  0
 26 52  1  0  0  0  0
 27 53  1  0  0  0  0
M  END
> <clash_score>
0

> <docking_score>
-10.873479843139648

> <overlap_score>
0.9294797778129578

$$$$
BENZO_226_2
  -OEChem-08232013453D

 53 56  0     1  0  0  0  0  0999 V2000
    4.2750    1.7050   20.8490 C   0  0  0  0  0  0  0  0  0  0  0  0
    3.9160    2.0630   19.5520 C   0  0  0  0  0  0  0  0  0  0  0  0
    8.4741    5.0874   23.4171 C   0  0  0  0  0  0  0  0  0  0  0  0
    5.4210    0.9600   21.0930 C   0  0  0  0  0  0  0  0  0  0  0  0
    8.2342    3.7639   23.7862 C   0  0  0  0  0  0  0  0  0  0  0  0
    9.0720   -1.1280   24.8640 C   0  0  0  0  0  0  0  0  0  0  0  0
    9.7200   -2.2600   22.8630 C   0  0  0  0  0  0  0  0  0  0  0  0
    4.6890    1.6810   18.4640 C   0  0  0  0  0  0  0  0  0  0  0  0
    8.9960   -2.3380   25.5320 C   0  0  0  0  0  0  0  0  0  0  0  0
    9.6730   -3.4710   23.5300 C   0  0  0  0  0  0  0  0  0  0  0  0
    9.6155    5.4109   22.6835 C   0  0  0  0  0  0  0  0  0  0  0  0
   10.2772    3.0873   22.6883 C   0  0  0  0  0  0  0  0  0  0  0  0
    6.1790    0.5730   19.9990 C   0  0  0  0  0  0  0  0  0  0  0  0
    9.3350   -1.0880   23.5010 C   0  0  0  0  0  0  0  0  0  0  0  0
    9.1357    2.7638   23.4219 C   0  0  0  0  0  0  0  0  0  0  0  0
    5.8300    0.9190   18.6970 C   0  0  0  0  0  0  0  0  0  0  0  0
    9.3070   -3.5340   24.8780 C   0  0  0  0  0  0  0  0  0  0  0  0
   10.5171    4.4109   22.3191 C   0  0  0  0  0  0  0  0  0  0  0  0
    7.3170   -0.1610   19.8550 C   0  0  0  0  0  0  0  0  0  0  0  0
    9.0420    0.3700   21.5280 C   0  0  0  0  0  0  0  0  0  0  0  0
    8.8766   -4.8075   26.9494 C   0  0  0  0  0  0  0  0  0  0  0  0
    9.5670   -5.9896   24.8578 C   0  0  0  0  0  0  0  0  0  0  0  0
    8.8757    1.3301   23.8233 C   0  0  0  0  0  0  0  0  0  0  0  0
    9.4560    0.1560   22.8130 C   0  0  2  0  0  0  0  0  0  0  0  0
    7.6390   -0.2680   18.5410 N   0  0  0  0  0  0  0  0  0  0  0  0
    6.7580    0.3810   17.8350 N   0  0  0  0  0  0  0  0  0  0  0  0
    8.1890   -0.7180   20.8700 N   0  0  0  0  0  0  0  0  0  0  0  0
    9.2556   -4.7554   25.5514 N   0  0  0  0  0  0  0  0  0  0  0  0
    9.2690    1.4140   20.9380 O   0  0  0  0  0  0  0  0  0  0  0  0
   11.9257    4.8108   21.4150 Cl  0  0  0  0  0  0  0  0  0  0  0  0
    3.6468    2.0173   21.6825 H   0  0  0  0  0  0  0  0  0  0  0  0
    3.0153    2.6527   19.3907 H   0  0  0  0  0  0  0  0  0  0  0  0
    7.7719    5.8659   23.7012 H   0  0  0  0  0  0  0  0  0  0  0  0
    5.7015    0.6980   22.1071 H   0  0  0  0  0  0  0  0  0  0  0  0
    7.3423    3.5209   24.3579 H   0  0  0  0  0  0  0  0  0  0  0  0
    8.9214   -0.1986   25.4206 H   0  0  0  0  0  0  0  0  0  0  0  0
   10.0622   -2.2326   21.8251 H   0  0  0  0  0  0  0  0  0  0  0  0
    4.4064    1.9744   17.4453 H   0  0  0  0  0  0  0  0  0  0  0  0
    8.6882   -2.3542   26.5803 H   0  0  0  0  0  0  0  0  0  0  0  0
    9.9258   -4.3896   22.9914 H   0  0  0  0  0  0  0  0  0  0  0  0
    9.7898    6.4468   22.4029 H   0  0  0  0  0  0  0  0  0  0  0  0
   10.9768    2.3039   22.4061 H   0  0  0  0  0  0  0  0  0  0  0  0
    8.8956   -5.8512   27.2963 H   0  0  0  0  0  0  0  0  0  0  0  0
    9.5845   -4.2109   27.5435 H   0  0  0  0  0  0  0  0  0  0  0  0
    7.8621   -4.3997   27.0696 H   0  0  0  0  0  0  0  0  0  0  0  0
    9.4707   -6.8361   25.5536 H   0  0  0  0  0  0  0  0  0  0  0  0
    8.8693   -6.1242   24.0181 H   0  0  0  0  0  0  0  0  0  0  0  0
   10.5972   -5.9450   24.4750 H   0  0  0  0  0  0  0  0  0  0  0  0
    9.2390    1.1684   24.8466 H   0  0  0  0  0  0  0  0  0  0  0  0
    7.7875    1.1860   23.8742 H   0  0  0  0  0  0  0  0  0  0  0  0
   10.6103    0.4565   22.8881 H   0  0  0  0  0  0  0  0  0  0  0  0
    6.8044    0.4388   16.8592 H   0  0  0  0  0  0  0  0  0  0  0  0
    8.2434   -1.5614   21.0991 H   0  0  0  0  0  0  0  0  0  0  0  0
  1  2  1  0  0  0  0
  1  4  2  0  0  0  0
  2  8  2  0  0  0  0
  3  5  2  0  0  0  0
  3 11  1  0  0  0  0
  4 13  1  0  0  0  0
  5 15  1  0  0  0  0
  6  9  2  0  0  0  0
  6 14  1  0  0  0  0
  7 10  1  0  0  0  0
  7 14  2  0  0  0  0
  8 16  1  0  0  0  0
  9 17  1  0  0  0  0
 10 17  2  0  0  0  0
 11 18  2  0  0  0  0
 12 15  2  0  0  0  0
 12 18  1  0  0  0  0
 13 16  2  0  0  0  0
 13 19  1  0  0  0  0
 14 24  1  0  0  0  0
 15 23  1  0  0  0  0
 16 26  1  0  0  0  0
 17 28  1  0  0  0  0
 18 30  1  0  0  0  0
 19 25  2  0  0  0  0
 19 27  1  0  0  0  0
 20 24  1  0  0  0  0
 20 27  1  0  0  0  0
 20 29  2  0  0  0  0
 21 28  1  0  0  0  0
 22 28  1  0  0  0  0
 23 24  1  6  0  0  0
 25 26  1  0  0  0  0
  1 31  1  0  0  0  0
  2 32  1  0  0  0  0
  3 33  1  0  0  0  0
  4 34  1  0  0  0  0
  5 35  1  0  0  0  0
  6 36  1  0  0  0  0
  7 37  1  0  0  0  0
  8 38  1  0  0  0  0
  9 39  1  0  0  0  0
 10 40  1  0  0  0  0
 11 41  1  0  0  0  0
 12 42  1  0  0  0  0
 21 43  1  0  0  0  0
 21 44  1  0  0  0  0
 21 45  1  0  0  0  0
 22 46  1  0  0  0  0
 22 47  1  0  0  0  0
 22 48  1  0  0  0  0
 23 49  1  0  0  0  0
 23 50  1  0  0  0  0
 24 51  1  0  0  0  0
 26 52  1  0  0  0  0
 27 53  1  0  0  0  0
M  END
> <clash_score>
0

> <docking_score>
-5.997611999511719

> <overlap_score>
0.8466970324516296

$$$$
BENZO_228_2
  -OEChem-08232013453D

 52 55  0     1  0  0  0  0  0999 V2000
    4.2750    1.7050   20.8490 C   0  0  0  0  0  0  0  0  0  0  0  0
    3.9160    2.0630   19.5520 C   0  0  0  0  0  0  0  0  0  0  0  0
    5.4210    0.9600   21.0930 C   0  0  0  0  0  0  0  0  0  0  0  0
    9.0720   -1.1280   24.8640 C   0  0  0  0  0  0  0  0  0  0  0  0
    9.7200   -2.2600   22.8630 C   0  0  0  0  0  0  0  0  0  0  0  0
    4.6890    1.6810   18.4640 C   0  0  0  0  0  0  0  0  0  0  0  0
    8.9960   -2.3380   25.5320 C   0  0  0  0  0  0  0  0  0  0  0  0
    9.6730   -3.4710   23.5300 C   0  0  0  0  0  0  0  0  0  0  0  0
   10.3314    3.2065   22.7858 C   0  0  0  0  0  0  0  0  0  0  0  0
   10.3108    4.5599   22.5298 C   0  0  0  0  0  0  0  0  0  0  0  0
    8.2468    3.7959   23.6280 C   0  0  0  0  0  0  0  0  0  0  0  0
    6.1790    0.5730   19.9990 C   0  0  0  0  0  0  0  0  0  0  0  0
    9.3350   -1.0880   23.5010 C   0  0  0  0  0  0  0  0  0  0  0  0
    9.1357    2.7638   23.4219 C   0  0  0  0  0  0  0  0  0  0  0  0
    5.8300    0.9190   18.6970 C   0  0  0  0  0  0  0  0  0  0  0  0
    9.3070   -3.5340   24.8780 C   0  0  0  0  0  0  0  0  0  0  0  0
    7.3170   -0.1610   19.8550 C   0  0  0  0  0  0  0  0  0  0  0  0
    8.4227   -5.1089   26.6141 C   0  0  0  0  0  0  0  0  0  0  0  0
    9.0420    0.3700   21.5280 C   0  0  0  0  0  0  0  0  0  0  0  0
    8.4173   -7.5520   25.9532 C   0  0  0  0  0  0  0  0  0  0  0  0
    8.8757    1.3301   23.8233 C   0  0  0  0  0  0  0  0  0  0  0  0
    8.6900   -6.5411   27.0525 C   0  0  0  0  0  0  0  0  0  0  0  0
    9.4560    0.1560   22.8130 C   0  0  2  0  0  0  0  0  0  0  0  0
    7.6390   -0.2680   18.5410 N   0  0  0  0  0  0  0  0  0  0  0  0
    6.7580    0.3810   17.8350 N   0  0  0  0  0  0  0  0  0  0  0  0
    9.2546   -4.7423   25.5437 N   0  0  0  0  0  0  0  0  0  0  0  0
    8.1890   -0.7180   20.8700 N   0  0  0  0  0  0  0  0  0  0  0  0
    7.5768   -4.4085   27.1602 O   0  0  0  0  0  0  0  0  0  0  0  0
    9.2690    1.4140   20.9380 O   0  0  0  0  0  0  0  0  0  0  0  0
    8.8543    5.2911   23.0556 S   0  0  0  0  0  0  0  0  0  0  0  0
    3.6468    2.0173   21.6825 H   0  0  0  0  0  0  0  0  0  0  0  0
    3.0153    2.6527   19.3907 H   0  0  0  0  0  0  0  0  0  0  0  0
    5.7015    0.6980   22.1071 H   0  0  0  0  0  0  0  0  0  0  0  0
    8.9202   -0.1986   25.4206 H   0  0  0  0  0  0  0  0  0  0  0  0
   10.0631   -2.2319   21.8252 H   0  0  0  0  0  0  0  0  0  0  0  0
    4.4064    1.9744   17.4453 H   0  0  0  0  0  0  0  0  0  0  0  0
    8.6898   -2.3534   26.5810 H   0  0  0  0  0  0  0  0  0  0  0  0
    9.9254   -4.3899   22.9914 H   0  0  0  0  0  0  0  0  0  0  0  0
   11.1669    2.5681   22.5277 H   0  0  0  0  0  0  0  0  0  0  0  0
   11.0815    5.1544   22.0599 H   0  0  0  0  0  0  0  0  0  0  0  0
    7.2694    3.7480   24.0879 H   0  0  0  0  0  0  0  0  0  0  0  0
    7.3765   -7.4970   25.6176 H   0  0  0  0  0  0  0  0  0  0  0  0
    8.6071   -8.5677   26.3138 H   0  0  0  0  0  0  0  0  0  0  0  0
    9.0599   -7.3717   25.0851 H   0  0  0  0  0  0  0  0  0  0  0  0
    9.2390    1.1684   24.8466 H   0  0  0  0  0  0  0  0  0  0  0  0
    7.7875    1.1860   23.8742 H   0  0  0  0  0  0  0  0  0  0  0  0
    9.7367   -6.6182   27.3685 H   0  0  0  0  0  0  0  0  0  0  0  0
    8.0564   -6.7633   27.9189 H   0  0  0  0  0  0  0  0  0  0  0  0
   10.6103    0.4565   22.8881 H   0  0  0  0  0  0  0  0  0  0  0  0
    6.8044    0.4388   16.8592 H   0  0  0  0  0  0  0  0  0  0  0  0
    9.9034   -5.4689   25.2194 H   0  0  0  0  0  0  0  0  0  0  0  0
    8.2434   -1.5614   21.0991 H   0  0  0  0  0  0  0  0  0  0  0  0
  1  2  1  0  0  0  0
  1  3  2  0  0  0  0
  2  6  2  0  0  0  0
  3 12  1  0  0  0  0
  4  7  2  0  0  0  0
  4 13  1  0  0  0  0
  5  8  1  0  0  0  0
  5 13  2  0  0  0  0
  6 15  1  0  0  0  0
  7 16  1  0  0  0  0
  8 16  2  0  0  0  0
  9 10  2  0  0  0  0
  9 14  1  0  0  0  0
 10 30  1  0  0  0  0
 11 14  2  0  0  0  0
 11 30  1  0  0  0  0
 12 15  2  0  0  0  0
 12 17  1  0  0  0  0
 13 23  1  0  0  0  0
 14 21  1  0  0  0  0
 15 25  1  0  0  0  0
 16 26  1  0  0  0  0
 17 24  2  0  0  0  0
 17 27  1  0  0  0  0
 18 22  1  0  0  0  0
 18 26  1  0  0  0  0
 18 28  2  0  0  0  0
 19 23  1  0  0  0  0
 19 27  1  0  0  0  0
 19 29  2  0  0  0  0
 20 22  1  0  0  0  0
 21 23  1  6  0  0  0
 24 25  1  0  0  0  0
  1 31  1  0  0  0  0
  2 32  1  0  0  0  0
  3 33  1  0  0  0  0
  4 34  1  0  0  0  0
  5 35  1  0  0  0  0
  6 36  1  0  0  0  0
  7 37  1  0  0  0  0
  8 38  1  0  0  0  0
  9 39  1  0  0  0  0
 10 40  1  0  0  0  0
 11 41  1  0  0  0  0
 20 42  1  0  0  0  0
 20 43  1  0  0  0  0
 20 44  1  0  0  0  0
 21 45  1  0  0  0  0
 21 46  1  0  0  0  0
 22 47  1  0  0  0  0
 22 48  1  0  0  0  0
 23 49  1  0  0  0  0
 25 50  1  0  0  0  0
 26 51  1  0  0  0  0
 27 52  1  0  0  0  0
M  END
> <clash_score>
0.6426261285623064

> <docking_score>
-5.676556587219238

> <overlap_score>
0.843749463558197

$$$$
BENZO_228_1
  -OEChem-08232013453D

 52 55  0     1  0  0  0  0  0999 V2000
    4.2750    1.7050   20.8490 C   0  0  0  0  0  0  0  0  0  0  0  0
    3.9160    2.0630   19.5520 C   0  0  0  0  0  0  0  0  0  0  0  0
    5.4210    0.9600   21.0930 C   0  0  0  0  0  0  0  0  0  0  0  0
    9.0720   -1.1280   24.8640 C   0  0  0  0  0  0  0  0  0  0  0  0
    9.7200   -2.2600   22.8630 C   0  0  0  0  0  0  0  0  0  0  0  0
    4.6890    1.6810   18.4640 C   0  0  0  0  0  0  0  0  0  0  0  0
    8.9960   -2.3380   25.5320 C   0  0  0  0  0  0  0  0  0  0  0  0
    9.6730   -3.4710   23.5300 C   0  0  0  0  0  0  0  0  0  0  0  0
   11.9789    2.9159   22.1431 C   0  0  0  0  0  0  0  0  0  0  0  0
   11.9531    4.2698   22.3953 C   0  0  0  0  0  0  0  0  0  0  0  0
   10.5610    3.0079   23.9825 C   0  0  0  0  0  0  0  0  0  0  0  0
    6.1790    0.5730   19.9990 C   0  0  0  0  0  0  0  0  0  0  0  0
    9.3350   -1.0880   23.5010 C   0  0  0  0  0  0  0  0  0  0  0  0
   11.1723    2.1848   23.0624 C   0  0  0  0  0  0  0  0  0  0  0  0
    5.8300    0.9190   18.6970 C   0  0  0  0  0  0  0  0  0  0  0  0
    9.3070   -3.5340   24.8780 C   0  0  0  0  0  0  0  0  0  0  0  0
    7.3170   -0.1610   19.8550 C   0  0  0  0  0  0  0  0  0  0  0  0
    8.4227   -5.1089   26.6141 C   0  0  0  0  0  0  0  0  0  0  0  0
    9.0420    0.3700   21.5280 C   0  0  0  0  0  0  0  0  0  0  0  0
    8.4173   -7.5520   25.9532 C   0  0  0  0  0  0  0  0  0  0  0  0
   11.0089    0.6825   23.0307 C   0  0  0  0  0  0  0  0  0  0  0  0
    8.6900   -6.5411   27.0525 C   0  0  0  0  0  0  0  0  0  0  0  0
    9.4560    0.1560   22.8130 C   0  0  1  0  0  0  0  0  0  0  0  0
    7.6390   -0.2680   18.5410 N   0  0  0  0  0  0  0  0  0  0  0  0
    6.7580    0.3810   17.8350 N   0  0  0  0  0  0  0  0  0  0  0  0
    9.2546   -4.7423   25.5437 N   0  0  0  0  0  0  0  0  0  0  0  0
    8.1890   -0.7180   20.8700 N   0  0  0  0  0  0  0  0  0  0  0  0
    7.5768   -4.4085   27.1602 O   0  0  0  0  0  0  0  0  0  0  0  0
    9.2690    1.4140   20.9380 O   0  0  0  0  0  0  0  0  0  0  0  0
   10.9597    4.6549   23.7359 S   0  0  0  0  0  0  0  0  0  0  0  0
    3.6468    2.0173   21.6825 H   0  0  0  0  0  0  0  0  0  0  0  0
    3.0153    2.6527   19.3907 H   0  0  0  0  0  0  0  0  0  0  0  0
    5.7015    0.6980   22.1071 H   0  0  0  0  0  0  0  0  0  0  0  0
    8.9202   -0.1986   25.4206 H   0  0  0  0  0  0  0  0  0  0  0  0
   10.0631   -2.2319   21.8252 H   0  0  0  0  0  0  0  0  0  0  0  0
    4.4064    1.9744   17.4453 H   0  0  0  0  0  0  0  0  0  0  0  0
    8.6898   -2.3534   26.5810 H   0  0  0  0  0  0  0  0  0  0  0  0
    9.9254   -4.3899   22.9914 H   0  0  0  0  0  0  0  0  0  0  0  0
   12.5509    2.4750   21.3365 H   0  0  0  0  0  0  0  0  0  0  0  0
   12.4707    5.0513   21.8570 H   0  0  0  0  0  0  0  0  0  0  0  0
    9.8997    2.7250   24.7898 H   0  0  0  0  0  0  0  0  0  0  0  0
    7.3765   -7.4970   25.6176 H   0  0  0  0  0  0  0  0  0  0  0  0
    8.6071   -8.5677   26.3138 H   0  0  0  0  0  0  0  0  0  0  0  0
    9.0599   -7.3717   25.0851 H   0  0  0  0  0  0  0  0  0  0  0  0
   11.6011    0.2707   22.2030 H   0  0  0  0  0  0  0  0  0  0  0  0
   11.4624    0.2744   23.9446 H   0  0  0  0  0  0  0  0  0  0  0  0
    9.7367   -6.6182   27.3685 H   0  0  0  0  0  0  0  0  0  0  0  0
    8.0564   -6.7633   27.9189 H   0  0  0  0  0  0  0  0  0  0  0  0
    8.9284    0.9668   23.5149 H   0  0  0  0  0  0  0  0  0  0  0  0
    6.8044    0.4388   16.8592 H   0  0  0  0  0  0  0  0  0  0  0  0
    9.9034   -5.4689   25.2194 H   0  0  0  0  0  0  0  0  0  0  0  0
    8.2434   -1.5614   21.0991 H   0  0  0  0  0  0  0  0  0  0  0  0
  1  2  1  0  0  0  0
  1  3  2  0  0  0  0
  2  6  2  0  0  0  0
  3 12  1  0  0  0  0
  4  7  2  0  0  0  0
  4 13  1  0  0  0  0
  5  8  1  0  0  0  0
  5 13  2  0  0  0  0
  6 15  1  0  0  0  0
  7 16  1  0  0  0  0
  8 16  2  0  0  0  0
  9 10  2  0  0  0  0
  9 14  1  0  0  0  0
 10 30  1  0  0  0  0
 11 14  2  0  0  0  0
 11 30  1  0  0  0  0
 12 15  2  0  0  0  0
 12 17  1  0  0  0  0
 13 23  1  0  0  0  0
 14 21  1  0  0  0  0
 15 25  1  0  0  0  0
 16 26  1  0  0  0  0
 17 24  2  0  0  0  0
 17 27  1  0  0  0  0
 18 22  1  0  0  0  0
 18 26  1  0  0  0  0
 18 28  2  0  0  0  0
 19 23  1  0  0  0  0
 19 27  1  0  0  0  0
 19 29  2  0  0  0  0
 20 22  1  0  0  0  0
 21 23  1  1  0  0  0
 24 25  1  0  0  0  0
  1 31  1  0  0  0  0
  2 32  1  0  0  0  0
  3 33  1  0  0  0  0
  4 34  1  0  0  0  0
  5 35  1  0  0  0  0
  6 36  1  0  0  0  0
  7 37  1  0  0  0  0
  8 38  1  0  0  0  0
  9 39  1  0  0  0  0
 10 40  1  0  0  0  0
 11 41  1  0  0  0  0
 20 42  1  0  0  0  0
 20 43  1  0  0  0  0
 20 44  1  0  0  0  0
 21 45  1  0  0  0  0
 21 46  1  0  0  0  0
 22 47  1  0  0  0  0
 22 48  1  0  0  0  0
 23 49  1  0  0  0  0
 25 50  1  0  0  0  0
 26 51  1  0  0  0  0
 27 52  1  0  0  0  0
M  END
> <clash_score>
0.6426261285623064

> <docking_score>
-7.795480728149414

> <overlap_score>
0.9194598197937012

$$$$
BENZO_230_2
  -OEChem-08232013453D

 55 58  0     1  0  0  0  0  0999 V2000
    4.2750    1.7050   20.8490 C   0  0  0  0  0  0  0  0  0  0  0  0
    3.9160    2.0630   19.5520 C   0  0  0  0  0  0  0  0  0  0  0  0
   10.5170    4.4086   22.3156 C   0  0  0  0  0  0  0  0  0  0  0  0
    5.4210    0.9600   21.0930 C   0  0  0  0  0  0  0  0  0  0  0  0
   10.2770    3.0858   22.6873 C   0  0  0  0  0  0  0  0  0  0  0  0
    9.0720   -1.1280   24.8640 C   0  0  0  0  0  0  0  0  0  0  0  0
    9.7200   -2.2600   22.8630 C   0  0  0  0  0  0  0  0  0  0  0  0
    4.6890    1.6810   18.4640 C   0  0  0  0  0  0  0  0  0  0  0  0
    8.9960   -2.3380   25.5320 C   0  0  0  0  0  0  0  0  0  0  0  0
    9.6730   -3.4710   23.5300 C   0  0  0  0  0  0  0  0  0  0  0  0
    9.6157    5.4095   22.6784 C   0  0  0  0  0  0  0  0  0  0  0  0
    8.2344    3.7647   23.7847 C   0  0  0  0  0  0  0  0  0  0  0  0
    6.1790    0.5730   19.9990 C   0  0  0  0  0  0  0  0  0  0  0  0
    9.3350   -1.0880   23.5010 C   0  0  0  0  0  0  0  0  0  0  0  0
    9.1357    2.7638   23.4219 C   0  0  0  0  0  0  0  0  0  0  0  0
    5.8300    0.9190   18.6970 C   0  0  0  0  0  0  0  0  0  0  0  0
    9.3070   -3.5340   24.8780 C   0  0  0  0  0  0  0  0  0  0  0  0
    8.4744    5.0875   23.4129 C   0  0  0  0  0  0  0  0  0  0  0  0
    7.3170   -0.1610   19.8550 C   0  0  0  0  0  0  0  0  0  0  0  0
    8.4227   -5.1089   26.6141 C   0  0  0  0  0  0  0  0  0  0  0  0
    9.0420    0.3700   21.5280 C   0  0  0  0  0  0  0  0  0  0  0  0
    8.4173   -7.5520   25.9532 C   0  0  0  0  0  0  0  0  0  0  0  0
    8.8757    1.3301   23.8233 C   0  0  0  0  0  0  0  0  0  0  0  0
    8.6900   -6.5411   27.0525 C   0  0  0  0  0  0  0  0  0  0  0  0
    9.4560    0.1560   22.8130 C   0  0  2  0  0  0  0  0  0  0  0  0
    7.6390   -0.2680   18.5410 N   0  0  0  0  0  0  0  0  0  0  0  0
    6.7580    0.3810   17.8350 N   0  0  0  0  0  0  0  0  0  0  0  0
    9.2546   -4.7423   25.5437 N   0  0  0  0  0  0  0  0  0  0  0  0
    8.1890   -0.7180   20.8700 N   0  0  0  0  0  0  0  0  0  0  0  0
    7.5768   -4.4085   27.1602 O   0  0  0  0  0  0  0  0  0  0  0  0
    9.2690    1.4140   20.9380 O   0  0  0  0  0  0  0  0  0  0  0  0
    7.3623    6.3227   23.8593 Cl  0  0  0  0  0  0  0  0  0  0  0  0
    3.6468    2.0173   21.6825 H   0  0  0  0  0  0  0  0  0  0  0  0
    3.0153    2.6527   19.3907 H   0  0  0  0  0  0  0  0  0  0  0  0
   11.4057    4.6588   21.7435 H   0  0  0  0  0  0  0  0  0  0  0  0
    5.7015    0.6980   22.1071 H   0  0  0  0  0  0  0  0  0  0  0  0
   10.9846    2.3124   22.4002 H   0  0  0  0  0  0  0  0  0  0  0  0
    8.9202   -0.1986   25.4206 H   0  0  0  0  0  0  0  0  0  0  0  0
   10.0631   -2.2319   21.8252 H   0  0  0  0  0  0  0  0  0  0  0  0
    4.4064    1.9744   17.4453 H   0  0  0  0  0  0  0  0  0  0  0  0
    8.6898   -2.3534   26.5810 H   0  0  0  0  0  0  0  0  0  0  0  0
    9.9254   -4.3899   22.9914 H   0  0  0  0  0  0  0  0  0  0  0  0
    9.8155    6.4362   22.3815 H   0  0  0  0  0  0  0  0  0  0  0  0
    7.3463    3.5086   24.3578 H   0  0  0  0  0  0  0  0  0  0  0  0
    7.3765   -7.4970   25.6176 H   0  0  0  0  0  0  0  0  0  0  0  0
    8.6071   -8.5677   26.3138 H   0  0  0  0  0  0  0  0  0  0  0  0
    9.0599   -7.3717   25.0851 H   0  0  0  0  0  0  0  0  0  0  0  0
    9.2390    1.1684   24.8466 H   0  0  0  0  0  0  0  0  0  0  0  0
    7.7875    1.1860   23.8742 H   0  0  0  0  0  0  0  0  0  0  0  0
    9.7367   -6.6182   27.3685 H   0  0  0  0  0  0  0  0  0  0  0  0
    8.0564   -6.7633   27.9189 H   0  0  0  0  0  0  0  0  0  0  0  0
   10.6103    0.4565   22.8881 H   0  0  0  0  0  0  0  0  0  0  0  0
    6.8044    0.4388   16.8592 H   0  0  0  0  0  0  0  0  0  0  0  0
    9.9034   -5.4689   25.2194 H   0  0  0  0  0  0  0  0  0  0  0  0
    8.2434   -1.5614   21.0991 H   0  0  0  0  0  0  0  0  0  0  0  0
  1  2  1  0  0  0  0
  1  4  2  0  0  0  0
  2  8  2  0  0  0  0
  3  5  2  0  0  0  0
  3 11  1  0  0  0  0
  4 13  1  0  0  0  0
  5 15  1  0  0  0  0
  6  9  2  0  0  0  0
  6 14  1  0  0  0  0
  7 10  1  0  0  0  0
  7 14  2  0  0  0  0
  8 16  1  0  0  0  0
  9 17  1  0  0  0  0
 10 17  2  0  0  0  0
 11 18  2  0  0  0  0
 12 15  2  0  0  0  0
 12 18  1  0  0  0  0
 13 16  2  0  0  0  0
 13 19  1  0  0  0  0
 14 25  1  0  0  0  0
 15 23  1  0  0  0  0
 16 27  1  0  0  0  0
 17 28  1  0  0  0  0
 18 32  1  0  0  0  0
 19 26  2  0  0  0  0
 19 29  1  0  0  0  0
 20 24  1  0  0  0  0
 20 28  1  0  0  0  0
 20 30  2  0  0  0  0
 21 25  1  0  0  0  0
 21 29  1  0  0  0  0
 21 31  2  0  0  0  0
 22 24  1  0  0  0  0
 23 25  1  6  0  0  0
 26 27  1  0  0  0  0
  1 33  1  0  0  0  0
  2 34  1  0  0  0  0
  3 35  1  0  0  0  0
  4 36  1  0  0  0  0
  5 37  1  0  0  0  0
  6 38  1  0  0  0  0
  7 39  1  0  0  0  0
  8 40  1  0  0  0  0
  9 41  1  0  0  0  0
 10 42  1  0  0  0  0
 11 43  1  0  0  0  0
 12 44  1  0  0  0  0
 22 45  1  0  0  0  0
 22 46  1  0  0  0  0
 22 47  1  0  0  0  0
 23 48  1  0  0  0  0
 23 49  1  0  0  0  0
 24 50  1  0  0  0  0
 24 51  1  0  0  0  0
 25 52  1  0  0  0  0
 27 53  1  0  0  0  0
 28 54  1  0  0  0  0
 29 55  1  0  0  0  0
M  END
> <clash_score>
0.6426261285623064

> <docking_score>
-5.191625595092773

> <overlap_score>
0.8423011302947998

$$$$
BENZO_233_1
  -OEChem-08232013453D

 60 64  0     1  0  0  0  0  0999 V2000
    9.5866    5.4188   22.6537 C   0  0  0  0  0  0  0  0  0  0  0  0
    4.2750    1.7050   20.8490 C   0  0  0  0  0  0  0  0  0  0  0  0
    8.4493    5.0927   23.3925 C   0  0  0  0  0  0  0  0  0  0  0  0
   10.4927    4.4220   22.2918 C   0  0  0  0  0  0  0  0  0  0  0  0
    3.9160    2.0630   19.5520 C   0  0  0  0  0  0  0  0  0  0  0  0
    5.4210    0.9600   21.0930 C   0  0  0  0  0  0  0  0  0  0  0  0
    8.2182    3.7698   23.7695 C   0  0  0  0  0  0  0  0  0  0  0  0
   10.2616    3.0991   22.6687 C   0  0  0  0  0  0  0  0  0  0  0  0
    9.0720   -1.1280   24.8640 C   0  0  0  0  0  0  0  0  0  0  0  0
    9.7200   -2.2600   22.8630 C   0  0  0  0  0  0  0  0  0  0  0  0
    4.6890    1.6810   18.4640 C   0  0  0  0  0  0  0  0  0  0  0  0
    8.9960   -2.3380   25.5320 C   0  0  0  0  0  0  0  0  0  0  0  0
    9.6730   -3.4710   23.5300 C   0  0  0  0  0  0  0  0  0  0  0  0
    6.1790    0.5730   19.9990 C   0  0  0  0  0  0  0  0  0  0  0  0
    9.1243    2.7729   23.4075 C   0  0  0  0  0  0  0  0  0  0  0  0
    9.3350   -1.0880   23.5010 C   0  0  0  0  0  0  0  0  0  0  0  0
    5.8300    0.9190   18.6970 C   0  0  0  0  0  0  0  0  0  0  0  0
    9.3070   -3.5340   24.8780 C   0  0  0  0  0  0  0  0  0  0  0  0
    7.3170   -0.1610   19.8550 C   0  0  0  0  0  0  0  0  0  0  0  0
    9.0420    0.3700   21.5280 C   0  0  0  0  0  0  0  0  0  0  0  0
    8.0667   -7.3160   25.1085 C   0  0  0  0  0  0  0  0  0  0  0  0
    9.3319   -6.8814   24.3649 C   0  0  0  0  0  0  0  0  0  0  0  0
    7.2362   -6.1096   25.5522 C   0  0  0  0  0  0  0  0  0  0  0  0
   10.1245   -5.8640   25.1853 C   0  0  0  0  0  0  0  0  0  0  0  0
    8.0817   -5.1052   26.3413 C   0  0  0  0  0  0  0  0  0  0  0  0
    8.8746    1.3393   23.8158 C   0  0  0  0  0  0  0  0  0  0  0  0
    9.4560    0.1560   22.8130 C   0  0  1  0  0  0  0  0  0  0  0  0
    7.6390   -0.2680   18.5410 N   0  0  0  0  0  0  0  0  0  0  0  0
    6.7580    0.3810   17.8350 N   0  0  0  0  0  0  0  0  0  0  0  0
    9.2563   -4.7384   25.5420 N   0  0  0  0  0  0  0  0  0  0  0  0
    8.1890   -0.7180   20.8700 N   0  0  0  0  0  0  0  0  0  0  0  0
    9.2690    1.4140   20.9380 O   0  0  0  0  0  0  0  0  0  0  0  0
    9.7657    6.4488   22.3592 H   0  0  0  0  0  0  0  0  0  0  0  0
    3.6468    2.0173   21.6825 H   0  0  0  0  0  0  0  0  0  0  0  0
    7.7431    5.8686   23.6735 H   0  0  0  0  0  0  0  0  0  0  0  0
   11.3777    4.6754   21.7156 H   0  0  0  0  0  0  0  0  0  0  0  0
    3.0153    2.6527   19.3907 H   0  0  0  0  0  0  0  0  0  0  0  0
    5.7015    0.6980   22.1071 H   0  0  0  0  0  0  0  0  0  0  0  0
    7.3295    3.5250   24.3452 H   0  0  0  0  0  0  0  0  0  0  0  0
   10.9731    2.3291   22.3823 H   0  0  0  0  0  0  0  0  0  0  0  0
    8.9214   -0.1986   25.4206 H   0  0  0  0  0  0  0  0  0  0  0  0
   10.0622   -2.2326   21.8251 H   0  0  0  0  0  0  0  0  0  0  0  0
    4.4064    1.9744   17.4453 H   0  0  0  0  0  0  0  0  0  0  0  0
    8.6882   -2.3542   26.5803 H   0  0  0  0  0  0  0  0  0  0  0  0
    9.9258   -4.3896   22.9914 H   0  0  0  0  0  0  0  0  0  0  0  0
    7.4598   -7.9634   24.4571 H   0  0  0  0  0  0  0  0  0  0  0  0
    8.3410   -7.9201   25.9853 H   0  0  0  0  0  0  0  0  0  0  0  0
    9.9559   -7.7558   24.1617 H   0  0  0  0  0  0  0  0  0  0  0  0
    9.0580   -6.4449   23.4022 H   0  0  0  0  0  0  0  0  0  0  0  0
    6.8081   -5.6166   24.6732 H   0  0  0  0  0  0  0  0  0  0  0  0
    6.3966   -6.4479   26.1707 H   0  0  0  0  0  0  0  0  0  0  0  0
   10.5035   -6.3556   26.0849 H   0  0  0  0  0  0  0  0  0  0  0  0
   10.9797   -5.5057   24.6053 H   0  0  0  0  0  0  0  0  0  0  0  0
    7.4889   -4.2178   26.5663 H   0  0  0  0  0  0  0  0  0  0  0  0
    8.3867   -5.5668   27.2810 H   0  0  0  0  0  0  0  0  0  0  0  0
    9.2322    1.1871   24.8426 H   0  0  0  0  0  0  0  0  0  0  0  0
    7.7874    1.1856   23.8601 H   0  0  0  0  0  0  0  0  0  0  0  0
   10.6111    0.4645   22.8838 H   0  0  0  0  0  0  0  0  0  0  0  0
    6.8044    0.4388   16.8592 H   0  0  0  0  0  0  0  0  0  0  0  0
    8.2585   -1.5522   21.1129 H   0  0  0  0  0  0  0  0  0  0  0  0
  1  3  1  0  0  0  0
  1  4  2  0  0  0  0
  2  5  1  0  0  0  0
  2  6  2  0  0  0  0
  3  7  2  0  0  0  0
  4  8  1  0  0  0  0
  5 11  2  0  0  0  0
  6 14  1  0  0  0  0
  7 15  1  0  0  0  0
  8 15  2  0  0  0  0
  9 12  2  0  0  0  0
  9 16  1  0  0  0  0
 10 13  1  0  0  0  0
 10 16  2  0  0  0  0
 11 17  1  0  0  0  0
 12 18  1  0  0  0  0
 13 18  2  0  0  0  0
 14 17  2  0  0  0  0
 14 19  1  0  0  0  0
 15 26  1  0  0  0  0
 16 27  1  0  0  0  0
 17 29  1  0  0  0  0
 18 30  1  0  0  0  0
 19 28  2  0  0  0  0
 19 31  1  0  0  0  0
 20 27  1  1  0  0  0
 20 31  1  0  0  0  0
 20 32  2  0  0  0  0
 21 22  1  0  0  0  0
 21 23  1  0  0  0  0
 22 24  1  0  0  0  0
 23 25  1  0  0  0  0
 24 30  1  0  0  0  0
 25 30  1  0  0  0  0
 26 27  1  0  0  0  0
 28 29  1  0  0  0  0
  1 33  1  0  0  0  0
  2 34  1  0  0  0  0
  3 35  1  0  0  0  0
  4 36  1  0  0  0  0
  5 37  1  0  0  0  0
  6 38  1  0  0  0  0
  7 39  1  0  0  0  0
  8 40  1  0  0  0  0
  9 41  1  0  0  0  0
 10 42  1  0  0  0  0
 11 43  1  0  0  0  0
 12 44  1  0  0  0  0
 13 45  1  0  0  0  0
 21 46  1  0  0  0  0
 21 47  1  0  0  0  0
 22 48  1  0  0  0  0
 22 49  1  0  0  0  0
 23 50  1  0  0  0  0
 23 51  1  0  0  0  0
 24 52  1  0  0  0  0
 24 53  1  0  0  0  0
 25 54  1  0  0  0  0
 25 55  1  0  0  0  0
 26 56  1  0  0  0  0
 26 57  1  0  0  0  0
 27 58  1  0  0  0  0
 29 59  1  0  0  0  0
 31 60  1  0  0  0  0
M  END
> <clash_score>
0.6917505343088597

> <docking_score>
-4.857490539550781

> <overlap_score>
0.8603013157844543

$$$$
BENZO_231_2
  -OEChem-08232013453D

 55 58  0     1  0  0  0  0  0999 V2000
    4.2750    1.7050   20.8490 C   0  0  0  0  0  0  0  0  0  0  0  0
    3.9160    2.0630   19.5520 C   0  0  0  0  0  0  0  0  0  0  0  0
    5.4210    0.9600   21.0930 C   0  0  0  0  0  0  0  0  0  0  0  0
    9.0720   -1.1280   24.8640 C   0  0  0  0  0  0  0  0  0  0  0  0
    9.7200   -2.2600   22.8630 C   0  0  0  0  0  0  0  0  0  0  0  0
    4.6890    1.6810   18.4640 C   0  0  0  0  0  0  0  0  0  0  0  0
    8.9960   -2.3380   25.5320 C   0  0  0  0  0  0  0  0  0  0  0  0
    9.6730   -3.4710   23.5300 C   0  0  0  0  0  0  0  0  0  0  0  0
   10.2230    3.2711   22.6855 C   0  0  0  0  0  0  0  0  0  0  0  0
    8.3607    3.8650   23.6924 C   0  0  0  0  0  0  0  0  0  0  0  0
    6.1790    0.5730   19.9990 C   0  0  0  0  0  0  0  0  0  0  0  0
    9.3350   -1.0880   23.5010 C   0  0  0  0  0  0  0  0  0  0  0  0
    9.1357    2.7638   23.4218 C   0  0  0  0  0  0  0  0  0  0  0  0
    5.8300    0.9190   18.6970 C   0  0  0  0  0  0  0  0  0  0  0  0
    9.3070   -3.5340   24.8780 C   0  0  0  0  0  0  0  0  0  0  0  0
    7.3170   -0.1610   19.8550 C   0  0  0  0  0  0  0  0  0  0  0  0
    8.4227   -5.1089   26.6141 C   0  0  0  0  0  0  0  0  0  0  0  0
    9.0420    0.3700   21.5280 C   0  0  0  0  0  0  0  0  0  0  0  0
    8.4173   -7.5520   25.9532 C   0  0  0  0  0  0  0  0  0  0  0  0
    8.5727    6.3003   23.1419 C   0  0  0  0  0  0  0  0  0  0  0  0
    8.8757    1.3301   23.8233 C   0  0  0  0  0  0  0  0  0  0  0  0
    8.6900   -6.5411   27.0525 C   0  0  0  0  0  0  0  0  0  0  0  0
    9.4560    0.1560   22.8130 C   0  0  2  0  0  0  0  0  0  0  0  0
   10.1488    4.5917   22.4999 N   0  0  0  0  0  0  0  0  0  0  0  0
    7.6390   -0.2680   18.5410 N   0  0  0  0  0  0  0  0  0  0  0  0
    6.7580    0.3810   17.8350 N   0  0  0  0  0  0  0  0  0  0  0  0
    9.0056    4.9236   23.1235 N   0  0  0  0  0  0  0  0  0  0  0  0
    9.2546   -4.7423   25.5437 N   0  0  0  0  0  0  0  0  0  0  0  0
    8.1890   -0.7180   20.8700 N   0  0  0  0  0  0  0  0  0  0  0  0
    7.5768   -4.4085   27.1602 O   0  0  0  0  0  0  0  0  0  0  0  0
    9.2690    1.4140   20.9380 O   0  0  0  0  0  0  0  0  0  0  0  0
    3.6468    2.0173   21.6825 H   0  0  0  0  0  0  0  0  0  0  0  0
    3.0153    2.6527   19.3907 H   0  0  0  0  0  0  0  0  0  0  0  0
    5.7015    0.6980   22.1071 H   0  0  0  0  0  0  0  0  0  0  0  0
    8.9202   -0.1986   25.4206 H   0  0  0  0  0  0  0  0  0  0  0  0
   10.0631   -2.2319   21.8252 H   0  0  0  0  0  0  0  0  0  0  0  0
    4.4064    1.9744   17.4453 H   0  0  0  0  0  0  0  0  0  0  0  0
    8.6898   -2.3534   26.5810 H   0  0  0  0  0  0  0  0  0  0  0  0
    9.9254   -4.3899   22.9914 H   0  0  0  0  0  0  0  0  0  0  0  0
   11.0671    2.7354   22.2746 H   0  0  0  0  0  0  0  0  0  0  0  0
    7.4277    3.9824   24.2269 H   0  0  0  0  0  0  0  0  0  0  0  0
    7.3765   -7.4970   25.6176 H   0  0  0  0  0  0  0  0  0  0  0  0
    8.6071   -8.5677   26.3138 H   0  0  0  0  0  0  0  0  0  0  0  0
    9.0599   -7.3717   25.0851 H   0  0  0  0  0  0  0  0  0  0  0  0
    8.9983    6.7758   24.0295 H   0  0  0  0  0  0  0  0  0  0  0  0
    8.9199    6.8033   22.2351 H   0  0  0  0  0  0  0  0  0  0  0  0
    7.4802    6.3352   23.1748 H   0  0  0  0  0  0  0  0  0  0  0  0
    9.2390    1.1684   24.8466 H   0  0  0  0  0  0  0  0  0  0  0  0
    7.7875    1.1860   23.8742 H   0  0  0  0  0  0  0  0  0  0  0  0
    9.7367   -6.6182   27.3685 H   0  0  0  0  0  0  0  0  0  0  0  0
    8.0564   -6.7633   27.9189 H   0  0  0  0  0  0  0  0  0  0  0  0
   10.6103    0.4565   22.8881 H   0  0  0  0  0  0  0  0  0  0  0  0
    6.8044    0.4388   16.8592 H   0  0  0  0  0  0  0  0  0  0  0  0
    9.9034   -5.4689   25.2194 H   0  0  0  0  0  0  0  0  0  0  0  0
    8.2434   -1.5614   21.0991 H   0  0  0  0  0  0  0  0  0  0  0  0
  1  2  1  0  0  0  0
  1  3  2  0  0  0  0
  2  6  2  0  0  0  0
  3 11  1  0  0  0  0
  4  7  2  0  0  0  0
  4 12  1  0  0  0  0
  5  8  1  0  0  0  0
  5 12  2  0  0  0  0
  6 14  1  0  0  0  0
  7 15  1  0  0  0  0
  8 15  2  0  0  0  0
  9 13  1  0  0  0  0
  9 24  2  0  0  0  0
 10 13  2  0  0  0  0
 10 27  1  0  0  0  0
 11 14  2  0  0  0  0
 11 16  1  0  0  0  0
 12 23  1  0  0  0  0
 13 21  1  0  0  0  0
 14 26  1  0  0  0  0
 15 28  1  0  0  0  0
 16 25  2  0  0  0  0
 16 29  1  0  0  0  0
 17 22  1  0  0  0  0
 17 28  1  0  0  0  0
 17 30  2  0  0  0  0
 18 23  1  0  0  0  0
 18 29  1  0  0  0  0
 18 31  2  0  0  0  0
 19 22  1  0  0  0  0
 20 27  1  0  0  0  0
 21 23  1  6  0  0  0
 24 27  1  0  0  0  0
 25 26  1  0  0  0  0
  1 32  1  0  0  0  0
  2 33  1  0  0  0  0
  3 34  1  0  0  0  0
  4 35  1  0  0  0  0
  5 36  1  0  0  0  0
  6 37  1  0  0  0  0
  7 38  1  0  0  0  0
  8 39  1  0  0  0  0
  9 40  1  0  0  0  0
 10 41  1  0  0  0  0
 19 42  1  0  0  0  0
 19 43  1  0  0  0  0
 19 44  1  0  0  0  0
 20 45  1  0  0  0  0
 20 46  1  0  0  0  0
 20 47  1  0  0  0  0
 21 48  1  0  0  0  0
 21 49  1  0  0  0  0
 22 50  1  0  0  0  0
 22 51  1  0  0  0  0
 23 52  1  0  0  0  0
 26 53  1  0  0  0  0
 28 54  1  0  0  0  0
 29 55  1  0  0  0  0
M  END
> <clash_score>
0.6426261285623064

> <docking_score>
-5.017856597900391

> <overlap_score>
0.8392736911773682

$$$$
BENZO_232_1
  -OEChem-08232013453D

 57 61  0     1  0  0  0  0  0999 V2000
    4.2750    1.7050   20.8490 C   0  0  0  0  0  0  0  0  0  0  0  0
    3.9160    2.0630   19.5520 C   0  0  0  0  0  0  0  0  0  0  0  0
    5.4210    0.9600   21.0930 C   0  0  0  0  0  0  0  0  0  0  0  0
    9.0720   -1.1280   24.8640 C   0  0  0  0  0  0  0  0  0  0  0  0
    9.7200   -2.2600   22.8630 C   0  0  0  0  0  0  0  0  0  0  0  0
    4.6890    1.6810   18.4640 C   0  0  0  0  0  0  0  0  0  0  0  0
    8.9960   -2.3380   25.5320 C   0  0  0  0  0  0  0  0  0  0  0  0
    9.6730   -3.4710   23.5300 C   0  0  0  0  0  0  0  0  0  0  0  0
   10.3203    3.2228   22.7771 C   0  0  0  0  0  0  0  0  0  0  0  0
   10.2891    4.5743   22.5128 C   0  0  0  0  0  0  0  0  0  0  0  0
    8.2246    3.7981   23.6013 C   0  0  0  0  0  0  0  0  0  0  0  0
    6.1790    0.5730   19.9990 C   0  0  0  0  0  0  0  0  0  0  0  0
    9.3350   -1.0880   23.5010 C   0  0  0  0  0  0  0  0  0  0  0  0
    9.1243    2.7729   23.4075 C   0  0  0  0  0  0  0  0  0  0  0  0
    5.8300    0.9190   18.6970 C   0  0  0  0  0  0  0  0  0  0  0  0
    9.3070   -3.5340   24.8780 C   0  0  0  0  0  0  0  0  0  0  0  0
    7.3170   -0.1610   19.8550 C   0  0  0  0  0  0  0  0  0  0  0  0
    9.0420    0.3700   21.5280 C   0  0  0  0  0  0  0  0  0  0  0  0
    8.0667   -7.3160   25.1085 C   0  0  0  0  0  0  0  0  0  0  0  0
    9.3319   -6.8814   24.3649 C   0  0  0  0  0  0  0  0  0  0  0  0
    7.2362   -6.1096   25.5522 C   0  0  0  0  0  0  0  0  0  0  0  0
   10.1245   -5.8640   25.1853 C   0  0  0  0  0  0  0  0  0  0  0  0
    8.0817   -5.1052   26.3413 C   0  0  0  0  0  0  0  0  0  0  0  0
    8.8746    1.3393   23.8158 C   0  0  0  0  0  0  0  0  0  0  0  0
    9.4560    0.1560   22.8130 C   0  0  1  0  0  0  0  0  0  0  0  0
    7.6390   -0.2680   18.5410 N   0  0  0  0  0  0  0  0  0  0  0  0
    6.7580    0.3810   17.8350 N   0  0  0  0  0  0  0  0  0  0  0  0
    9.2563   -4.7384   25.5420 N   0  0  0  0  0  0  0  0  0  0  0  0
    8.1890   -0.7180   20.8700 N   0  0  0  0  0  0  0  0  0  0  0  0
    9.2690    1.4140   20.9380 O   0  0  0  0  0  0  0  0  0  0  0  0
    8.8224    5.2953   23.0240 S   0  0  0  0  0  0  0  0  0  0  0  0
    3.6468    2.0173   21.6825 H   0  0  0  0  0  0  0  0  0  0  0  0
    3.0153    2.6527   19.3907 H   0  0  0  0  0  0  0  0  0  0  0  0
    5.7015    0.6980   22.1071 H   0  0  0  0  0  0  0  0  0  0  0  0
    8.9214   -0.1986   25.4206 H   0  0  0  0  0  0  0  0  0  0  0  0
   10.0622   -2.2326   21.8251 H   0  0  0  0  0  0  0  0  0  0  0  0
    4.4064    1.9744   17.4453 H   0  0  0  0  0  0  0  0  0  0  0  0
    8.6882   -2.3542   26.5803 H   0  0  0  0  0  0  0  0  0  0  0  0
    9.9258   -4.3896   22.9914 H   0  0  0  0  0  0  0  0  0  0  0  0
   11.1634    2.5905   22.5286 H   0  0  0  0  0  0  0  0  0  0  0  0
   11.0576    5.1730   22.0446 H   0  0  0  0  0  0  0  0  0  0  0  0
    7.2445    3.7440   24.0547 H   0  0  0  0  0  0  0  0  0  0  0  0
    7.4598   -7.9634   24.4571 H   0  0  0  0  0  0  0  0  0  0  0  0
    8.3410   -7.9201   25.9853 H   0  0  0  0  0  0  0  0  0  0  0  0
    9.9559   -7.7558   24.1617 H   0  0  0  0  0  0  0  0  0  0  0  0
    9.0580   -6.4449   23.4022 H   0  0  0  0  0  0  0  0  0  0  0  0
    6.8081   -5.6166   24.6732 H   0  0  0  0  0  0  0  0  0  0  0  0
    6.3966   -6.4479   26.1707 H   0  0  0  0  0  0  0  0  0  0  0  0
   10.5035   -6.3556   26.0849 H   0  0  0  0  0  0  0  0  0  0  0  0
   10.9797   -5.5057   24.6053 H   0  0  0  0  0  0  0  0  0  0  0  0
    7.4889   -4.2178   26.5663 H   0  0  0  0  0  0  0  0  0  0  0  0
    8.3867   -5.5668   27.2810 H   0  0  0  0  0  0  0  0  0  0  0  0
    9.2322    1.1871   24.8426 H   0  0  0  0  0  0  0  0  0  0  0  0
    7.7874    1.1856   23.8601 H   0  0  0  0  0  0  0  0  0  0  0  0
   10.6111    0.4645   22.8838 H   0  0  0  0  0  0  0  0  0  0  0  0
    6.8044    0.4388   16.8592 H   0  0  0  0  0  0  0  0  0  0  0  0
    8.2585   -1.5522   21.1129 H   0  0  0  0  0  0  0  0  0  0  0  0
  1  2  1  0  0  0  0
  1  3  2  0  0  0  0
  2  6  2  0  0  0  0
  3 12  1  0  0  0  0
  4  7  2  0  0  0  0
  4 13  1  0  0  0  0
  5  8  1  0  0  0  0
  5 13  2  0  0  0  0
  6 15  1  0  0  0  0
  7 16  1  0  0  0  0
  8 16  2  0  0  0  0
  9 10  2  0  0  0  0
  9 14  1  0  0  0  0
 10 31  1  0  0  0  0
 11 14  2  0  0  0  0
 11 31  1  0  0  0  0
 12 15  2  0  0  0  0
 12 17  1  0  0  0  0
 13 25  1  0  0  0  0
 14 24  1  0  0  0  0
 15 27  1  0  0  0  0
 16 28  1  0  0  0  0
 17 26  2  0  0  0  0
 17 29  1  0  0  0  0
 18 25  1  1  0  0  0
 18 29  1  0  0  0  0
 18 30  2  0  0  0  0
 19 20  1  0  0  0  0
 19 21  1  0  0  0  0
 20 22  1  0  0  0  0
 21 23  1  0  0  0  0
 22 28  1  0  0  0  0
 23 28  1  0  0  0  0
 24 25  1  0  0  0  0
 26 27  1  0  0  0  0
  1 32  1  0  0  0  0
  2 33  1  0  0  0  0
  3 34  1  0  0  0  0
  4 35  1  0  0  0  0
  5 36  1  0  0  0  0
  6 37  1  0  0  0  0
  7 38  1  0  0  0  0
  8 39  1  0  0  0  0
  9 40  1  0  0  0  0
 10 41  1  0  0  0  0
 11 42  1  0  0  0  0
 19 43  1  0  0  0  0
 19 44  1  0  0  0  0
 20 45  1  0  0  0  0
 20 46  1  0  0  0  0
 21 47  1  0  0  0  0
 21 48  1  0  0  0  0
 22 49  1  0  0  0  0
 22 50  1  0  0  0  0
 23 51  1  0  0  0  0
 23 52  1  0  0  0  0
 24 53  1  0  0  0  0
 24 54  1  0  0  0  0
 25 55  1  0  0  0  0
 27 56  1  0  0  0  0
 29 57  1  0  0  0  0
M  END
> <clash_score>
0.6917505343088597

> <docking_score>
-5.248579025268555

> <overlap_score>
0.8607398867607117

$$$$
BENZO_230_1
  -OEChem-08232013453D

 55 58  0     1  0  0  0  0  0999 V2000
    4.2750    1.7050   20.8490 C   0  0  0  0  0  0  0  0  0  0  0  0
    3.9160    2.0630   19.5520 C   0  0  0  0  0  0  0  0  0  0  0  0
   10.2856    4.3750   23.5656 C   0  0  0  0  0  0  0  0  0  0  0  0
    5.4210    0.9600   21.0930 C   0  0  0  0  0  0  0  0  0  0  0  0
   10.1350    2.9887   23.5349 C   0  0  0  0  0  0  0  0  0  0  0  0
    9.0720   -1.1280   24.8640 C   0  0  0  0  0  0  0  0  0  0  0  0
    9.7200   -2.2600   22.8630 C   0  0  0  0  0  0  0  0  0  0  0  0
    4.6890    1.6810   18.4640 C   0  0  0  0  0  0  0  0  0  0  0  0
    8.9960   -2.3380   25.5320 C   0  0  0  0  0  0  0  0  0  0  0  0
    9.6730   -3.4710   23.5300 C   0  0  0  0  0  0  0  0  0  0  0  0
   11.4735    4.9575   23.1236 C   0  0  0  0  0  0  0  0  0  0  0  0
   12.3603    2.7672   22.6205 C   0  0  0  0  0  0  0  0  0  0  0  0
    6.1790    0.5730   19.9990 C   0  0  0  0  0  0  0  0  0  0  0  0
    9.3350   -1.0880   23.5010 C   0  0  0  0  0  0  0  0  0  0  0  0
   11.1723    2.1848   23.0624 C   0  0  0  0  0  0  0  0  0  0  0  0
    5.8300    0.9190   18.6970 C   0  0  0  0  0  0  0  0  0  0  0  0
    9.3070   -3.5340   24.8780 C   0  0  0  0  0  0  0  0  0  0  0  0
   12.5108    4.1536   22.6511 C   0  0  0  0  0  0  0  0  0  0  0  0
    7.3170   -0.1610   19.8550 C   0  0  0  0  0  0  0  0  0  0  0  0
    8.4227   -5.1089   26.6141 C   0  0  0  0  0  0  0  0  0  0  0  0
    9.0420    0.3700   21.5280 C   0  0  0  0  0  0  0  0  0  0  0  0
    8.4173   -7.5520   25.9532 C   0  0  0  0  0  0  0  0  0  0  0  0
   11.0089    0.6825   23.0307 C   0  0  0  0  0  0  0  0  0  0  0  0
    8.6900   -6.5411   27.0525 C   0  0  0  0  0  0  0  0  0  0  0  0
    9.4560    0.1560   22.8130 C   0  0  1  0  0  0  0  0  0  0  0  0
    7.6390   -0.2680   18.5410 N   0  0  0  0  0  0  0  0  0  0  0  0
    6.7580    0.3810   17.8350 N   0  0  0  0  0  0  0  0  0  0  0  0
    9.2546   -4.7423   25.5437 N   0  0  0  0  0  0  0  0  0  0  0  0
    8.1890   -0.7180   20.8700 N   0  0  0  0  0  0  0  0  0  0  0  0
    7.5768   -4.4085   27.1602 O   0  0  0  0  0  0  0  0  0  0  0  0
    9.2690    1.4140   20.9380 O   0  0  0  0  0  0  0  0  0  0  0  0
   13.9766    4.8727   22.1070 Cl  0  0  0  0  0  0  0  0  0  0  0  0
    3.6468    2.0173   21.6825 H   0  0  0  0  0  0  0  0  0  0  0  0
    3.0153    2.6527   19.3907 H   0  0  0  0  0  0  0  0  0  0  0  0
    9.4776    5.0007   23.9337 H   0  0  0  0  0  0  0  0  0  0  0  0
    5.7015    0.6980   22.1071 H   0  0  0  0  0  0  0  0  0  0  0  0
    9.2060    2.5434   23.8814 H   0  0  0  0  0  0  0  0  0  0  0  0
    8.9202   -0.1986   25.4206 H   0  0  0  0  0  0  0  0  0  0  0  0
   10.0631   -2.2319   21.8252 H   0  0  0  0  0  0  0  0  0  0  0  0
    4.4064    1.9744   17.4453 H   0  0  0  0  0  0  0  0  0  0  0  0
    8.6898   -2.3534   26.5810 H   0  0  0  0  0  0  0  0  0  0  0  0
    9.9254   -4.3899   22.9914 H   0  0  0  0  0  0  0  0  0  0  0  0
   11.5769    6.0394   23.1535 H   0  0  0  0  0  0  0  0  0  0  0  0
   13.1659    2.1361   22.2525 H   0  0  0  0  0  0  0  0  0  0  0  0
    7.3765   -7.4970   25.6176 H   0  0  0  0  0  0  0  0  0  0  0  0
    8.6071   -8.5677   26.3138 H   0  0  0  0  0  0  0  0  0  0  0  0
    9.0599   -7.3717   25.0851 H   0  0  0  0  0  0  0  0  0  0  0  0
   11.6011    0.2707   22.2030 H   0  0  0  0  0  0  0  0  0  0  0  0
   11.4624    0.2744   23.9446 H   0  0  0  0  0  0  0  0  0  0  0  0
    9.7367   -6.6182   27.3685 H   0  0  0  0  0  0  0  0  0  0  0  0
    8.0564   -6.7633   27.9189 H   0  0  0  0  0  0  0  0  0  0  0  0
    8.9284    0.9668   23.5149 H   0  0  0  0  0  0  0  0  0  0  0  0
    6.8044    0.4388   16.8592 H   0  0  0  0  0  0  0  0  0  0  0  0
    9.9034   -5.4689   25.2194 H   0  0  0  0  0  0  0  0  0  0  0  0
    8.2434   -1.5614   21.0991 H   0  0  0  0  0  0  0  0  0  0  0  0
  1  2  1  0  0  0  0
  1  4  2  0  0  0  0
  2  8  2  0  0  0  0
  3  5  2  0  0  0  0
  3 11  1  0  0  0  0
  4 13  1  0  0  0  0
  5 15  1  0  0  0  0
  6  9  2  0  0  0  0
  6 14  1  0  0  0  0
  7 10  1  0  0  0  0
  7 14  2  0  0  0  0
  8 16  1  0  0  0  0
  9 17  1  0  0  0  0
 10 17  2  0  0  0  0
 11 18  2  0  0  0  0
 12 15  2  0  0  0  0
 12 18  1  0  0  0  0
 13 16  2  0  0  0  0
 13 19  1  0  0  0  0
 14 25  1  0  0  0  0
 15 23  1  0  0  0  0
 16 27  1  0  0  0  0
 17 28  1  0  0  0  0
 18 32  1  0  0  0  0
 19 26  2  0  0  0  0
 19 29  1  0  0  0  0
 20 24  1  0  0  0  0
 20 28  1  0  0  0  0
 20 30  2  0  0  0  0
 21 25  1  0  0  0  0
 21 29  1  0  0  0  0
 21 31  2  0  0  0  0
 22 24  1  0  0  0  0
 23 25  1  1  0  0  0
 26 27  1  0  0  0  0
  1 33  1  0  0  0  0
  2 34  1  0  0  0  0
  3 35  1  0  0  0  0
  4 36  1  0  0  0  0
  5 37  1  0  0  0  0
  6 38  1  0  0  0  0
  7 39  1  0  0  0  0
  8 40  1  0  0  0  0
  9 41  1  0  0  0  0
 10 42  1  0  0  0  0
 11 43  1  0  0  0  0
 12 44  1  0  0  0  0
 22 45  1  0  0  0  0
 22 46  1  0  0  0  0
 22 47  1  0  0  0  0
 23 48  1  0  0  0  0
 23 49  1  0  0  0  0
 24 50  1  0  0  0  0
 24 51  1  0  0  0  0
 25 52  1  0  0  0  0
 27 53  1  0  0  0  0
 28 54  1  0  0  0  0
 29 55  1  0  0  0  0
M  END
> <clash_score>
0.6426261285623064

> <docking_score>
-9.197263717651367

> <overlap_score>
0.9330189824104309

$$$$
BENZO_233_2
  -OEChem-08232013453D

 60 64  0     1  0  0  0  0  0999 V2000
   11.4754    4.9665   23.0809 C   0  0  0  0  0  0  0  0  0  0  0  0
    4.2750    1.7050   20.8490 C   0  0  0  0  0  0  0  0  0  0  0  0
   12.5125    4.1581   22.6155 C   0  0  0  0  0  0  0  0  0  0  0  0
   10.2875    4.3882   23.5284 C   0  0  0  0  0  0  0  0  0  0  0  0
    3.9160    2.0630   19.5520 C   0  0  0  0  0  0  0  0  0  0  0  0
    5.4210    0.9600   21.0930 C   0  0  0  0  0  0  0  0  0  0  0  0
   12.3617    2.7716   22.5975 C   0  0  0  0  0  0  0  0  0  0  0  0
   10.1367    3.0017   23.5105 C   0  0  0  0  0  0  0  0  0  0  0  0
    9.0720   -1.1280   24.8640 C   0  0  0  0  0  0  0  0  0  0  0  0
    9.7200   -2.2600   22.8630 C   0  0  0  0  0  0  0  0  0  0  0  0
    4.6890    1.6810   18.4640 C   0  0  0  0  0  0  0  0  0  0  0  0
    8.9960   -2.3380   25.5320 C   0  0  0  0  0  0  0  0  0  0  0  0
    9.6730   -3.4710   23.5300 C   0  0  0  0  0  0  0  0  0  0  0  0
    6.1790    0.5730   19.9990 C   0  0  0  0  0  0  0  0  0  0  0  0
   11.1738    2.1933   23.0450 C   0  0  0  0  0  0  0  0  0  0  0  0
    9.3350   -1.0880   23.5010 C   0  0  0  0  0  0  0  0  0  0  0  0
    5.8300    0.9190   18.6970 C   0  0  0  0  0  0  0  0  0  0  0  0
    9.3070   -3.5340   24.8780 C   0  0  0  0  0  0  0  0  0  0  0  0
    7.3170   -0.1610   19.8550 C   0  0  0  0  0  0  0  0  0  0  0  0
    9.0420    0.3700   21.5280 C   0  0  0  0  0  0  0  0  0  0  0  0
    7.3637   -6.1365   27.1885 C   0  0  0  0  0  0  0  0  0  0  0  0
    8.1962   -4.9739   27.7340 C   0  0  0  0  0  0  0  0  0  0  0  0
    7.1943   -6.0395   25.6706 C   0  0  0  0  0  0  0  0  0  0  0  0
    9.5197   -4.8493   26.9795 C   0  0  0  0  0  0  0  0  0  0  0  0
    8.5443   -5.8838   24.9636 C   0  0  0  0  0  0  0  0  0  0  0  0
   11.0096    0.6909   23.0256 C   0  0  0  0  0  0  0  0  0  0  0  0
    9.4560    0.1560   22.8130 C   0  0  2  0  0  0  0  0  0  0  0  0
    7.6390   -0.2680   18.5410 N   0  0  0  0  0  0  0  0  0  0  0  0
    6.7580    0.3810   17.8350 N   0  0  0  0  0  0  0  0  0  0  0  0
    9.2563   -4.7385   25.5420 N   0  0  0  0  0  0  0  0  0  0  0  0
    8.1890   -0.7180   20.8700 N   0  0  0  0  0  0  0  0  0  0  0  0
    9.2690    1.4140   20.9380 O   0  0  0  0  0  0  0  0  0  0  0  0
   11.5935    6.0460   23.0961 H   0  0  0  0  0  0  0  0  0  0  0  0
    3.6468    2.0173   21.6825 H   0  0  0  0  0  0  0  0  0  0  0  0
   13.4379    4.6081   22.2680 H   0  0  0  0  0  0  0  0  0  0  0  0
    9.4802    5.0172   23.8919 H   0  0  0  0  0  0  0  0  0  0  0  0
    3.0153    2.6527   19.3907 H   0  0  0  0  0  0  0  0  0  0  0  0
    5.7015    0.6980   22.1071 H   0  0  0  0  0  0  0  0  0  0  0  0
   13.1750    2.1496   22.2330 H   0  0  0  0  0  0  0  0  0  0  0  0
    9.2076    2.5600   23.8610 H   0  0  0  0  0  0  0  0  0  0  0  0
    8.9214   -0.1986   25.4206 H   0  0  0  0  0  0  0  0  0  0  0  0
   10.0622   -2.2326   21.8251 H   0  0  0  0  0  0  0  0  0  0  0  0
    4.4064    1.9744   17.4453 H   0  0  0  0  0  0  0  0  0  0  0  0
    8.6882   -2.3542   26.5803 H   0  0  0  0  0  0  0  0  0  0  0  0
    9.9258   -4.3896   22.9914 H   0  0  0  0  0  0  0  0  0  0  0  0
    7.8484   -7.0905   27.4464 H   0  0  0  0  0  0  0  0  0  0  0  0
    6.3761   -6.1442   27.6721 H   0  0  0  0  0  0  0  0  0  0  0  0
    7.6308   -4.0428   27.6404 H   0  0  0  0  0  0  0  0  0  0  0  0
    8.3917   -5.1316   28.7967 H   0  0  0  0  0  0  0  0  0  0  0  0
    6.6889   -6.9376   25.3006 H   0  0  0  0  0  0  0  0  0  0  0  0
    6.5516   -5.1860   25.4256 H   0  0  0  0  0  0  0  0  0  0  0  0
   10.0494   -3.9643   27.3413 H   0  0  0  0  0  0  0  0  0  0  0  0
   10.1432   -5.7258   27.1775 H   0  0  0  0  0  0  0  0  0  0  0  0
    9.1338   -6.7931   25.0863 H   0  0  0  0  0  0  0  0  0  0  0  0
    8.3657   -5.7262   23.8995 H   0  0  0  0  0  0  0  0  0  0  0  0
   11.6022    0.2720   22.2019 H   0  0  0  0  0  0  0  0  0  0  0  0
   11.4622    0.2902   23.9433 H   0  0  0  0  0  0  0  0  0  0  0  0
    8.9292    0.9747   23.5105 H   0  0  0  0  0  0  0  0  0  0  0  0
    6.8044    0.4388   16.8592 H   0  0  0  0  0  0  0  0  0  0  0  0
    8.2585   -1.5522   21.1129 H   0  0  0  0  0  0  0  0  0  0  0  0
  1  3  1  0  0  0  0
  1  4  2  0  0  0  0
  2  5  1  0  0  0  0
  2  6  2  0  0  0  0
  3  7  2  0  0  0  0
  4  8  1  0  0  0  0
  5 11  2  0  0  0  0
  6 14  1  0  0  0  0
  7 15  1  0  0  0  0
  8 15  2  0  0  0  0
  9 12  2  0  0  0  0
  9 16  1  0  0  0  0
 10 13  1  0  0  0  0
 10 16  2  0  0  0  0
 11 17  1  0  0  0  0
 12 18  1  0  0  0  0
 13 18  2  0  0  0  0
 14 17  2  0  0  0  0
 14 19  1  0  0  0  0
 15 26  1  0  0  0  0
 16 27  1  0  0  0  0
 17 29  1  0  0  0  0
 18 30  1  0  0  0  0
 19 28  2  0  0  0  0
 19 31  1  0  0  0  0
 20 27  1  6  0  0  0
 20 31  1  0  0  0  0
 20 32  2  0  0  0  0
 21 22  1  0  0  0  0
 21 23  1  0  0  0  0
 22 24  1  0  0  0  0
 23 25  1  0  0  0  0
 24 30  1  0  0  0  0
 25 30  1  0  0  0  0
 26 27  1  0  0  0  0
 28 29  1  0  0  0  0
  1 33  1  0  0  0  0
  2 34  1  0  0  0  0
  3 35  1  0  0  0  0
  4 36  1  0  0  0  0
  5 37  1  0  0  0  0
  6 38  1  0  0  0  0
  7 39  1  0  0  0  0
  8 40  1  0  0  0  0
  9 41  1  0  0  0  0
 10 42  1  0  0  0  0
 11 43  1  0  0  0  0
 12 44  1  0  0  0  0
 13 45  1  0  0  0  0
 21 46  1  0  0  0  0
 21 47  1  0  0  0  0
 22 48  1  0  0  0  0
 22 49  1  0  0  0  0
 23 50  1  0  0  0  0
 23 51  1  0  0  0  0
 24 52  1  0  0  0  0
 24 53  1  0  0  0  0
 25 54  1  0  0  0  0
 25 55  1  0  0  0  0
 26 56  1  0  0  0  0
 26 57  1  0  0  0  0
 27 58  1  0  0  0  0
 29 59  1  0  0  0  0
 31 60  1  0  0  0  0
M  END
> <clash_score>
0

> <docking_score>
-9.465851783752441

> <overlap_score>
0.9432650208473206

$$$$
BENZO_232_2
  -OEChem-08232013453D

 57 61  0     1  0  0  0  0  0999 V2000
    4.2750    1.7050   20.8490 C   0  0  0  0  0  0  0  0  0  0  0  0
    3.9160    2.0630   19.5520 C   0  0  0  0  0  0  0  0  0  0  0  0
    5.4210    0.9600   21.0930 C   0  0  0  0  0  0  0  0  0  0  0  0
    9.0720   -1.1280   24.8640 C   0  0  0  0  0  0  0  0  0  0  0  0
    9.7200   -2.2600   22.8630 C   0  0  0  0  0  0  0  0  0  0  0  0
    4.6890    1.6810   18.4640 C   0  0  0  0  0  0  0  0  0  0  0  0
    8.9960   -2.3380   25.5320 C   0  0  0  0  0  0  0  0  0  0  0  0
    9.6730   -3.4710   23.5300 C   0  0  0  0  0  0  0  0  0  0  0  0
   11.9814    2.9163   22.1204 C   0  0  0  0  0  0  0  0  0  0  0  0
   11.9562    4.2724   22.3613 C   0  0  0  0  0  0  0  0  0  0  0  0
   10.5621    3.0244   23.9578 C   0  0  0  0  0  0  0  0  0  0  0  0
    6.1790    0.5730   19.9990 C   0  0  0  0  0  0  0  0  0  0  0  0
    9.3350   -1.0880   23.5010 C   0  0  0  0  0  0  0  0  0  0  0  0
   11.1738    2.1933   23.0450 C   0  0  0  0  0  0  0  0  0  0  0  0
    5.8300    0.9190   18.6970 C   0  0  0  0  0  0  0  0  0  0  0  0
    9.3070   -3.5340   24.8780 C   0  0  0  0  0  0  0  0  0  0  0  0
    7.3170   -0.1610   19.8550 C   0  0  0  0  0  0  0  0  0  0  0  0
    9.0420    0.3700   21.5280 C   0  0  0  0  0  0  0  0  0  0  0  0
    7.3637   -6.1365   27.1885 C   0  0  0  0  0  0  0  0  0  0  0  0
    8.1962   -4.9739   27.7340 C   0  0  0  0  0  0  0  0  0  0  0  0
    7.1943   -6.0395   25.6706 C   0  0  0  0  0  0  0  0  0  0  0  0
    9.5197   -4.8493   26.9795 C   0  0  0  0  0  0  0  0  0  0  0  0
    8.5443   -5.8838   24.9636 C   0  0  0  0  0  0  0  0  0  0  0  0
   11.0096    0.6909   23.0256 C   0  0  0  0  0  0  0  0  0  0  0  0
    9.4560    0.1560   22.8130 C   0  0  2  0  0  0  0  0  0  0  0  0
    7.6390   -0.2680   18.5410 N   0  0  0  0  0  0  0  0  0  0  0  0
    6.7580    0.3810   17.8350 N   0  0  0  0  0  0  0  0  0  0  0  0
    9.2563   -4.7385   25.5420 N   0  0  0  0  0  0  0  0  0  0  0  0
    8.1890   -0.7180   20.8700 N   0  0  0  0  0  0  0  0  0  0  0  0
    9.2690    1.4140   20.9380 O   0  0  0  0  0  0  0  0  0  0  0  0
   10.9619    4.6690   23.6979 S   0  0  0  0  0  0  0  0  0  0  0  0
    3.6468    2.0173   21.6825 H   0  0  0  0  0  0  0  0  0  0  0  0
    3.0153    2.6527   19.3907 H   0  0  0  0  0  0  0  0  0  0  0  0
    5.7015    0.6980   22.1071 H   0  0  0  0  0  0  0  0  0  0  0  0
    8.9214   -0.1986   25.4206 H   0  0  0  0  0  0  0  0  0  0  0  0
   10.0622   -2.2326   21.8251 H   0  0  0  0  0  0  0  0  0  0  0  0
    4.4064    1.9744   17.4453 H   0  0  0  0  0  0  0  0  0  0  0  0
    8.6882   -2.3542   26.5803 H   0  0  0  0  0  0  0  0  0  0  0  0
    9.9258   -4.3896   22.9914 H   0  0  0  0  0  0  0  0  0  0  0  0
   12.5539    2.4685   21.3179 H   0  0  0  0  0  0  0  0  0  0  0  0
   12.4745    5.0491   21.8170 H   0  0  0  0  0  0  0  0  0  0  0  0
    9.9000    2.7485   24.7669 H   0  0  0  0  0  0  0  0  0  0  0  0
    7.8484   -7.0905   27.4464 H   0  0  0  0  0  0  0  0  0  0  0  0
    6.3761   -6.1442   27.6721 H   0  0  0  0  0  0  0  0  0  0  0  0
    7.6308   -4.0428   27.6404 H   0  0  0  0  0  0  0  0  0  0  0  0
    8.3917   -5.1316   28.7967 H   0  0  0  0  0  0  0  0  0  0  0  0
    6.6889   -6.9376   25.3006 H   0  0  0  0  0  0  0  0  0  0  0  0
    6.5516   -5.1860   25.4256 H   0  0  0  0  0  0  0  0  0  0  0  0
   10.0494   -3.9643   27.3413 H   0  0  0  0  0  0  0  0  0  0  0  0
   10.1432   -5.7258   27.1775 H   0  0  0  0  0  0  0  0  0  0  0  0
    9.1338   -6.7931   25.0863 H   0  0  0  0  0  0  0  0  0  0  0  0
    8.3657   -5.7262   23.8995 H   0  0  0  0  0  0  0  0  0  0  0  0
   11.6022    0.2720   22.2019 H   0  0  0  0  0  0  0  0  0  0  0  0
   11.4622    0.2902   23.9433 H   0  0  0  0  0  0  0  0  0  0  0  0
    8.9292    0.9747   23.5105 H   0  0  0  0  0  0  0  0  0  0  0  0
    6.8044    0.4388   16.8592 H   0  0  0  0  0  0  0  0  0  0  0  0
    8.2585   -1.5522   21.1129 H   0  0  0  0  0  0  0  0  0  0  0  0
  1  2  1  0  0  0  0
  1  3  2  0  0  0  0
  2  6  2  0  0  0  0
  3 12  1  0  0  0  0
  4  7  2  0  0  0  0
  4 13  1  0  0  0  0
  5  8  1  0  0  0  0
  5 13  2  0  0  0  0
  6 15  1  0  0  0  0
  7 16  1  0  0  0  0
  8 16  2  0  0  0  0
  9 10  2  0  0  0  0
  9 14  1  0  0  0  0
 10 31  1  0  0  0  0
 11 14  2  0  0  0  0
 11 31  1  0  0  0  0
 12 15  2  0  0  0  0
 12 17  1  0  0  0  0
 13 25  1  0  0  0  0
 14 24  1  0  0  0  0
 15 27  1  0  0  0  0
 16 28  1  0  0  0  0
 17 26  2  0  0  0  0
 17 29  1  0  0  0  0
 18 25  1  6  0  0  0
 18 29  1  0  0  0  0
 18 30  2  0  0  0  0
 19 20  1  0  0  0  0
 19 21  1  0  0  0  0
 20 22  1  0  0  0  0
 21 23  1  0  0  0  0
 22 28  1  0  0  0  0
 23 28  1  0  0  0  0
 24 25  1  0  0  0  0
 26 27  1  0  0  0  0
  1 32  1  0  0  0  0
  2 33  1  0  0  0  0
  3 34  1  0  0  0  0
  4 35  1  0  0  0  0
  5 36  1  0  0  0  0
  6 37  1  0  0  0  0
  7 38  1  0  0  0  0
  8 39  1  0  0  0  0
  9 40  1  0  0  0  0
 10 41  1  0  0  0  0
 11 42  1  0  0  0  0
 19 43  1  0  0  0  0
 19 44  1  0  0  0  0
 20 45  1  0  0  0  0
 20 46  1  0  0  0  0
 21 47  1  0  0  0  0
 21 48  1  0  0  0  0
 22 49  1  0  0  0  0
 22 50  1  0  0  0  0
 23 51  1  0  0  0  0
 23 52  1  0  0  0  0
 24 53  1  0  0  0  0
 24 54  1  0  0  0  0
 25 55  1  0  0  0  0
 27 56  1  0  0  0  0
 29 57  1  0  0  0  0
M  END
> <clash_score>
0

> <docking_score>
-8.523859024047852

> <overlap_score>
0.930773138999939

$$$$
BENZO_231_1
  -OEChem-08232013453D

 55 58  0     1  0  0  0  0  0999 V2000
    4.2750    1.7050   20.8490 C   0  0  0  0  0  0  0  0  0  0  0  0
    3.9160    2.0630   19.5520 C   0  0  0  0  0  0  0  0  0  0  0  0
    5.4210    0.9600   21.0930 C   0  0  0  0  0  0  0  0  0  0  0  0
    9.0720   -1.1280   24.8640 C   0  0  0  0  0  0  0  0  0  0  0  0
    9.7200   -2.2600   22.8630 C   0  0  0  0  0  0  0  0  0  0  0  0
    4.6890    1.6810   18.4640 C   0  0  0  0  0  0  0  0  0  0  0  0
    8.9960   -2.3380   25.5320 C   0  0  0  0  0  0  0  0  0  0  0  0
    9.6730   -3.4710   23.5300 C   0  0  0  0  0  0  0  0  0  0  0  0
   10.2428    3.1457   23.5034 C   0  0  0  0  0  0  0  0  0  0  0  0
   12.2645    2.9188   22.6690 C   0  0  0  0  0  0  0  0  0  0  0  0
    6.1790    0.5730   19.9990 C   0  0  0  0  0  0  0  0  0  0  0  0
    9.3350   -1.0880   23.5010 C   0  0  0  0  0  0  0  0  0  0  0  0
   11.1723    2.1848   23.0624 C   0  0  0  0  0  0  0  0  0  0  0  0
    5.8300    0.9190   18.6970 C   0  0  0  0  0  0  0  0  0  0  0  0
    9.3070   -3.5340   24.8780 C   0  0  0  0  0  0  0  0  0  0  0  0
    7.3170   -0.1610   19.8550 C   0  0  0  0  0  0  0  0  0  0  0  0
    8.4227   -5.1089   26.6141 C   0  0  0  0  0  0  0  0  0  0  0  0
    9.0420    0.3700   21.5280 C   0  0  0  0  0  0  0  0  0  0  0  0
    8.4173   -7.5520   25.9532 C   0  0  0  0  0  0  0  0  0  0  0  0
   12.7694    5.3728   22.6294 C   0  0  0  0  0  0  0  0  0  0  0  0
   11.0089    0.6825   23.0307 C   0  0  0  0  0  0  0  0  0  0  0  0
    8.6900   -6.5411   27.0525 C   0  0  0  0  0  0  0  0  0  0  0  0
    9.4560    0.1560   22.8130 C   0  0  1  0  0  0  0  0  0  0  0  0
   10.7043    4.3948   23.4002 N   0  0  0  0  0  0  0  0  0  0  0  0
    7.6390   -0.2680   18.5410 N   0  0  0  0  0  0  0  0  0  0  0  0
    6.7580    0.3810   17.8350 N   0  0  0  0  0  0  0  0  0  0  0  0
   11.9358    4.2239   22.8900 N   0  0  0  0  0  0  0  0  0  0  0  0
    9.2546   -4.7423   25.5437 N   0  0  0  0  0  0  0  0  0  0  0  0
    8.1890   -0.7180   20.8700 N   0  0  0  0  0  0  0  0  0  0  0  0
    7.5768   -4.4085   27.1602 O   0  0  0  0  0  0  0  0  0  0  0  0
    9.2690    1.4140   20.9380 O   0  0  0  0  0  0  0  0  0  0  0  0
    3.6468    2.0173   21.6825 H   0  0  0  0  0  0  0  0  0  0  0  0
    3.0153    2.6527   19.3907 H   0  0  0  0  0  0  0  0  0  0  0  0
    5.7015    0.6980   22.1071 H   0  0  0  0  0  0  0  0  0  0  0  0
    8.9202   -0.1986   25.4206 H   0  0  0  0  0  0  0  0  0  0  0  0
   10.0631   -2.2319   21.8252 H   0  0  0  0  0  0  0  0  0  0  0  0
    4.4064    1.9744   17.4453 H   0  0  0  0  0  0  0  0  0  0  0  0
    8.6898   -2.3534   26.5810 H   0  0  0  0  0  0  0  0  0  0  0  0
    9.9254   -4.3899   22.9914 H   0  0  0  0  0  0  0  0  0  0  0  0
    9.2482    2.9901   23.8969 H   0  0  0  0  0  0  0  0  0  0  0  0
   13.2243    2.6307   22.2620 H   0  0  0  0  0  0  0  0  0  0  0  0
    7.3765   -7.4970   25.6176 H   0  0  0  0  0  0  0  0  0  0  0  0
    8.6071   -8.5677   26.3138 H   0  0  0  0  0  0  0  0  0  0  0  0
    9.0599   -7.3717   25.0851 H   0  0  0  0  0  0  0  0  0  0  0  0
   12.5744    5.7060   21.6066 H   0  0  0  0  0  0  0  0  0  0  0  0
   12.5290    6.1664   23.3423 H   0  0  0  0  0  0  0  0  0  0  0  0
   13.8196    5.0915   22.7473 H   0  0  0  0  0  0  0  0  0  0  0  0
   11.6011    0.2707   22.2030 H   0  0  0  0  0  0  0  0  0  0  0  0
   11.4624    0.2744   23.9446 H   0  0  0  0  0  0  0  0  0  0  0  0
    9.7367   -6.6182   27.3685 H   0  0  0  0  0  0  0  0  0  0  0  0
    8.0564   -6.7633   27.9189 H   0  0  0  0  0  0  0  0  0  0  0  0
    8.9284    0.9668   23.5149 H   0  0  0  0  0  0  0  0  0  0  0  0
    6.8044    0.4388   16.8592 H   0  0  0  0  0  0  0  0  0  0  0  0
    9.9034   -5.4689   25.2194 H   0  0  0  0  0  0  0  0  0  0  0  0
    8.2434   -1.5614   21.0991 H   0  0  0  0  0  0  0  0  0  0  0  0
  1  2  1  0  0  0  0
  1  3  2  0  0  0  0
  2  6  2  0  0  0  0
  3 11  1  0  0  0  0
  4  7  2  0  0  0  0
  4 12  1  0  0  0  0
  5  8  1  0  0  0  0
  5 12  2  0  0  0  0
  6 14  1  0  0  0  0
  7 15  1  0  0  0  0
  8 15  2  0  0  0  0
  9 13  1  0  0  0  0
  9 24  2  0  0  0  0
 10 13  2  0  0  0  0
 10 27  1  0  0  0  0
 11 14  2  0  0  0  0
 11 16  1  0  0  0  0
 12 23  1  0  0  0  0
 13 21  1  0  0  0  0
 14 26  1  0  0  0  0
 15 28  1  0  0  0  0
 16 25  2  0  0  0  0
 16 29  1  0  0  0  0
 17 22  1  0  0  0  0
 17 28  1  0  0  0  0
 17 30  2  0  0  0  0
 18 23  1  0  0  0  0
 18 29  1  0  0  0  0
 18 31  2  0  0  0  0
 19 22  1  0  0  0  0
 20 27  1  0  0  0  0
 21 23  1  1  0  0  0
 24 27  1  0  0  0  0
 25 26  1  0  0  0  0
  1 32  1  0  0  0  0
  2 33  1  0  0  0  0
  3 34  1  0  0  0  0
  4 35  1  0  0  0  0
  5 36  1  0  0  0  0
  6 37  1  0  0  0  0
  7 38  1  0  0  0  0
  8 39  1  0  0  0  0
  9 40  1  0  0  0  0
 10 41  1  0  0  0  0
 19 42  1  0  0  0  0
 19 43  1  0  0  0  0
 19 44  1  0  0  0  0
 20 45  1  0  0  0  0
 20 46  1  0  0  0  0
 20 47  1  0  0  0  0
 21 48  1  0  0  0  0
 21 49  1  0  0  0  0
 22 50  1  0  0  0  0
 22 51  1  0  0  0  0
 23 52  1  0  0  0  0
 26 53  1  0  0  0  0
 28 54  1  0  0  0  0
 29 55  1  0  0  0  0
M  END
> <clash_score>
0.6426261285623064

> <docking_score>
-8.659941673278809

> <overlap_score>
0.9281452298164368

$$$$
BENZO_237_1
  -OEChem-08232013453D

 48 51  0     1  0  0  0  0  0999 V2000
   11.4726    4.9577   23.1210 C   0  0  0  0  0  0  0  0  0  0  0  0
    4.2750    1.7050   20.8490 C   0  0  0  0  0  0  0  0  0  0  0  0
   12.5103    4.1537   22.6496 C   0  0  0  0  0  0  0  0  0  0  0  0
   10.2847    4.3752   23.5633 C   0  0  0  0  0  0  0  0  0  0  0  0
    3.9160    2.0630   19.5520 C   0  0  0  0  0  0  0  0  0  0  0  0
    5.4210    0.9600   21.0930 C   0  0  0  0  0  0  0  0  0  0  0  0
   12.3602    2.7672   22.6203 C   0  0  0  0  0  0  0  0  0  0  0  0
   10.1346    2.9888   23.5339 C   0  0  0  0  0  0  0  0  0  0  0  0
    8.9960   -2.3380   25.5320 C   0  0  0  0  0  0  0  0  0  0  0  0
    9.6730   -3.4710   23.5300 C   0  0  0  0  0  0  0  0  0  0  0  0
    9.0720   -1.1280   24.8640 C   0  0  0  0  0  0  0  0  0  0  0  0
    9.7200   -2.2600   22.8630 C   0  0  0  0  0  0  0  0  0  0  0  0
    4.6890    1.6810   18.4640 C   0  0  0  0  0  0  0  0  0  0  0  0
    6.1790    0.5730   19.9990 C   0  0  0  0  0  0  0  0  0  0  0  0
    9.3070   -3.5340   24.8780 C   0  0  0  0  0  0  0  0  0  0  0  0
   11.1723    2.1848   23.0624 C   0  0  0  0  0  0  0  0  0  0  0  0
    9.3350   -1.0880   23.5010 C   0  0  0  0  0  0  0  0  0  0  0  0
    5.8300    0.9190   18.6970 C   0  0  0  0  0  0  0  0  0  0  0  0
    7.3170   -0.1610   19.8550 C   0  0  0  0  0  0  0  0  0  0  0  0
    9.0420    0.3700   21.5280 C   0  0  0  0  0  0  0  0  0  0  0  0
    9.2507   -4.8268   25.5895 C   0  0  0  0  0  0  0  0  0  0  0  0
   11.0089    0.6825   23.0307 C   0  0  0  0  0  0  0  0  0  0  0  0
    9.4560    0.1560   22.8130 C   0  0  1  0  0  0  0  0  0  0  0  0
    7.6390   -0.2680   18.5410 N   0  0  0  0  0  0  0  0  0  0  0  0
    6.7580    0.3810   17.8350 N   0  0  0  0  0  0  0  0  0  0  0  0
    8.1890   -0.7180   20.8700 N   0  0  0  0  0  0  0  0  0  0  0  0
    9.2690    1.4140   20.9380 O   0  0  0  0  0  0  0  0  0  0  0  0
   11.5901    6.0371   23.1451 H   0  0  0  0  0  0  0  0  0  0  0  0
    3.6468    2.0173   21.6825 H   0  0  0  0  0  0  0  0  0  0  0  0
   13.4357    4.6069   22.3063 H   0  0  0  0  0  0  0  0  0  0  0  0
    9.4770    5.0009   23.9314 H   0  0  0  0  0  0  0  0  0  0  0  0
    3.0153    2.6527   19.3907 H   0  0  0  0  0  0  0  0  0  0  0  0
    5.7015    0.6980   22.1071 H   0  0  0  0  0  0  0  0  0  0  0  0
   13.1740    2.1486   22.2511 H   0  0  0  0  0  0  0  0  0  0  0  0
    9.2056    2.5438   23.8803 H   0  0  0  0  0  0  0  0  0  0  0  0
    8.6904   -2.3557   26.5808 H   0  0  0  0  0  0  0  0  0  0  0  0
    9.9249   -4.3911   22.9935 H   0  0  0  0  0  0  0  0  0  0  0  0
    8.9209   -0.1987   25.4207 H   0  0  0  0  0  0  0  0  0  0  0  0
   10.0640   -2.2315   21.8255 H   0  0  0  0  0  0  0  0  0  0  0  0
    4.4064    1.9744   17.4453 H   0  0  0  0  0  0  0  0  0  0  0  0
    8.2506   -5.2684   25.5009 H   0  0  0  0  0  0  0  0  0  0  0  0
    9.9820   -5.5375   25.1832 H   0  0  0  0  0  0  0  0  0  0  0  0
    9.4843   -4.7055   26.6554 H   0  0  0  0  0  0  0  0  0  0  0  0
   11.6011    0.2707   22.2030 H   0  0  0  0  0  0  0  0  0  0  0  0
   11.4624    0.2744   23.9446 H   0  0  0  0  0  0  0  0  0  0  0  0
    8.9284    0.9668   23.5149 H   0  0  0  0  0  0  0  0  0  0  0  0
    6.8044    0.4388   16.8592 H   0  0  0  0  0  0  0  0  0  0  0  0
    8.2434   -1.5614   21.0991 H   0  0  0  0  0  0  0  0  0  0  0  0
  1  3  1  0  0  0  0
  1  4  2  0  0  0  0
  2  5  1  0  0  0  0
  2  6  2  0  0  0  0
  3  7  2  0  0  0  0
  4  8  1  0  0  0  0
  5 13  2  0  0  0  0
  6 14  1  0  0  0  0
  7 16  1  0  0  0  0
  8 16  2  0  0  0  0
  9 11  2  0  0  0  0
  9 15  1  0  0  0  0
 10 12  1  0  0  0  0
 10 15  2  0  0  0  0
 11 17  1  0  0  0  0
 12 17  2  0  0  0  0
 13 18  1  0  0  0  0
 14 18  2  0  0  0  0
 14 19  1  0  0  0  0
 15 21  1  0  0  0  0
 16 22  1  0  0  0  0
 17 23  1  0  0  0  0
 18 25  1  0  0  0  0
 19 24  2  0  0  0  0
 19 26  1  0  0  0  0
 20 23  1  0  0  0  0
 20 26  1  0  0  0  0
 20 27  2  0  0  0  0
 22 23  1  1  0  0  0
 24 25  1  0  0  0  0
  1 28  1  0  0  0  0
  2 29  1  0  0  0  0
  3 30  1  0  0  0  0
  4 31  1  0  0  0  0
  5 32  1  0  0  0  0
  6 33  1  0  0  0  0
  7 34  1  0  0  0  0
  8 35  1  0  0  0  0
  9 36  1  0  0  0  0
 10 37  1  0  0  0  0
 11 38  1  0  0  0  0
 12 39  1  0  0  0  0
 13 40  1  0  0  0  0
 21 41  1  0  0  0  0
 21 42  1  0  0  0  0
 21 43  1  0  0  0  0
 22 44  1  0  0  0  0
 22 45  1  0  0  0  0
 23 46  1  0  0  0  0
 25 47  1  0  0  0  0
 26 48  1  0  0  0  0
M  END
> <clash_score>
0

> <docking_score>
-9.771720886230469

> <overlap_score>
0.8897682428359985

$$$$
BENZO_237_2
  -OEChem-08232013453D

 48 51  0     1  0  0  0  0  0999 V2000
    9.6170    5.4099   22.6808 C   0  0  0  0  0  0  0  0  0  0  0  0
    4.2750    1.7050   20.8490 C   0  0  0  0  0  0  0  0  0  0  0  0
    8.4752    5.0878   23.4143 C   0  0  0  0  0  0  0  0  0  0  0  0
   10.5182    4.4090   22.3177 C   0  0  0  0  0  0  0  0  0  0  0  0
    3.9160    2.0630   19.5520 C   0  0  0  0  0  0  0  0  0  0  0  0
    5.4210    0.9600   21.0930 C   0  0  0  0  0  0  0  0  0  0  0  0
    8.2345    3.7648   23.7849 C   0  0  0  0  0  0  0  0  0  0  0  0
   10.2775    3.0860   22.6883 C   0  0  0  0  0  0  0  0  0  0  0  0
    8.9960   -2.3380   25.5320 C   0  0  0  0  0  0  0  0  0  0  0  0
    9.6730   -3.4710   23.5300 C   0  0  0  0  0  0  0  0  0  0  0  0
    9.0720   -1.1280   24.8640 C   0  0  0  0  0  0  0  0  0  0  0  0
    9.7200   -2.2600   22.8630 C   0  0  0  0  0  0  0  0  0  0  0  0
    4.6890    1.6810   18.4640 C   0  0  0  0  0  0  0  0  0  0  0  0
    6.1790    0.5730   19.9990 C   0  0  0  0  0  0  0  0  0  0  0  0
    9.3070   -3.5340   24.8780 C   0  0  0  0  0  0  0  0  0  0  0  0
    9.1357    2.7638   23.4219 C   0  0  0  0  0  0  0  0  0  0  0  0
    9.3350   -1.0880   23.5010 C   0  0  0  0  0  0  0  0  0  0  0  0
    5.8300    0.9190   18.6970 C   0  0  0  0  0  0  0  0  0  0  0  0
    7.3170   -0.1610   19.8550 C   0  0  0  0  0  0  0  0  0  0  0  0
    9.0420    0.3700   21.5280 C   0  0  0  0  0  0  0  0  0  0  0  0
    9.2507   -4.8268   25.5895 C   0  0  0  0  0  0  0  0  0  0  0  0
    8.8757    1.3301   23.8233 C   0  0  0  0  0  0  0  0  0  0  0  0
    9.4560    0.1560   22.8130 C   0  0  2  0  0  0  0  0  0  0  0  0
    7.6390   -0.2680   18.5410 N   0  0  0  0  0  0  0  0  0  0  0  0
    6.7580    0.3810   17.8350 N   0  0  0  0  0  0  0  0  0  0  0  0
    8.1890   -0.7180   20.8700 N   0  0  0  0  0  0  0  0  0  0  0  0
    9.2690    1.4140   20.9380 O   0  0  0  0  0  0  0  0  0  0  0  0
    9.8035    6.4400   22.3912 H   0  0  0  0  0  0  0  0  0  0  0  0
    3.6468    2.0173   21.6825 H   0  0  0  0  0  0  0  0  0  0  0  0
    7.7728    5.8668   23.6961 H   0  0  0  0  0  0  0  0  0  0  0  0
   11.4067    4.6593   21.7457 H   0  0  0  0  0  0  0  0  0  0  0  0
    3.0153    2.6527   19.3907 H   0  0  0  0  0  0  0  0  0  0  0  0
    5.7015    0.6980   22.1071 H   0  0  0  0  0  0  0  0  0  0  0  0
    7.3424    3.5231   24.3565 H   0  0  0  0  0  0  0  0  0  0  0  0
   10.9853    2.3128   22.4011 H   0  0  0  0  0  0  0  0  0  0  0  0
    8.6904   -2.3557   26.5808 H   0  0  0  0  0  0  0  0  0  0  0  0
    9.9249   -4.3911   22.9935 H   0  0  0  0  0  0  0  0  0  0  0  0
    8.9209   -0.1987   25.4207 H   0  0  0  0  0  0  0  0  0  0  0  0
   10.0640   -2.2315   21.8255 H   0  0  0  0  0  0  0  0  0  0  0  0
    4.4064    1.9744   17.4453 H   0  0  0  0  0  0  0  0  0  0  0  0
    8.2506   -5.2684   25.5009 H   0  0  0  0  0  0  0  0  0  0  0  0
    9.9820   -5.5375   25.1832 H   0  0  0  0  0  0  0  0  0  0  0  0
    9.4843   -4.7055   26.6554 H   0  0  0  0  0  0  0  0  0  0  0  0
    9.2390    1.1684   24.8466 H   0  0  0  0  0  0  0  0  0  0  0  0
    7.7875    1.1860   23.8742 H   0  0  0  0  0  0  0  0  0  0  0  0
   10.6103    0.4565   22.8881 H   0  0  0  0  0  0  0  0  0  0  0  0
    6.8044    0.4388   16.8592 H   0  0  0  0  0  0  0  0  0  0  0  0
    8.2434   -1.5614   21.0991 H   0  0  0  0  0  0  0  0  0  0  0  0
  1  3  1  0  0  0  0
  1  4  2  0  0  0  0
  2  5  1  0  0  0  0
  2  6  2  0  0  0  0
  3  7  2  0  0  0  0
  4  8  1  0  0  0  0
  5 13  2  0  0  0  0
  6 14  1  0  0  0  0
  7 16  1  0  0  0  0
  8 16  2  0  0  0  0
  9 11  2  0  0  0  0
  9 15  1  0  0  0  0
 10 12  1  0  0  0  0
 10 15  2  0  0  0  0
 11 17  1  0  0  0  0
 12 17  2  0  0  0  0
 13 18  1  0  0  0  0
 14 18  2  0  0  0  0
 14 19  1  0  0  0  0
 15 21  1  0  0  0  0
 16 22  1  0  0  0  0
 17 23  1  0  0  0  0
 18 25  1  0  0  0  0
 19 24  2  0  0  0  0
 19 26  1  0  0  0  0
 20 23  1  0  0  0  0
 20 26  1  0  0  0  0
 20 27  2  0  0  0  0
 22 23  1  6  0  0  0
 24 25  1  0  0  0  0
  1 28  1  0  0  0  0
  2 29  1  0  0  0  0
  3 30  1  0  0  0  0
  4 31  1  0  0  0  0
  5 32  1  0  0  0  0
  6 33  1  0  0  0  0
  7 34  1  0  0  0  0
  8 35  1  0  0  0  0
  9 36  1  0  0  0  0
 10 37  1  0  0  0  0
 11 38  1  0  0  0  0
 12 39  1  0  0  0  0
 13 40  1  0  0  0  0
 21 41  1  0  0  0  0
 21 42  1  0  0  0  0
 21 43  1  0  0  0  0
 22 44  1  0  0  0  0
 22 45  1  0  0  0  0
 23 46  1  0  0  0  0
 25 47  1  0  0  0  0
 26 48  1  0  0  0  0
M  END
> <clash_score>
0

> <docking_score>
-6.307361602783203

> <overlap_score>
0.8005932569503784

$$$$
BENZO_236_1
  -OEChem-08232013453D

 45 48  0     1  0  0  0  0  0999 V2000
    4.2750    1.7050   20.8490 C   0  0  0  0  0  0  0  0  0  0  0  0
    3.9160    2.0630   19.5520 C   0  0  0  0  0  0  0  0  0  0  0  0
    5.4210    0.9600   21.0930 C   0  0  0  0  0  0  0  0  0  0  0  0
    8.9960   -2.3380   25.5320 C   0  0  0  0  0  0  0  0  0  0  0  0
    9.6730   -3.4710   23.5300 C   0  0  0  0  0  0  0  0  0  0  0  0
    9.0720   -1.1280   24.8640 C   0  0  0  0  0  0  0  0  0  0  0  0
    9.7200   -2.2600   22.8630 C   0  0  0  0  0  0  0  0  0  0  0  0
    4.6890    1.6810   18.4640 C   0  0  0  0  0  0  0  0  0  0  0  0
   11.9789    2.9159   22.1431 C   0  0  0  0  0  0  0  0  0  0  0  0
   11.9531    4.2698   22.3953 C   0  0  0  0  0  0  0  0  0  0  0  0
   10.5610    3.0079   23.9825 C   0  0  0  0  0  0  0  0  0  0  0  0
    6.1790    0.5730   19.9990 C   0  0  0  0  0  0  0  0  0  0  0  0
    9.3070   -3.5340   24.8780 C   0  0  0  0  0  0  0  0  0  0  0  0
    9.3350   -1.0880   23.5010 C   0  0  0  0  0  0  0  0  0  0  0  0
   11.1723    2.1848   23.0624 C   0  0  0  0  0  0  0  0  0  0  0  0
    5.8300    0.9190   18.6970 C   0  0  0  0  0  0  0  0  0  0  0  0
    7.3170   -0.1610   19.8550 C   0  0  0  0  0  0  0  0  0  0  0  0
    9.0420    0.3700   21.5280 C   0  0  0  0  0  0  0  0  0  0  0  0
    9.2507   -4.8268   25.5895 C   0  0  0  0  0  0  0  0  0  0  0  0
   11.0089    0.6825   23.0307 C   0  0  0  0  0  0  0  0  0  0  0  0
    9.4560    0.1560   22.8130 C   0  0  1  0  0  0  0  0  0  0  0  0
    7.6390   -0.2680   18.5410 N   0  0  0  0  0  0  0  0  0  0  0  0
    6.7580    0.3810   17.8350 N   0  0  0  0  0  0  0  0  0  0  0  0
    8.1890   -0.7180   20.8700 N   0  0  0  0  0  0  0  0  0  0  0  0
    9.2690    1.4140   20.9380 O   0  0  0  0  0  0  0  0  0  0  0  0
   10.9597    4.6549   23.7359 S   0  0  0  0  0  0  0  0  0  0  0  0
    3.6468    2.0173   21.6825 H   0  0  0  0  0  0  0  0  0  0  0  0
    3.0153    2.6527   19.3907 H   0  0  0  0  0  0  0  0  0  0  0  0
    5.7015    0.6980   22.1071 H   0  0  0  0  0  0  0  0  0  0  0  0
    8.6904   -2.3557   26.5808 H   0  0  0  0  0  0  0  0  0  0  0  0
    9.9249   -4.3911   22.9935 H   0  0  0  0  0  0  0  0  0  0  0  0
    8.9209   -0.1987   25.4207 H   0  0  0  0  0  0  0  0  0  0  0  0
   10.0640   -2.2315   21.8255 H   0  0  0  0  0  0  0  0  0  0  0  0
    4.4064    1.9744   17.4453 H   0  0  0  0  0  0  0  0  0  0  0  0
   12.5509    2.4750   21.3365 H   0  0  0  0  0  0  0  0  0  0  0  0
   12.4707    5.0513   21.8570 H   0  0  0  0  0  0  0  0  0  0  0  0
    9.8997    2.7250   24.7898 H   0  0  0  0  0  0  0  0  0  0  0  0
    8.2506   -5.2684   25.5009 H   0  0  0  0  0  0  0  0  0  0  0  0
    9.9820   -5.5375   25.1832 H   0  0  0  0  0  0  0  0  0  0  0  0
    9.4843   -4.7055   26.6554 H   0  0  0  0  0  0  0  0  0  0  0  0
   11.6011    0.2707   22.2030 H   0  0  0  0  0  0  0  0  0  0  0  0
   11.4624    0.2744   23.9446 H   0  0  0  0  0  0  0  0  0  0  0  0
    8.9284    0.9668   23.5149 H   0  0  0  0  0  0  0  0  0  0  0  0
    6.8044    0.4388   16.8592 H   0  0  0  0  0  0  0  0  0  0  0  0
    8.2434   -1.5614   21.0991 H   0  0  0  0  0  0  0  0  0  0  0  0
  1  2  1  0  0  0  0
  1  3  2  0  0  0  0
  2  8  2  0  0  0  0
  3 12  1  0  0  0  0
  4  6  2  0  0  0  0
  4 13  1  0  0  0  0
  5  7  1  0  0  0  0
  5 13  2  0  0  0  0
  6 14  1  0  0  0  0
  7 14  2  0  0  0  0
  8 16  1  0  0  0  0
  9 10  2  0  0  0  0
  9 15  1  0  0  0  0
 10 26  1  0  0  0  0
 11 15  2  0  0  0  0
 11 26  1  0  0  0  0
 12 16  2  0  0  0  0
 12 17  1  0  0  0  0
 13 19  1  0  0  0  0
 14 21  1  0  0  0  0
 15 20  1  0  0  0  0
 16 23  1  0  0  0  0
 17 22  2  0  0  0  0
 17 24  1  0  0  0  0
 18 21  1  0  0  0  0
 18 24  1  0  0  0  0
 18 25  2  0  0  0  0
 20 21  1  1  0  0  0
 22 23  1  0  0  0  0
  1 27  1  0  0  0  0
  2 28  1  0  0  0  0
  3 29  1  0  0  0  0
  4 30  1  0  0  0  0
  5 31  1  0  0  0  0
  6 32  1  0  0  0  0
  7 33  1  0  0  0  0
  8 34  1  0  0  0  0
  9 35  1  0  0  0  0
 10 36  1  0  0  0  0
 11 37  1  0  0  0  0
 19 38  1  0  0  0  0
 19 39  1  0  0  0  0
 19 40  1  0  0  0  0
 20 41  1  0  0  0  0
 20 42  1  0  0  0  0
 21 43  1  0  0  0  0
 23 44  1  0  0  0  0
 24 45  1  0  0  0  0
M  END
> <clash_score>
0

> <docking_score>
-8.813405990600586

> <overlap_score>
0.8769887685775757

$$$$
BENZO_236_2
  -OEChem-08232013453D

 45 48  0     1  0  0  0  0  0999 V2000
    4.2750    1.7050   20.8490 C   0  0  0  0  0  0  0  0  0  0  0  0
    3.9160    2.0630   19.5520 C   0  0  0  0  0  0  0  0  0  0  0  0
    5.4210    0.9600   21.0930 C   0  0  0  0  0  0  0  0  0  0  0  0
    8.9960   -2.3380   25.5320 C   0  0  0  0  0  0  0  0  0  0  0  0
    9.6730   -3.4710   23.5300 C   0  0  0  0  0  0  0  0  0  0  0  0
    9.0720   -1.1280   24.8640 C   0  0  0  0  0  0  0  0  0  0  0  0
    9.7200   -2.2600   22.8630 C   0  0  0  0  0  0  0  0  0  0  0  0
    4.6890    1.6810   18.4640 C   0  0  0  0  0  0  0  0  0  0  0  0
   10.3314    3.2065   22.7858 C   0  0  0  0  0  0  0  0  0  0  0  0
   10.3108    4.5599   22.5298 C   0  0  0  0  0  0  0  0  0  0  0  0
    8.2468    3.7959   23.6280 C   0  0  0  0  0  0  0  0  0  0  0  0
    6.1790    0.5730   19.9990 C   0  0  0  0  0  0  0  0  0  0  0  0
    9.3070   -3.5340   24.8780 C   0  0  0  0  0  0  0  0  0  0  0  0
    9.3350   -1.0880   23.5010 C   0  0  0  0  0  0  0  0  0  0  0  0
    9.1357    2.7638   23.4219 C   0  0  0  0  0  0  0  0  0  0  0  0
    5.8300    0.9190   18.6970 C   0  0  0  0  0  0  0  0  0  0  0  0
    7.3170   -0.1610   19.8550 C   0  0  0  0  0  0  0  0  0  0  0  0
    9.0420    0.3700   21.5280 C   0  0  0  0  0  0  0  0  0  0  0  0
    9.2507   -4.8268   25.5895 C   0  0  0  0  0  0  0  0  0  0  0  0
    8.8757    1.3301   23.8233 C   0  0  0  0  0  0  0  0  0  0  0  0
    9.4560    0.1560   22.8130 C   0  0  2  0  0  0  0  0  0  0  0  0
    7.6390   -0.2680   18.5410 N   0  0  0  0  0  0  0  0  0  0  0  0
    6.7580    0.3810   17.8350 N   0  0  0  0  0  0  0  0  0  0  0  0
    8.1890   -0.7180   20.8700 N   0  0  0  0  0  0  0  0  0  0  0  0
    9.2690    1.4140   20.9380 O   0  0  0  0  0  0  0  0  0  0  0  0
    8.8543    5.2911   23.0556 S   0  0  0  0  0  0  0  0  0  0  0  0
    3.6468    2.0173   21.6825 H   0  0  0  0  0  0  0  0  0  0  0  0
    3.0153    2.6527   19.3907 H   0  0  0  0  0  0  0  0  0  0  0  0
    5.7015    0.6980   22.1071 H   0  0  0  0  0  0  0  0  0  0  0  0
    8.6904   -2.3557   26.5808 H   0  0  0  0  0  0  0  0  0  0  0  0
    9.9249   -4.3911   22.9935 H   0  0  0  0  0  0  0  0  0  0  0  0
    8.9209   -0.1987   25.4207 H   0  0  0  0  0  0  0  0  0  0  0  0
   10.0640   -2.2315   21.8255 H   0  0  0  0  0  0  0  0  0  0  0  0
    4.4064    1.9744   17.4453 H   0  0  0  0  0  0  0  0  0  0  0  0
   11.1669    2.5681   22.5277 H   0  0  0  0  0  0  0  0  0  0  0  0
   11.0815    5.1544   22.0599 H   0  0  0  0  0  0  0  0  0  0  0  0
    7.2694    3.7480   24.0879 H   0  0  0  0  0  0  0  0  0  0  0  0
    8.2506   -5.2684   25.5009 H   0  0  0  0  0  0  0  0  0  0  0  0
    9.9820   -5.5375   25.1832 H   0  0  0  0  0  0  0  0  0  0  0  0
    9.4843   -4.7055   26.6554 H   0  0  0  0  0  0  0  0  0  0  0  0
    9.2390    1.1684   24.8466 H   0  0  0  0  0  0  0  0  0  0  0  0
    7.7875    1.1860   23.8742 H   0  0  0  0  0  0  0  0  0  0  0  0
   10.6103    0.4565   22.8881 H   0  0  0  0  0  0  0  0  0  0  0  0
    6.8044    0.4388   16.8592 H   0  0  0  0  0  0  0  0  0  0  0  0
    8.2434   -1.5614   21.0991 H   0  0  0  0  0  0  0  0  0  0  0  0
  1  2  1  0  0  0  0
  1  3  2  0  0  0  0
  2  8  2  0  0  0  0
  3 12  1  0  0  0  0
  4  6  2  0  0  0  0
  4 13  1  0  0  0  0
  5  7  1  0  0  0  0
  5 13  2  0  0  0  0
  6 14  1  0  0  0  0
  7 14  2  0  0  0  0
  8 16  1  0  0  0  0
  9 10  2  0  0  0  0
  9 15  1  0  0  0  0
 10 26  1  0  0  0  0
 11 15  2  0  0  0  0
 11 26  1  0  0  0  0
 12 16  2  0  0  0  0
 12 17  1  0  0  0  0
 13 19  1  0  0  0  0
 14 21  1  0  0  0  0
 15 20  1  0  0  0  0
 16 23  1  0  0  0  0
 17 22  2  0  0  0  0
 17 24  1  0  0  0  0
 18 21  1  0  0  0  0
 18 24  1  0  0  0  0
 18 25  2  0  0  0  0
 20 21  1  6  0  0  0
 22 23  1  0  0  0  0
  1 27  1  0  0  0  0
  2 28  1  0  0  0  0
  3 29  1  0  0  0  0
  4 30  1  0  0  0  0
  5 31  1  0  0  0  0
  6 32  1  0  0  0  0
  7 33  1  0  0  0  0
  8 34  1  0  0  0  0
  9 35  1  0  0  0  0
 10 36  1  0  0  0  0
 11 37  1  0  0  0  0
 19 38  1  0  0  0  0
 19 39  1  0  0  0  0
 19 40  1  0  0  0  0
 20 41  1  0  0  0  0
 20 42  1  0  0  0  0
 21 43  1  0  0  0  0
 23 44  1  0  0  0  0
 24 45  1  0  0  0  0
M  END
> <clash_score>
0

> <docking_score>
-6.694480895996094

> <overlap_score>
0.8007696270942688

$$$$
BENZO_235_2
  -OEChem-08232013453D

 60 64  0     1  0  0  0  0  0999 V2000
    4.2750    1.7050   20.8490 C   0  0  0  0  0  0  0  0  0  0  0  0
    3.9160    2.0630   19.5520 C   0  0  0  0  0  0  0  0  0  0  0  0
    5.4210    0.9600   21.0930 C   0  0  0  0  0  0  0  0  0  0  0  0
    9.0720   -1.1280   24.8640 C   0  0  0  0  0  0  0  0  0  0  0  0
    9.7200   -2.2600   22.8630 C   0  0  0  0  0  0  0  0  0  0  0  0
    4.6890    1.6810   18.4640 C   0  0  0  0  0  0  0  0  0  0  0  0
    8.9960   -2.3380   25.5320 C   0  0  0  0  0  0  0  0  0  0  0  0
    9.6730   -3.4710   23.5300 C   0  0  0  0  0  0  0  0  0  0  0  0
   10.2059    3.2838   22.6653 C   0  0  0  0  0  0  0  0  0  0  0  0
    8.3433    3.8704   23.6762 C   0  0  0  0  0  0  0  0  0  0  0  0
    6.1790    0.5730   19.9990 C   0  0  0  0  0  0  0  0  0  0  0  0
    9.3350   -1.0880   23.5010 C   0  0  0  0  0  0  0  0  0  0  0  0
    9.1243    2.7729   23.4075 C   0  0  0  0  0  0  0  0  0  0  0  0
    5.8300    0.9190   18.6970 C   0  0  0  0  0  0  0  0  0  0  0  0
    9.3070   -3.5340   24.8780 C   0  0  0  0  0  0  0  0  0  0  0  0
    7.3170   -0.1610   19.8550 C   0  0  0  0  0  0  0  0  0  0  0  0
    9.0420    0.3700   21.5280 C   0  0  0  0  0  0  0  0  0  0  0  0
    7.2237   -6.6201   26.3005 C   0  0  0  0  0  0  0  0  0  0  0  0
    7.4295   -5.3104   27.0650 C   0  0  0  0  0  0  0  0  0  0  0  0
    7.7218   -6.5099   24.8576 C   0  0  0  0  0  0  0  0  0  0  0  0
    8.8783   -4.8360   26.9547 C   0  0  0  0  0  0  0  0  0  0  0  0
    9.1653   -6.0007   24.7991 C   0  0  0  0  0  0  0  0  0  0  0  0
    8.5383    6.3046   23.1148 C   0  0  0  0  0  0  0  0  0  0  0  0
    8.8746    1.3393   23.8158 C   0  0  0  0  0  0  0  0  0  0  0  0
    9.4560    0.1560   22.8130 C   0  0  2  0  0  0  0  0  0  0  0  0
   10.1229    4.6032   22.4745 N   0  0  0  0  0  0  0  0  0  0  0  0
    7.6390   -0.2680   18.5410 N   0  0  0  0  0  0  0  0  0  0  0  0
    6.7580    0.3810   17.8350 N   0  0  0  0  0  0  0  0  0  0  0  0
    8.9797    4.9306   23.1006 N   0  0  0  0  0  0  0  0  0  0  0  0
    9.2563   -4.7385   25.5420 N   0  0  0  0  0  0  0  0  0  0  0  0
    8.1890   -0.7180   20.8700 N   0  0  0  0  0  0  0  0  0  0  0  0
    9.2690    1.4140   20.9380 O   0  0  0  0  0  0  0  0  0  0  0  0
    3.6468    2.0173   21.6825 H   0  0  0  0  0  0  0  0  0  0  0  0
    3.0153    2.6527   19.3907 H   0  0  0  0  0  0  0  0  0  0  0  0
    5.7015    0.6980   22.1071 H   0  0  0  0  0  0  0  0  0  0  0  0
    8.9214   -0.1986   25.4206 H   0  0  0  0  0  0  0  0  0  0  0  0
   10.0622   -2.2326   21.8251 H   0  0  0  0  0  0  0  0  0  0  0  0
    4.4064    1.9744   17.4453 H   0  0  0  0  0  0  0  0  0  0  0  0
    8.6882   -2.3542   26.5803 H   0  0  0  0  0  0  0  0  0  0  0  0
    9.9258   -4.3896   22.9914 H   0  0  0  0  0  0  0  0  0  0  0  0
   11.0518    2.7517   22.2537 H   0  0  0  0  0  0  0  0  0  0  0  0
    7.4115    3.9842   24.2133 H   0  0  0  0  0  0  0  0  0  0  0  0
    7.7561   -7.4351   26.8143 H   0  0  0  0  0  0  0  0  0  0  0  0
    6.1574   -6.8886   26.3051 H   0  0  0  0  0  0  0  0  0  0  0  0
    6.7603   -4.5438   26.6651 H   0  0  0  0  0  0  0  0  0  0  0  0
    7.1686   -5.4557   28.1153 H   0  0  0  0  0  0  0  0  0  0  0  0
    7.6596   -7.4899   24.3731 H   0  0  0  0  0  0  0  0  0  0  0  0
    7.0707   -5.8316   24.2940 H   0  0  0  0  0  0  0  0  0  0  0  0
    8.9682   -3.8625   27.4435 H   0  0  0  0  0  0  0  0  0  0  0  0
    9.5389   -5.5394   27.4694 H   0  0  0  0  0  0  0  0  0  0  0  0
    9.8375   -6.7414   25.2339 H   0  0  0  0  0  0  0  0  0  0  0  0
    9.4414   -5.8513   23.7549 H   0  0  0  0  0  0  0  0  0  0  0  0
    8.9640    6.7865   23.9989 H   0  0  0  0  0  0  0  0  0  0  0  0
    8.8793    6.8060   22.2046 H   0  0  0  0  0  0  0  0  0  0  0  0
    7.4457    6.3329   23.1513 H   0  0  0  0  0  0  0  0  0  0  0  0
    9.2322    1.1871   24.8426 H   0  0  0  0  0  0  0  0  0  0  0  0
    7.7874    1.1856   23.8601 H   0  0  0  0  0  0  0  0  0  0  0  0
   10.6111    0.4645   22.8838 H   0  0  0  0  0  0  0  0  0  0  0  0
    6.8044    0.4388   16.8592 H   0  0  0  0  0  0  0  0  0  0  0  0
    8.2585   -1.5522   21.1129 H   0  0  0  0  0  0  0  0  0  0  0  0
  1  2  1  0  0  0  0
  1  3  2  0  0  0  0
  2  6  2  0  0  0  0
  3 11  1  0  0  0  0
  4  7  2  0  0  0  0
  4 12  1  0  0  0  0
  5  8  1  0  0  0  0
  5 12  2  0  0  0  0
  6 14  1  0  0  0  0
  7 15  1  0  0  0  0
  8 15  2  0  0  0  0
  9 13  1  0  0  0  0
  9 26  2  0  0  0  0
 10 13  2  0  0  0  0
 10 29  1  0  0  0  0
 11 14  2  0  0  0  0
 11 16  1  0  0  0  0
 12 25  1  0  0  0  0
 13 24  1  0  0  0  0
 14 28  1  0  0  0  0
 15 30  1  0  0  0  0
 16 27  2  0  0  0  0
 16 31  1  0  0  0  0
 17 25  1  0  0  0  0
 17 31  1  0  0  0  0
 17 32  2  0  0  0  0
 18 19  1  0  0  0  0
 18 20  1  0  0  0  0
 19 21  1  0  0  0  0
 20 22  1  0  0  0  0
 21 30  1  0  0  0  0
 22 30  1  0  0  0  0
 23 29  1  0  0  0  0
 24 25  1  6  0  0  0
 26 29  1  0  0  0  0
 27 28  1  0  0  0  0
  1 33  1  0  0  0  0
  2 34  1  0  0  0  0
  3 35  1  0  0  0  0
  4 36  1  0  0  0  0
  5 37  1  0  0  0  0
  6 38  1  0  0  0  0
  7 39  1  0  0  0  0
  8 40  1  0  0  0  0
  9 41  1  0  0  0  0
 10 42  1  0  0  0  0
 18 43  1  0  0  0  0
 18 44  1  0  0  0  0
 19 45  1  0  0  0  0
 19 46  1  0  0  0  0
 20 47  1  0  0  0  0
 20 48  1  0  0  0  0
 21 49  1  0  0  0  0
 21 50  1  0  0  0  0
 22 51  1  0  0  0  0
 22 52  1  0  0  0  0
 23 53  1  0  0  0  0
 23 54  1  0  0  0  0
 23 55  1  0  0  0  0
 24 56  1  0  0  0  0
 24 57  1  0  0  0  0
 25 58  1  0  0  0  0
 28 59  1  0  0  0  0
 31 60  1  0  0  0  0
M  END
> <clash_score>
0

> <docking_score>
-5.564719200134277

> <overlap_score>
0.8560754656791687

$$$$
BENZO_234_1
  -OEChem-08232013453D

 60 64  0     1  0  0  0  0  0999 V2000
    4.2750    1.7050   20.8490 C   0  0  0  0  0  0  0  0  0  0  0  0
    3.9160    2.0630   19.5520 C   0  0  0  0  0  0  0  0  0  0  0  0
    8.4482    5.0923   23.3954 C   0  0  0  0  0  0  0  0  0  0  0  0
    5.4210    0.9600   21.0930 C   0  0  0  0  0  0  0  0  0  0  0  0
    8.2178    3.7689   23.7708 C   0  0  0  0  0  0  0  0  0  0  0  0
    9.0720   -1.1280   24.8640 C   0  0  0  0  0  0  0  0  0  0  0  0
    9.7200   -2.2600   22.8630 C   0  0  0  0  0  0  0  0  0  0  0  0
    4.6890    1.6810   18.4640 C   0  0  0  0  0  0  0  0  0  0  0  0
    8.9960   -2.3380   25.5320 C   0  0  0  0  0  0  0  0  0  0  0  0
    9.6730   -3.4710   23.5300 C   0  0  0  0  0  0  0  0  0  0  0  0
    9.5851    5.4198   22.6564 C   0  0  0  0  0  0  0  0  0  0  0  0
   10.2612    3.1004   22.6687 C   0  0  0  0  0  0  0  0  0  0  0  0
    6.1790    0.5730   19.9990 C   0  0  0  0  0  0  0  0  0  0  0  0
    9.3350   -1.0880   23.5010 C   0  0  0  0  0  0  0  0  0  0  0  0
    9.1243    2.7729   23.4075 C   0  0  0  0  0  0  0  0  0  0  0  0
    5.8300    0.9190   18.6970 C   0  0  0  0  0  0  0  0  0  0  0  0
    9.3070   -3.5340   24.8780 C   0  0  0  0  0  0  0  0  0  0  0  0
   10.4916    4.4239   22.2931 C   0  0  0  0  0  0  0  0  0  0  0  0
    7.3170   -0.1610   19.8550 C   0  0  0  0  0  0  0  0  0  0  0  0
    9.0420    0.3700   21.5280 C   0  0  0  0  0  0  0  0  0  0  0  0
    7.2237   -6.6201   26.3005 C   0  0  0  0  0  0  0  0  0  0  0  0
    7.4295   -5.3104   27.0650 C   0  0  0  0  0  0  0  0  0  0  0  0
    7.7218   -6.5099   24.8576 C   0  0  0  0  0  0  0  0  0  0  0  0
    8.8783   -4.8360   26.9547 C   0  0  0  0  0  0  0  0  0  0  0  0
    9.1653   -6.0007   24.7991 C   0  0  0  0  0  0  0  0  0  0  0  0
    8.8746    1.3393   23.8158 C   0  0  0  0  0  0  0  0  0  0  0  0
    9.4560    0.1560   22.8130 C   0  0  1  0  0  0  0  0  0  0  0  0
    7.6390   -0.2680   18.5410 N   0  0  0  0  0  0  0  0  0  0  0  0
    6.7580    0.3810   17.8350 N   0  0  0  0  0  0  0  0  0  0  0  0
    9.2563   -4.7385   25.5420 N   0  0  0  0  0  0  0  0  0  0  0  0
    8.1890   -0.7180   20.8700 N   0  0  0  0  0  0  0  0  0  0  0  0
    9.2690    1.4140   20.9380 O   0  0  0  0  0  0  0  0  0  0  0  0
   11.8946    4.8288   21.3825 Cl  0  0  0  0  0  0  0  0  0  0  0  0
    3.6468    2.0173   21.6825 H   0  0  0  0  0  0  0  0  0  0  0  0
    3.0153    2.6527   19.3907 H   0  0  0  0  0  0  0  0  0  0  0  0
    7.7422    5.8676   23.6786 H   0  0  0  0  0  0  0  0  0  0  0  0
    5.7015    0.6980   22.1071 H   0  0  0  0  0  0  0  0  0  0  0  0
    7.3294    3.5228   24.3466 H   0  0  0  0  0  0  0  0  0  0  0  0
    8.9214   -0.1986   25.4206 H   0  0  0  0  0  0  0  0  0  0  0  0
   10.0622   -2.2326   21.8251 H   0  0  0  0  0  0  0  0  0  0  0  0
    4.4064    1.9744   17.4453 H   0  0  0  0  0  0  0  0  0  0  0  0
    8.6882   -2.3542   26.5803 H   0  0  0  0  0  0  0  0  0  0  0  0
    9.9258   -4.3896   22.9914 H   0  0  0  0  0  0  0  0  0  0  0  0
    9.7519    6.4556   22.3710 H   0  0  0  0  0  0  0  0  0  0  0  0
   10.9647    2.3202   22.3874 H   0  0  0  0  0  0  0  0  0  0  0  0
    7.7561   -7.4351   26.8143 H   0  0  0  0  0  0  0  0  0  0  0  0
    6.1574   -6.8886   26.3051 H   0  0  0  0  0  0  0  0  0  0  0  0
    6.7603   -4.5438   26.6651 H   0  0  0  0  0  0  0  0  0  0  0  0
    7.1686   -5.4557   28.1153 H   0  0  0  0  0  0  0  0  0  0  0  0
    7.6596   -7.4899   24.3731 H   0  0  0  0  0  0  0  0  0  0  0  0
    7.0707   -5.8316   24.2940 H   0  0  0  0  0  0  0  0  0  0  0  0
    8.9682   -3.8625   27.4435 H   0  0  0  0  0  0  0  0  0  0  0  0
    9.5389   -5.5394   27.4694 H   0  0  0  0  0  0  0  0  0  0  0  0
    9.8375   -6.7414   25.2339 H   0  0  0  0  0  0  0  0  0  0  0  0
    9.4414   -5.8513   23.7549 H   0  0  0  0  0  0  0  0  0  0  0  0
    9.2322    1.1871   24.8426 H   0  0  0  0  0  0  0  0  0  0  0  0
    7.7874    1.1856   23.8601 H   0  0  0  0  0  0  0  0  0  0  0  0
   10.6111    0.4645   22.8838 H   0  0  0  0  0  0  0  0  0  0  0  0
    6.8044    0.4388   16.8592 H   0  0  0  0  0  0  0  0  0  0  0  0
    8.2585   -1.5522   21.1129 H   0  0  0  0  0  0  0  0  0  0  0  0
  1  2  1  0  0  0  0
  1  4  2  0  0  0  0
  2  8  2  0  0  0  0
  3  5  2  0  0  0  0
  3 11  1  0  0  0  0
  4 13  1  0  0  0  0
  5 15  1  0  0  0  0
  6  9  2  0  0  0  0
  6 14  1  0  0  0  0
  7 10  1  0  0  0  0
  7 14  2  0  0  0  0
  8 16  1  0  0  0  0
  9 17  1  0  0  0  0
 10 17  2  0  0  0  0
 11 18  2  0  0  0  0
 12 15  2  0  0  0  0
 12 18  1  0  0  0  0
 13 16  2  0  0  0  0
 13 19  1  0  0  0  0
 14 27  1  0  0  0  0
 15 26  1  0  0  0  0
 16 29  1  0  0  0  0
 17 30  1  0  0  0  0
 18 33  1  0  0  0  0
 19 28  2  0  0  0  0
 19 31  1  0  0  0  0
 20 27  1  1  0  0  0
 20 31  1  0  0  0  0
 20 32  2  0  0  0  0
 21 22  1  0  0  0  0
 21 23  1  0  0  0  0
 22 24  1  0  0  0  0
 23 25  1  0  0  0  0
 24 30  1  0  0  0  0
 25 30  1  0  0  0  0
 26 27  1  0  0  0  0
 28 29  1  0  0  0  0
  1 34  1  0  0  0  0
  2 35  1  0  0  0  0
  3 36  1  0  0  0  0
  4 37  1  0  0  0  0
  5 38  1  0  0  0  0
  6 39  1  0  0  0  0
  7 40  1  0  0  0  0
  8 41  1  0  0  0  0
  9 42  1  0  0  0  0
 10 43  1  0  0  0  0
 11 44  1  0  0  0  0
 12 45  1  0  0  0  0
 21 46  1  0  0  0  0
 21 47  1  0  0  0  0
 22 48  1  0  0  0  0
 22 49  1  0  0  0  0
 23 50  1  0  0  0  0
 23 51  1  0  0  0  0
 24 52  1  0  0  0  0
 24 53  1  0  0  0  0
 25 54  1  0  0  0  0
 25 55  1  0  0  0  0
 26 56  1  0  0  0  0
 26 57  1  0  0  0  0
 27 58  1  0  0  0  0
 29 59  1  0  0  0  0
 31 60  1  0  0  0  0
M  END
> <clash_score>
0

> <docking_score>
-5.182657241821289

> <overlap_score>
0.8607004880905151

$$$$
BENZO_234_2
  -OEChem-08232013453D

 60 64  0     1  0  0  0  0  0999 V2000
    4.2750    1.7050   20.8490 C   0  0  0  0  0  0  0  0  0  0  0  0
    3.9160    2.0630   19.5520 C   0  0  0  0  0  0  0  0  0  0  0  0
   10.2883    4.3880   23.5308 C   0  0  0  0  0  0  0  0  0  0  0  0
    5.4210    0.9600   21.0930 C   0  0  0  0  0  0  0  0  0  0  0  0
   10.1370    3.0016   23.5115 C   0  0  0  0  0  0  0  0  0  0  0  0
    9.0720   -1.1280   24.8640 C   0  0  0  0  0  0  0  0  0  0  0  0
    9.7200   -2.2600   22.8630 C   0  0  0  0  0  0  0  0  0  0  0  0
    4.6890    1.6810   18.4640 C   0  0  0  0  0  0  0  0  0  0  0  0
    8.9960   -2.3380   25.5320 C   0  0  0  0  0  0  0  0  0  0  0  0
    9.6730   -3.4710   23.5300 C   0  0  0  0  0  0  0  0  0  0  0  0
   11.4763    4.9663   23.0834 C   0  0  0  0  0  0  0  0  0  0  0  0
   12.3618    2.7715   22.5978 C   0  0  0  0  0  0  0  0  0  0  0  0
    6.1790    0.5730   19.9990 C   0  0  0  0  0  0  0  0  0  0  0  0
    9.3350   -1.0880   23.5010 C   0  0  0  0  0  0  0  0  0  0  0  0
   11.1738    2.1933   23.0450 C   0  0  0  0  0  0  0  0  0  0  0  0
    5.8300    0.9190   18.6970 C   0  0  0  0  0  0  0  0  0  0  0  0
    9.3070   -3.5340   24.8780 C   0  0  0  0  0  0  0  0  0  0  0  0
   12.5130    4.1581   22.6170 C   0  0  0  0  0  0  0  0  0  0  0  0
    7.3170   -0.1610   19.8550 C   0  0  0  0  0  0  0  0  0  0  0  0
    9.0420    0.3700   21.5280 C   0  0  0  0  0  0  0  0  0  0  0  0
    7.3637   -6.1365   27.1885 C   0  0  0  0  0  0  0  0  0  0  0  0
    8.1962   -4.9739   27.7340 C   0  0  0  0  0  0  0  0  0  0  0  0
    7.1943   -6.0395   25.6706 C   0  0  0  0  0  0  0  0  0  0  0  0
    9.5197   -4.8493   26.9795 C   0  0  0  0  0  0  0  0  0  0  0  0
    8.5443   -5.8838   24.9636 C   0  0  0  0  0  0  0  0  0  0  0  0
   11.0096    0.6909   23.0256 C   0  0  0  0  0  0  0  0  0  0  0  0
    9.4560    0.1560   22.8130 C   0  0  2  0  0  0  0  0  0  0  0  0
    7.6390   -0.2680   18.5410 N   0  0  0  0  0  0  0  0  0  0  0  0
    6.7580    0.3810   17.8350 N   0  0  0  0  0  0  0  0  0  0  0  0
    9.2563   -4.7385   25.5420 N   0  0  0  0  0  0  0  0  0  0  0  0
    8.1890   -0.7180   20.8700 N   0  0  0  0  0  0  0  0  0  0  0  0
    9.2690    1.4140   20.9380 O   0  0  0  0  0  0  0  0  0  0  0  0
   13.9789    4.8720   22.0663 Cl  0  0  0  0  0  0  0  0  0  0  0  0
    3.6468    2.0173   21.6825 H   0  0  0  0  0  0  0  0  0  0  0  0
    3.0153    2.6527   19.3907 H   0  0  0  0  0  0  0  0  0  0  0  0
    9.4808    5.0171   23.8942 H   0  0  0  0  0  0  0  0  0  0  0  0
    5.7015    0.6980   22.1071 H   0  0  0  0  0  0  0  0  0  0  0  0
    9.2080    2.5596   23.8620 H   0  0  0  0  0  0  0  0  0  0  0  0
    8.9214   -0.1986   25.4206 H   0  0  0  0  0  0  0  0  0  0  0  0
   10.0622   -2.2326   21.8251 H   0  0  0  0  0  0  0  0  0  0  0  0
    4.4064    1.9744   17.4453 H   0  0  0  0  0  0  0  0  0  0  0  0
    8.6882   -2.3542   26.5803 H   0  0  0  0  0  0  0  0  0  0  0  0
    9.9258   -4.3896   22.9914 H   0  0  0  0  0  0  0  0  0  0  0  0
   11.5802    6.0484   23.1045 H   0  0  0  0  0  0  0  0  0  0  0  0
   13.1669    2.1371   22.2345 H   0  0  0  0  0  0  0  0  0  0  0  0
    7.8484   -7.0905   27.4464 H   0  0  0  0  0  0  0  0  0  0  0  0
    6.3761   -6.1442   27.6721 H   0  0  0  0  0  0  0  0  0  0  0  0
    7.6308   -4.0428   27.6404 H   0  0  0  0  0  0  0  0  0  0  0  0
    8.3917   -5.1316   28.7967 H   0  0  0  0  0  0  0  0  0  0  0  0
    6.6889   -6.9376   25.3006 H   0  0  0  0  0  0  0  0  0  0  0  0
    6.5516   -5.1860   25.4256 H   0  0  0  0  0  0  0  0  0  0  0  0
   10.0494   -3.9643   27.3413 H   0  0  0  0  0  0  0  0  0  0  0  0
   10.1432   -5.7258   27.1775 H   0  0  0  0  0  0  0  0  0  0  0  0
    9.1338   -6.7931   25.0863 H   0  0  0  0  0  0  0  0  0  0  0  0
    8.3657   -5.7262   23.8995 H   0  0  0  0  0  0  0  0  0  0  0  0
   11.6022    0.2720   22.2019 H   0  0  0  0  0  0  0  0  0  0  0  0
   11.4622    0.2902   23.9433 H   0  0  0  0  0  0  0  0  0  0  0  0
    8.9292    0.9747   23.5105 H   0  0  0  0  0  0  0  0  0  0  0  0
    6.8044    0.4388   16.8592 H   0  0  0  0  0  0  0  0  0  0  0  0
    8.2585   -1.5522   21.1129 H   0  0  0  0  0  0  0  0  0  0  0  0
  1  2  1  0  0  0  0
  1  4  2  0  0  0  0
  2  8  2  0  0  0  0
  3  5  2  0  0  0  0
  3 11  1  0  0  0  0
  4 13  1  0  0  0  0
  5 15  1  0  0  0  0
  6  9  2  0  0  0  0
  6 14  1  0  0  0  0
  7 10  1  0  0  0  0
  7 14  2  0  0  0  0
  8 16  1  0  0  0  0
  9 17  1  0  0  0  0
 10 17  2  0  0  0  0
 11 18  2  0  0  0  0
 12 15  2  0  0  0  0
 12 18  1  0  0  0  0
 13 16  2  0  0  0  0
 13 19  1  0  0  0  0
 14 27  1  0  0  0  0
 15 26  1  0  0  0  0
 16 29  1  0  0  0  0
 17 30  1  0  0  0  0
 18 33  1  0  0  0  0
 19 28  2  0  0  0  0
 19 31  1  0  0  0  0
 20 27  1  6  0  0  0
 20 31  1  0  0  0  0
 20 32  2  0  0  0  0
 21 22  1  0  0  0  0
 21 23  1  0  0  0  0
 22 24  1  0  0  0  0
 23 25  1  0  0  0  0
 24 30  1  0  0  0  0
 25 30  1  0  0  0  0
 26 27  1  0  0  0  0
 28 29  1  0  0  0  0
  1 34  1  0  0  0  0
  2 35  1  0  0  0  0
  3 36  1  0  0  0  0
  4 37  1  0  0  0  0
  5 38  1  0  0  0  0
  6 39  1  0  0  0  0
  7 40  1  0  0  0  0
  8 41  1  0  0  0  0
  9 42  1  0  0  0  0
 10 43  1  0  0  0  0
 11 44  1  0  0  0  0
 12 45  1  0  0  0  0
 21 46  1  0  0  0  0
 21 47  1  0  0  0  0
 22 48  1  0  0  0  0
 22 49  1  0  0  0  0
 23 50  1  0  0  0  0
 23 51  1  0  0  0  0
 24 52  1  0  0  0  0
 24 53  1  0  0  0  0
 25 54  1  0  0  0  0
 25 55  1  0  0  0  0
 26 56  1  0  0  0  0
 26 57  1  0  0  0  0
 27 58  1  0  0  0  0
 29 59  1  0  0  0  0
 31 60  1  0  0  0  0
M  END
> <clash_score>
0

> <docking_score>
-9.894783020019531

> <overlap_score>
0.9441561102867126

$$$$
BENZO_235_1
  -OEChem-08232013453D

 60 64  0     1  0  0  0  0  0999 V2000
    4.2750    1.7050   20.8490 C   0  0  0  0  0  0  0  0  0  0  0  0
    3.9160    2.0630   19.5520 C   0  0  0  0  0  0  0  0  0  0  0  0
    5.4210    0.9600   21.0930 C   0  0  0  0  0  0  0  0  0  0  0  0
    9.0720   -1.1280   24.8640 C   0  0  0  0  0  0  0  0  0  0  0  0
    9.7200   -2.2600   22.8630 C   0  0  0  0  0  0  0  0  0  0  0  0
    4.6890    1.6810   18.4640 C   0  0  0  0  0  0  0  0  0  0  0  0
    8.9960   -2.3380   25.5320 C   0  0  0  0  0  0  0  0  0  0  0  0
    9.6730   -3.4710   23.5300 C   0  0  0  0  0  0  0  0  0  0  0  0
   10.2449    3.1582   23.4786 C   0  0  0  0  0  0  0  0  0  0  0  0
   12.2661    2.9236   22.6451 C   0  0  0  0  0  0  0  0  0  0  0  0
    6.1790    0.5730   19.9990 C   0  0  0  0  0  0  0  0  0  0  0  0
    9.3350   -1.0880   23.5010 C   0  0  0  0  0  0  0  0  0  0  0  0
   11.1738    2.1933   23.0450 C   0  0  0  0  0  0  0  0  0  0  0  0
    5.8300    0.9190   18.6970 C   0  0  0  0  0  0  0  0  0  0  0  0
    9.3070   -3.5340   24.8780 C   0  0  0  0  0  0  0  0  0  0  0  0
    7.3170   -0.1610   19.8550 C   0  0  0  0  0  0  0  0  0  0  0  0
    9.0420    0.3700   21.5280 C   0  0  0  0  0  0  0  0  0  0  0  0
    7.3637   -6.1365   27.1885 C   0  0  0  0  0  0  0  0  0  0  0  0
    8.1962   -4.9739   27.7340 C   0  0  0  0  0  0  0  0  0  0  0  0
    7.1943   -6.0395   25.6706 C   0  0  0  0  0  0  0  0  0  0  0  0
    9.5197   -4.8493   26.9795 C   0  0  0  0  0  0  0  0  0  0  0  0
    8.5443   -5.8838   24.9636 C   0  0  0  0  0  0  0  0  0  0  0  0
   12.7722    5.3769   22.5852 C   0  0  0  0  0  0  0  0  0  0  0  0
   11.0096    0.6909   23.0256 C   0  0  0  0  0  0  0  0  0  0  0  0
    9.4560    0.1560   22.8130 C   0  0  1  0  0  0  0  0  0  0  0  0
   10.7069    4.4063   23.3651 N   0  0  0  0  0  0  0  0  0  0  0  0
    7.6390   -0.2680   18.5410 N   0  0  0  0  0  0  0  0  0  0  0  0
    6.7580    0.3810   17.8350 N   0  0  0  0  0  0  0  0  0  0  0  0
   11.9381    4.2306   22.8556 N   0  0  0  0  0  0  0  0  0  0  0  0
    9.2563   -4.7385   25.5420 N   0  0  0  0  0  0  0  0  0  0  0  0
    8.1890   -0.7180   20.8700 N   0  0  0  0  0  0  0  0  0  0  0  0
    9.2690    1.4140   20.9380 O   0  0  0  0  0  0  0  0  0  0  0  0
    3.6468    2.0173   21.6825 H   0  0  0  0  0  0  0  0  0  0  0  0
    3.0153    2.6527   19.3907 H   0  0  0  0  0  0  0  0  0  0  0  0
    5.7015    0.6980   22.1071 H   0  0  0  0  0  0  0  0  0  0  0  0
    8.9214   -0.1986   25.4206 H   0  0  0  0  0  0  0  0  0  0  0  0
   10.0622   -2.2326   21.8251 H   0  0  0  0  0  0  0  0  0  0  0  0
    4.4064    1.9744   17.4453 H   0  0  0  0  0  0  0  0  0  0  0  0
    8.6882   -2.3542   26.5803 H   0  0  0  0  0  0  0  0  0  0  0  0
    9.9258   -4.3896   22.9914 H   0  0  0  0  0  0  0  0  0  0  0  0
    9.2505    3.0064   23.8739 H   0  0  0  0  0  0  0  0  0  0  0  0
   13.2256    2.6317   22.2400 H   0  0  0  0  0  0  0  0  0  0  0  0
    7.8484   -7.0905   27.4464 H   0  0  0  0  0  0  0  0  0  0  0  0
    6.3761   -6.1442   27.6721 H   0  0  0  0  0  0  0  0  0  0  0  0
    7.6308   -4.0428   27.6404 H   0  0  0  0  0  0  0  0  0  0  0  0
    8.3917   -5.1316   28.7967 H   0  0  0  0  0  0  0  0  0  0  0  0
    6.6889   -6.9376   25.3006 H   0  0  0  0  0  0  0  0  0  0  0  0
    6.5516   -5.1860   25.4256 H   0  0  0  0  0  0  0  0  0  0  0  0
   10.0494   -3.9643   27.3413 H   0  0  0  0  0  0  0  0  0  0  0  0
   10.1432   -5.7258   27.1775 H   0  0  0  0  0  0  0  0  0  0  0  0
    9.1338   -6.7931   25.0863 H   0  0  0  0  0  0  0  0  0  0  0  0
    8.3657   -5.7262   23.8995 H   0  0  0  0  0  0  0  0  0  0  0  0
   12.5768    5.7019   21.5598 H   0  0  0  0  0  0  0  0  0  0  0  0
   12.5325    6.1764   23.2918 H   0  0  0  0  0  0  0  0  0  0  0  0
   13.8223    5.0961   22.7049 H   0  0  0  0  0  0  0  0  0  0  0  0
   11.6022    0.2720   22.2019 H   0  0  0  0  0  0  0  0  0  0  0  0
   11.4622    0.2902   23.9433 H   0  0  0  0  0  0  0  0  0  0  0  0
    8.9292    0.9747   23.5105 H   0  0  0  0  0  0  0  0  0  0  0  0
    6.8044    0.4388   16.8592 H   0  0  0  0  0  0  0  0  0  0  0  0
    8.2585   -1.5522   21.1129 H   0  0  0  0  0  0  0  0  0  0  0  0
  1  2  1  0  0  0  0
  1  3  2  0  0  0  0
  2  6  2  0  0  0  0
  3 11  1  0  0  0  0
  4  7  2  0  0  0  0
  4 12  1  0  0  0  0
  5  8  1  0  0  0  0
  5 12  2  0  0  0  0
  6 14  1  0  0  0  0
  7 15  1  0  0  0  0
  8 15  2  0  0  0  0
  9 13  1  0  0  0  0
  9 26  2  0  0  0  0
 10 13  2  0  0  0  0
 10 29  1  0  0  0  0
 11 14  2  0  0  0  0
 11 16  1  0  0  0  0
 12 25  1  0  0  0  0
 13 24  1  0  0  0  0
 14 28  1  0  0  0  0
 15 30  1  0  0  0  0
 16 27  2  0  0  0  0
 16 31  1  0  0  0  0
 17 25  1  0  0  0  0
 17 31  1  0  0  0  0
 17 32  2  0  0  0  0
 18 19  1  0  0  0  0
 18 20  1  0  0  0  0
 19 21  1  0  0  0  0
 20 22  1  0  0  0  0
 21 30  1  0  0  0  0
 22 30  1  0  0  0  0
 23 29  1  0  0  0  0
 24 25  1  1  0  0  0
 26 29  1  0  0  0  0
 27 28  1  0  0  0  0
  1 33  1  0  0  0  0
  2 34  1  0  0  0  0
  3 35  1  0  0  0  0
  4 36  1  0  0  0  0
  5 37  1  0  0  0  0
  6 38  1  0  0  0  0
  7 39  1  0  0  0  0
  8 40  1  0  0  0  0
  9 41  1  0  0  0  0
 10 42  1  0  0  0  0
 18 43  1  0  0  0  0
 18 44  1  0  0  0  0
 19 45  1  0  0  0  0
 19 46  1  0  0  0  0
 20 47  1  0  0  0  0
 20 48  1  0  0  0  0
 21 49  1  0  0  0  0
 21 50  1  0  0  0  0
 22 51  1  0  0  0  0
 22 52  1  0  0  0  0
 23 53  1  0  0  0  0
 23 54  1  0  0  0  0
 23 55  1  0  0  0  0
 24 56  1  0  0  0  0
 24 57  1  0  0  0  0
 25 58  1  0  0  0  0
 28 59  1  0  0  0  0
 31 60  1  0  0  0  0
M  END
> <clash_score>
0

> <docking_score>
-9.368937492370605

> <overlap_score>
0.9394319653511047

$$$$
BENZO_238_1
  -OEChem-08232013453D

 48 51  0     1  0  0  0  0  0999 V2000
    4.2750    1.7050   20.8490 C   0  0  0  0  0  0  0  0  0  0  0  0
    3.9160    2.0630   19.5520 C   0  0  0  0  0  0  0  0  0  0  0  0
   10.2856    4.3750   23.5656 C   0  0  0  0  0  0  0  0  0  0  0  0
    5.4210    0.9600   21.0930 C   0  0  0  0  0  0  0  0  0  0  0  0
   10.1350    2.9887   23.5349 C   0  0  0  0  0  0  0  0  0  0  0  0
    8.9960   -2.3380   25.5320 C   0  0  0  0  0  0  0  0  0  0  0  0
    9.6730   -3.4710   23.5300 C   0  0  0  0  0  0  0  0  0  0  0  0
    9.0720   -1.1280   24.8640 C   0  0  0  0  0  0  0  0  0  0  0  0
    9.7200   -2.2600   22.8630 C   0  0  0  0  0  0  0  0  0  0  0  0
    4.6890    1.6810   18.4640 C   0  0  0  0  0  0  0  0  0  0  0  0
   11.4735    4.9575   23.1236 C   0  0  0  0  0  0  0  0  0  0  0  0
   12.3603    2.7672   22.6205 C   0  0  0  0  0  0  0  0  0  0  0  0
    6.1790    0.5730   19.9990 C   0  0  0  0  0  0  0  0  0  0  0  0
    9.3070   -3.5340   24.8780 C   0  0  0  0  0  0  0  0  0  0  0  0
    9.3350   -1.0880   23.5010 C   0  0  0  0  0  0  0  0  0  0  0  0
   11.1723    2.1848   23.0624 C   0  0  0  0  0  0  0  0  0  0  0  0
    5.8300    0.9190   18.6970 C   0  0  0  0  0  0  0  0  0  0  0  0
   12.5108    4.1536   22.6511 C   0  0  0  0  0  0  0  0  0  0  0  0
    7.3170   -0.1610   19.8550 C   0  0  0  0  0  0  0  0  0  0  0  0
    9.0420    0.3700   21.5280 C   0  0  0  0  0  0  0  0  0  0  0  0
    9.2507   -4.8268   25.5895 C   0  0  0  0  0  0  0  0  0  0  0  0
   11.0089    0.6825   23.0307 C   0  0  0  0  0  0  0  0  0  0  0  0
    9.4560    0.1560   22.8130 C   0  0  1  0  0  0  0  0  0  0  0  0
    7.6390   -0.2680   18.5410 N   0  0  0  0  0  0  0  0  0  0  0  0
    6.7580    0.3810   17.8350 N   0  0  0  0  0  0  0  0  0  0  0  0
    8.1890   -0.7180   20.8700 N   0  0  0  0  0  0  0  0  0  0  0  0
    9.2690    1.4140   20.9380 O   0  0  0  0  0  0  0  0  0  0  0  0
   13.9766    4.8727   22.1070 Cl  0  0  0  0  0  0  0  0  0  0  0  0
    3.6468    2.0173   21.6825 H   0  0  0  0  0  0  0  0  0  0  0  0
    3.0153    2.6527   19.3907 H   0  0  0  0  0  0  0  0  0  0  0  0
    9.4776    5.0007   23.9337 H   0  0  0  0  0  0  0  0  0  0  0  0
    5.7015    0.6980   22.1071 H   0  0  0  0  0  0  0  0  0  0  0  0
    9.2060    2.5434   23.8814 H   0  0  0  0  0  0  0  0  0  0  0  0
    8.6904   -2.3557   26.5808 H   0  0  0  0  0  0  0  0  0  0  0  0
    9.9249   -4.3911   22.9935 H   0  0  0  0  0  0  0  0  0  0  0  0
    8.9209   -0.1987   25.4207 H   0  0  0  0  0  0  0  0  0  0  0  0
   10.0640   -2.2315   21.8255 H   0  0  0  0  0  0  0  0  0  0  0  0
    4.4064    1.9744   17.4453 H   0  0  0  0  0  0  0  0  0  0  0  0
   11.5769    6.0394   23.1535 H   0  0  0  0  0  0  0  0  0  0  0  0
   13.1659    2.1361   22.2525 H   0  0  0  0  0  0  0  0  0  0  0  0
    8.2506   -5.2684   25.5009 H   0  0  0  0  0  0  0  0  0  0  0  0
    9.9820   -5.5375   25.1832 H   0  0  0  0  0  0  0  0  0  0  0  0
    9.4843   -4.7055   26.6554 H   0  0  0  0  0  0  0  0  0  0  0  0
   11.6011    0.2707   22.2030 H   0  0  0  0  0  0  0  0  0  0  0  0
   11.4624    0.2744   23.9446 H   0  0  0  0  0  0  0  0  0  0  0  0
    8.9284    0.9668   23.5149 H   0  0  0  0  0  0  0  0  0  0  0  0
    6.8044    0.4388   16.8592 H   0  0  0  0  0  0  0  0  0  0  0  0
    8.2434   -1.5614   21.0991 H   0  0  0  0  0  0  0  0  0  0  0  0
  1  2  1  0  0  0  0
  1  4  2  0  0  0  0
  2 10  2  0  0  0  0
  3  5  2  0  0  0  0
  3 11  1  0  0  0  0
  4 13  1  0  0  0  0
  5 16  1  0  0  0  0
  6  8  2  0  0  0  0
  6 14  1  0  0  0  0
  7  9  1  0  0  0  0
  7 14  2  0  0  0  0
  8 15  1  0  0  0  0
  9 15  2  0  0  0  0
 10 17  1  0  0  0  0
 11 18  2  0  0  0  0
 12 16  2  0  0  0  0
 12 18  1  0  0  0  0
 13 17  2  0  0  0  0
 13 19  1  0  0  0  0
 14 21  1  0  0  0  0
 15 23  1  0  0  0  0
 16 22  1  0  0  0  0
 17 25  1  0  0  0  0
 18 28  1  0  0  0  0
 19 24  2  0  0  0  0
 19 26  1  0  0  0  0
 20 23  1  0  0  0  0
 20 26  1  0  0  0  0
 20 27  2  0  0  0  0
 22 23  1  1  0  0  0
 24 25  1  0  0  0  0
  1 29  1  0  0  0  0
  2 30  1  0  0  0  0
  3 31  1  0  0  0  0
  4 32  1  0  0  0  0
  5 33  1  0  0  0  0
  6 34  1  0  0  0  0
  7 35  1  0  0  0  0
  8 36  1  0  0  0  0
  9 37  1  0  0  0  0
 10 38  1  0  0  0  0
 11 39  1  0  0  0  0
 12 40  1  0  0  0  0
 21 41  1  0  0  0  0
 21 42  1  0  0  0  0
 21 43  1  0  0  0  0
 22 44  1  0  0  0  0
 22 45  1  0  0  0  0
 23 46  1  0  0  0  0
 25 47  1  0  0  0  0
 26 48  1  0  0  0  0
M  END
> <clash_score>
0

> <docking_score>
-10.215189933776855

> <overlap_score>
0.8907980918884277

$$$$
BENZO_238_2
  -OEChem-08232013453D

 48 51  0     1  0  0  0  0  0999 V2000
    4.2750    1.7050   20.8490 C   0  0  0  0  0  0  0  0  0  0  0  0
    3.9160    2.0630   19.5520 C   0  0  0  0  0  0  0  0  0  0  0  0
    8.4741    5.0874   23.4171 C   0  0  0  0  0  0  0  0  0  0  0  0
    5.4210    0.9600   21.0930 C   0  0  0  0  0  0  0  0  0  0  0  0
    8.2342    3.7639   23.7862 C   0  0  0  0  0  0  0  0  0  0  0  0
    8.9960   -2.3380   25.5320 C   0  0  0  0  0  0  0  0  0  0  0  0
    9.6730   -3.4710   23.5300 C   0  0  0  0  0  0  0  0  0  0  0  0
    9.0720   -1.1280   24.8640 C   0  0  0  0  0  0  0  0  0  0  0  0
    9.7200   -2.2600   22.8630 C   0  0  0  0  0  0  0  0  0  0  0  0
    4.6890    1.6810   18.4640 C   0  0  0  0  0  0  0  0  0  0  0  0
    9.6155    5.4109   22.6835 C   0  0  0  0  0  0  0  0  0  0  0  0
   10.2772    3.0873   22.6883 C   0  0  0  0  0  0  0  0  0  0  0  0
    6.1790    0.5730   19.9990 C   0  0  0  0  0  0  0  0  0  0  0  0
    9.3070   -3.5340   24.8780 C   0  0  0  0  0  0  0  0  0  0  0  0
    9.3350   -1.0880   23.5010 C   0  0  0  0  0  0  0  0  0  0  0  0
    9.1357    2.7638   23.4219 C   0  0  0  0  0  0  0  0  0  0  0  0
    5.8300    0.9190   18.6970 C   0  0  0  0  0  0  0  0  0  0  0  0
   10.5171    4.4109   22.3191 C   0  0  0  0  0  0  0  0  0  0  0  0
    7.3170   -0.1610   19.8550 C   0  0  0  0  0  0  0  0  0  0  0  0
    9.0420    0.3700   21.5280 C   0  0  0  0  0  0  0  0  0  0  0  0
    9.2507   -4.8268   25.5895 C   0  0  0  0  0  0  0  0  0  0  0  0
    8.8757    1.3301   23.8233 C   0  0  0  0  0  0  0  0  0  0  0  0
    9.4560    0.1560   22.8130 C   0  0  2  0  0  0  0  0  0  0  0  0
    7.6390   -0.2680   18.5410 N   0  0  0  0  0  0  0  0  0  0  0  0
    6.7580    0.3810   17.8350 N   0  0  0  0  0  0  0  0  0  0  0  0
    8.1890   -0.7180   20.8700 N   0  0  0  0  0  0  0  0  0  0  0  0
    9.2690    1.4140   20.9380 O   0  0  0  0  0  0  0  0  0  0  0  0
   11.9257    4.8108   21.4150 Cl  0  0  0  0  0  0  0  0  0  0  0  0
    3.6468    2.0173   21.6825 H   0  0  0  0  0  0  0  0  0  0  0  0
    3.0153    2.6527   19.3907 H   0  0  0  0  0  0  0  0  0  0  0  0
    7.7719    5.8659   23.7012 H   0  0  0  0  0  0  0  0  0  0  0  0
    5.7015    0.6980   22.1071 H   0  0  0  0  0  0  0  0  0  0  0  0
    7.3423    3.5209   24.3579 H   0  0  0  0  0  0  0  0  0  0  0  0
    8.6904   -2.3557   26.5808 H   0  0  0  0  0  0  0  0  0  0  0  0
    9.9249   -4.3911   22.9935 H   0  0  0  0  0  0  0  0  0  0  0  0
    8.9209   -0.1987   25.4207 H   0  0  0  0  0  0  0  0  0  0  0  0
   10.0640   -2.2315   21.8255 H   0  0  0  0  0  0  0  0  0  0  0  0
    4.4064    1.9744   17.4453 H   0  0  0  0  0  0  0  0  0  0  0  0
    9.7898    6.4468   22.4029 H   0  0  0  0  0  0  0  0  0  0  0  0
   10.9768    2.3039   22.4061 H   0  0  0  0  0  0  0  0  0  0  0  0
    8.2506   -5.2684   25.5009 H   0  0  0  0  0  0  0  0  0  0  0  0
    9.9820   -5.5375   25.1832 H   0  0  0  0  0  0  0  0  0  0  0  0
    9.4843   -4.7055   26.6554 H   0  0  0  0  0  0  0  0  0  0  0  0
    9.2390    1.1684   24.8466 H   0  0  0  0  0  0  0  0  0  0  0  0
    7.7875    1.1860   23.8742 H   0  0  0  0  0  0  0  0  0  0  0  0
   10.6103    0.4565   22.8881 H   0  0  0  0  0  0  0  0  0  0  0  0
    6.8044    0.4388   16.8592 H   0  0  0  0  0  0  0  0  0  0  0  0
    8.2434   -1.5614   21.0991 H   0  0  0  0  0  0  0  0  0  0  0  0
  1  2  1  0  0  0  0
  1  4  2  0  0  0  0
  2 10  2  0  0  0  0
  3  5  2  0  0  0  0
  3 11  1  0  0  0  0
  4 13  1  0  0  0  0
  5 16  1  0  0  0  0
  6  8  2  0  0  0  0
  6 14  1  0  0  0  0
  7  9  1  0  0  0  0
  7 14  2  0  0  0  0
  8 15  1  0  0  0  0
  9 15  2  0  0  0  0
 10 17  1  0  0  0  0
 11 18  2  0  0  0  0
 12 16  2  0  0  0  0
 12 18  1  0  0  0  0
 13 17  2  0  0  0  0
 13 19  1  0  0  0  0
 14 21  1  0  0  0  0
 15 23  1  0  0  0  0
 16 22  1  0  0  0  0
 17 25  1  0  0  0  0
 18 28  1  0  0  0  0
 19 24  2  0  0  0  0
 19 26  1  0  0  0  0
 20 23  1  0  0  0  0
 20 26  1  0  0  0  0
 20 27  2  0  0  0  0
 22 23  1  6  0  0  0
 24 25  1  0  0  0  0
  1 29  1  0  0  0  0
  2 30  1  0  0  0  0
  3 31  1  0  0  0  0
  4 32  1  0  0  0  0
  5 33  1  0  0  0  0
  6 34  1  0  0  0  0
  7 35  1  0  0  0  0
  8 36  1  0  0  0  0
  9 37  1  0  0  0  0
 10 38  1  0  0  0  0
 11 39  1  0  0  0  0
 12 40  1  0  0  0  0
 21 41  1  0  0  0  0
 21 42  1  0  0  0  0
 21 43  1  0  0  0  0
 22 44  1  0  0  0  0
 22 45  1  0  0  0  0
 23 46  1  0  0  0  0
 25 47  1  0  0  0  0
 26 48  1  0  0  0  0
M  END
> <clash_score>
0

> <docking_score>
-5.660521507263184

> <overlap_score>
0.8013743758201599

$$$$
BENZO_239_1
  -OEChem-08232013453D

 48 51  0     1  0  0  0  0  0999 V2000
    4.2750    1.7050   20.8490 C   0  0  0  0  0  0  0  0  0  0  0  0
    3.9160    2.0630   19.5520 C   0  0  0  0  0  0  0  0  0  0  0  0
    5.4210    0.9600   21.0930 C   0  0  0  0  0  0  0  0  0  0  0  0
    8.9960   -2.3380   25.5320 C   0  0  0  0  0  0  0  0  0  0  0  0
    9.6730   -3.4710   23.5300 C   0  0  0  0  0  0  0  0  0  0  0  0
    9.0720   -1.1280   24.8640 C   0  0  0  0  0  0  0  0  0  0  0  0
    9.7200   -2.2600   22.8630 C   0  0  0  0  0  0  0  0  0  0  0  0
    4.6890    1.6810   18.4640 C   0  0  0  0  0  0  0  0  0  0  0  0
   10.2428    3.1457   23.5034 C   0  0  0  0  0  0  0  0  0  0  0  0
   12.2645    2.9188   22.6690 C   0  0  0  0  0  0  0  0  0  0  0  0
    6.1790    0.5730   19.9990 C   0  0  0  0  0  0  0  0  0  0  0  0
    9.3070   -3.5340   24.8780 C   0  0  0  0  0  0  0  0  0  0  0  0
    9.3350   -1.0880   23.5010 C   0  0  0  0  0  0  0  0  0  0  0  0
   11.1723    2.1848   23.0624 C   0  0  0  0  0  0  0  0  0  0  0  0
    5.8300    0.9190   18.6970 C   0  0  0  0  0  0  0  0  0  0  0  0
    7.3170   -0.1610   19.8550 C   0  0  0  0  0  0  0  0  0  0  0  0
    9.0420    0.3700   21.5280 C   0  0  0  0  0  0  0  0  0  0  0  0
    9.2507   -4.8268   25.5895 C   0  0  0  0  0  0  0  0  0  0  0  0
   12.7694    5.3728   22.6294 C   0  0  0  0  0  0  0  0  0  0  0  0
   11.0089    0.6825   23.0307 C   0  0  0  0  0  0  0  0  0  0  0  0
    9.4560    0.1560   22.8130 C   0  0  1  0  0  0  0  0  0  0  0  0
   10.7043    4.3948   23.4002 N   0  0  0  0  0  0  0  0  0  0  0  0
    7.6390   -0.2680   18.5410 N   0  0  0  0  0  0  0  0  0  0  0  0
    6.7580    0.3810   17.8350 N   0  0  0  0  0  0  0  0  0  0  0  0
   11.9358    4.2239   22.8900 N   0  0  0  0  0  0  0  0  0  0  0  0
    8.1890   -0.7180   20.8700 N   0  0  0  0  0  0  0  0  0  0  0  0
    9.2690    1.4140   20.9380 O   0  0  0  0  0  0  0  0  0  0  0  0
    3.6468    2.0173   21.6825 H   0  0  0  0  0  0  0  0  0  0  0  0
    3.0153    2.6527   19.3907 H   0  0  0  0  0  0  0  0  0  0  0  0
    5.7015    0.6980   22.1071 H   0  0  0  0  0  0  0  0  0  0  0  0
    8.6904   -2.3557   26.5808 H   0  0  0  0  0  0  0  0  0  0  0  0
    9.9249   -4.3911   22.9935 H   0  0  0  0  0  0  0  0  0  0  0  0
    8.9209   -0.1987   25.4207 H   0  0  0  0  0  0  0  0  0  0  0  0
   10.0640   -2.2315   21.8255 H   0  0  0  0  0  0  0  0  0  0  0  0
    4.4064    1.9744   17.4453 H   0  0  0  0  0  0  0  0  0  0  0  0
    9.2482    2.9901   23.8969 H   0  0  0  0  0  0  0  0  0  0  0  0
   13.2243    2.6307   22.2620 H   0  0  0  0  0  0  0  0  0  0  0  0
    8.2506   -5.2684   25.5009 H   0  0  0  0  0  0  0  0  0  0  0  0
    9.9820   -5.5375   25.1832 H   0  0  0  0  0  0  0  0  0  0  0  0
    9.4843   -4.7055   26.6554 H   0  0  0  0  0  0  0  0  0  0  0  0
   12.5744    5.7060   21.6066 H   0  0  0  0  0  0  0  0  0  0  0  0
   12.5290    6.1664   23.3423 H   0  0  0  0  0  0  0  0  0  0  0  0
   13.8196    5.0915   22.7473 H   0  0  0  0  0  0  0  0  0  0  0  0
   11.6011    0.2707   22.2030 H   0  0  0  0  0  0  0  0  0  0  0  0
   11.4624    0.2744   23.9446 H   0  0  0  0  0  0  0  0  0  0  0  0
    8.9284    0.9668   23.5149 H   0  0  0  0  0  0  0  0  0  0  0  0
    6.8044    0.4388   16.8592 H   0  0  0  0  0  0  0  0  0  0  0  0
    8.2434   -1.5614   21.0991 H   0  0  0  0  0  0  0  0  0  0  0  0
  1  2  1  0  0  0  0
  1  3  2  0  0  0  0
  2  8  2  0  0  0  0
  3 11  1  0  0  0  0
  4  6  2  0  0  0  0
  4 12  1  0  0  0  0
  5  7  1  0  0  0  0
  5 12  2  0  0  0  0
  6 13  1  0  0  0  0
  7 13  2  0  0  0  0
  8 15  1  0  0  0  0
  9 14  1  0  0  0  0
  9 22  2  0  0  0  0
 10 14  2  0  0  0  0
 10 25  1  0  0  0  0
 11 15  2  0  0  0  0
 11 16  1  0  0  0  0
 12 18  1  0  0  0  0
 13 21  1  0  0  0  0
 14 20  1  0  0  0  0
 15 24  1  0  0  0  0
 16 23  2  0  0  0  0
 16 26  1  0  0  0  0
 17 21  1  0  0  0  0
 17 26  1  0  0  0  0
 17 27  2  0  0  0  0
 19 25  1  0  0  0  0
 20 21  1  1  0  0  0
 22 25  1  0  0  0  0
 23 24  1  0  0  0  0
  1 28  1  0  0  0  0
  2 29  1  0  0  0  0
  3 30  1  0  0  0  0
  4 31  1  0  0  0  0
  5 32  1  0  0  0  0
  6 33  1  0  0  0  0
  7 34  1  0  0  0  0
  8 35  1  0  0  0  0
  9 36  1  0  0  0  0
 10 37  1  0  0  0  0
 18 38  1  0  0  0  0
 18 39  1  0  0  0  0
 18 40  1  0  0  0  0
 19 41  1  0  0  0  0
 19 42  1  0  0  0  0
 19 43  1  0  0  0  0
 20 44  1  0  0  0  0
 20 45  1  0  0  0  0
 21 46  1  0  0  0  0
 24 47  1  0  0  0  0
 26 48  1  0  0  0  0
M  END
> <clash_score>
0

> <docking_score>
-9.677865028381348

> <overlap_score>
0.8858461380004883

$$$$
BENZO_239_2
  -OEChem-08232013453D

 48 51  0     1  0  0  0  0  0999 V2000
    4.2750    1.7050   20.8490 C   0  0  0  0  0  0  0  0  0  0  0  0
    3.9160    2.0630   19.5520 C   0  0  0  0  0  0  0  0  0  0  0  0
    5.4210    0.9600   21.0930 C   0  0  0  0  0  0  0  0  0  0  0  0
    8.9960   -2.3380   25.5320 C   0  0  0  0  0  0  0  0  0  0  0  0
    9.6730   -3.4710   23.5300 C   0  0  0  0  0  0  0  0  0  0  0  0
    9.0720   -1.1280   24.8640 C   0  0  0  0  0  0  0  0  0  0  0  0
    9.7200   -2.2600   22.8630 C   0  0  0  0  0  0  0  0  0  0  0  0
    4.6890    1.6810   18.4640 C   0  0  0  0  0  0  0  0  0  0  0  0
    8.3456    3.8954   23.6994 C   0  0  0  0  0  0  0  0  0  0  0  0
   10.1996    3.2552   22.7054 C   0  0  0  0  0  0  0  0  0  0  0  0
    6.1790    0.5730   19.9990 C   0  0  0  0  0  0  0  0  0  0  0  0
    9.3070   -3.5340   24.8780 C   0  0  0  0  0  0  0  0  0  0  0  0
    9.3350   -1.0880   23.5010 C   0  0  0  0  0  0  0  0  0  0  0  0
    9.1357    2.7638   23.4218 C   0  0  0  0  0  0  0  0  0  0  0  0
    5.8300    0.9190   18.6970 C   0  0  0  0  0  0  0  0  0  0  0  0
    7.3170   -0.1610   19.8550 C   0  0  0  0  0  0  0  0  0  0  0  0
    9.0420    0.3700   21.5280 C   0  0  0  0  0  0  0  0  0  0  0  0
    9.2507   -4.8268   25.5895 C   0  0  0  0  0  0  0  0  0  0  0  0
   10.8452    5.5494   21.9318 C   0  0  0  0  0  0  0  0  0  0  0  0
    8.8757    1.3301   23.8233 C   0  0  0  0  0  0  0  0  0  0  0  0
    9.4560    0.1560   22.8130 C   0  0  2  0  0  0  0  0  0  0  0  0
    8.8634    5.0209   23.2001 N   0  0  0  0  0  0  0  0  0  0  0  0
    7.6390   -0.2680   18.5410 N   0  0  0  0  0  0  0  0  0  0  0  0
    6.7580    0.3810   17.8350 N   0  0  0  0  0  0  0  0  0  0  0  0
    9.9903    4.5990   22.6017 N   0  0  0  0  0  0  0  0  0  0  0  0
    8.1890   -0.7180   20.8700 N   0  0  0  0  0  0  0  0  0  0  0  0
    9.2690    1.4140   20.9380 O   0  0  0  0  0  0  0  0  0  0  0  0
    3.6468    2.0173   21.6825 H   0  0  0  0  0  0  0  0  0  0  0  0
    3.0153    2.6527   19.3907 H   0  0  0  0  0  0  0  0  0  0  0  0
    5.7015    0.6980   22.1071 H   0  0  0  0  0  0  0  0  0  0  0  0
    8.6904   -2.3557   26.5808 H   0  0  0  0  0  0  0  0  0  0  0  0
    9.9249   -4.3911   22.9935 H   0  0  0  0  0  0  0  0  0  0  0  0
    8.9209   -0.1987   25.4207 H   0  0  0  0  0  0  0  0  0  0  0  0
   10.0640   -2.2315   21.8255 H   0  0  0  0  0  0  0  0  0  0  0  0
    4.4064    1.9744   17.4453 H   0  0  0  0  0  0  0  0  0  0  0  0
    7.4142    3.9495   24.2451 H   0  0  0  0  0  0  0  0  0  0  0  0
   11.0668    2.7753   22.2725 H   0  0  0  0  0  0  0  0  0  0  0  0
    8.2506   -5.2684   25.5009 H   0  0  0  0  0  0  0  0  0  0  0  0
    9.9820   -5.5375   25.1832 H   0  0  0  0  0  0  0  0  0  0  0  0
    9.4843   -4.7055   26.6554 H   0  0  0  0  0  0  0  0  0  0  0  0
   10.5189    5.6214   20.8909 H   0  0  0  0  0  0  0  0  0  0  0  0
   10.7656    6.5219   22.4255 H   0  0  0  0  0  0  0  0  0  0  0  0
   11.8814    5.2042   21.9858 H   0  0  0  0  0  0  0  0  0  0  0  0
    9.2390    1.1684   24.8466 H   0  0  0  0  0  0  0  0  0  0  0  0
    7.7875    1.1860   23.8742 H   0  0  0  0  0  0  0  0  0  0  0  0
   10.6103    0.4565   22.8881 H   0  0  0  0  0  0  0  0  0  0  0  0
    6.8044    0.4388   16.8592 H   0  0  0  0  0  0  0  0  0  0  0  0
    8.2434   -1.5614   21.0991 H   0  0  0  0  0  0  0  0  0  0  0  0
  1  2  1  0  0  0  0
  1  3  2  0  0  0  0
  2  8  2  0  0  0  0
  3 11  1  0  0  0  0
  4  6  2  0  0  0  0
  4 12  1  0  0  0  0
  5  7  1  0  0  0  0
  5 12  2  0  0  0  0
  6 13  1  0  0  0  0
  7 13  2  0  0  0  0
  8 15  1  0  0  0  0
  9 14  1  0  0  0  0
  9 22  2  0  0  0  0
 10 14  2  0  0  0  0
 10 25  1  0  0  0  0
 11 15  2  0  0  0  0
 11 16  1  0  0  0  0
 12 18  1  0  0  0  0
 13 21  1  0  0  0  0
 14 20  1  0  0  0  0
 15 24  1  0  0  0  0
 16 23  2  0  0  0  0
 16 26  1  0  0  0  0
 17 21  1  0  0  0  0
 17 26  1  0  0  0  0
 17 27  2  0  0  0  0
 19 25  1  0  0  0  0
 20 21  1  6  0  0  0
 22 25  1  0  0  0  0
 23 24  1  0  0  0  0
  1 28  1  0  0  0  0
  2 29  1  0  0  0  0
  3 30  1  0  0  0  0
  4 31  1  0  0  0  0
  5 32  1  0  0  0  0
  6 33  1  0  0  0  0
  7 34  1  0  0  0  0
  8 35  1  0  0  0  0
  9 36  1  0  0  0  0
 10 37  1  0  0  0  0
 18 38  1  0  0  0  0
 18 39  1  0  0  0  0
 18 40  1  0  0  0  0
 19 41  1  0  0  0  0
 19 42  1  0  0  0  0
 19 43  1  0  0  0  0
 20 44  1  0  0  0  0
 20 45  1  0  0  0  0
 21 46  1  0  0  0  0
 24 47  1  0  0  0  0
 26 48  1  0  0  0  0
M  END
> <clash_score>
0.6141471566865251

> <docking_score>
-5.940790176391602

> <overlap_score>
0.7964432239532471

$$$$
BENZO_240_2
  -OEChem-08232013453D

 46 49  0     1  0  0  0  0  0999 V2000
    4.2750    1.7050   20.8490 C   0  0  0  0  0  0  0  0  0  0  0  0
    3.9160    2.0630   19.5520 C   0  0  0  0  0  0  0  0  0  0  0  0
    5.4210    0.9600   21.0930 C   0  0  0  0  0  0  0  0  0  0  0  0
    9.0720   -1.1280   24.8640 C   0  0  0  0  0  0  0  0  0  0  0  0
    9.7200   -2.2600   22.8630 C   0  0  0  0  0  0  0  0  0  0  0  0
    4.6890    1.6810   18.4640 C   0  0  0  0  0  0  0  0  0  0  0  0
    8.9960   -2.3380   25.5320 C   0  0  0  0  0  0  0  0  0  0  0  0
    9.6730   -3.4710   23.5300 C   0  0  0  0  0  0  0  0  0  0  0  0
   10.3314    3.2065   22.7858 C   0  0  0  0  0  0  0  0  0  0  0  0
   10.3108    4.5599   22.5298 C   0  0  0  0  0  0  0  0  0  0  0  0
    8.2468    3.7959   23.6280 C   0  0  0  0  0  0  0  0  0  0  0  0
    6.1790    0.5730   19.9990 C   0  0  0  0  0  0  0  0  0  0  0  0
    9.3350   -1.0880   23.5010 C   0  0  0  0  0  0  0  0  0  0  0  0
    9.1357    2.7638   23.4219 C   0  0  0  0  0  0  0  0  0  0  0  0
    5.8300    0.9190   18.6970 C   0  0  0  0  0  0  0  0  0  0  0  0
    9.3070   -3.5340   24.8780 C   0  0  0  0  0  0  0  0  0  0  0  0
    7.3170   -0.1610   19.8550 C   0  0  0  0  0  0  0  0  0  0  0  0
    9.0420    0.3700   21.5280 C   0  0  0  0  0  0  0  0  0  0  0  0
    9.5904   -5.8808   24.7806 C   0  0  0  0  0  0  0  0  0  0  0  0
    8.8757    1.3301   23.8233 C   0  0  0  0  0  0  0  0  0  0  0  0
    9.4560    0.1560   22.8130 C   0  0  2  0  0  0  0  0  0  0  0  0
    7.6390   -0.2680   18.5410 N   0  0  0  0  0  0  0  0  0  0  0  0
    6.7580    0.3810   17.8350 N   0  0  0  0  0  0  0  0  0  0  0  0
    8.1890   -0.7180   20.8700 N   0  0  0  0  0  0  0  0  0  0  0  0
    9.2690    1.4140   20.9380 O   0  0  0  0  0  0  0  0  0  0  0  0
    9.2567   -4.7121   25.5280 O   0  0  0  0  0  0  0  0  0  0  0  0
    8.8543    5.2911   23.0556 S   0  0  0  0  0  0  0  0  0  0  0  0
    3.6468    2.0173   21.6825 H   0  0  0  0  0  0  0  0  0  0  0  0
    3.0153    2.6527   19.3907 H   0  0  0  0  0  0  0  0  0  0  0  0
    5.7015    0.6980   22.1071 H   0  0  0  0  0  0  0  0  0  0  0  0
    8.9224   -0.1986   25.4209 H   0  0  0  0  0  0  0  0  0  0  0  0
   10.0638   -2.2321   21.8253 H   0  0  0  0  0  0  0  0  0  0  0  0
    4.4064    1.9744   17.4453 H   0  0  0  0  0  0  0  0  0  0  0  0
    8.6903   -2.3588   26.5807 H   0  0  0  0  0  0  0  0  0  0  0  0
    9.9258   -4.3917   22.9962 H   0  0  0  0  0  0  0  0  0  0  0  0
   11.1669    2.5681   22.5277 H   0  0  0  0  0  0  0  0  0  0  0  0
   11.0815    5.1544   22.0599 H   0  0  0  0  0  0  0  0  0  0  0  0
    7.2694    3.7480   24.0879 H   0  0  0  0  0  0  0  0  0  0  0  0
    9.5095   -6.7607   25.4235 H   0  0  0  0  0  0  0  0  0  0  0  0
   10.6094   -5.7898   24.3961 H   0  0  0  0  0  0  0  0  0  0  0  0
    8.8947   -5.9784   23.9439 H   0  0  0  0  0  0  0  0  0  0  0  0
    9.2390    1.1684   24.8466 H   0  0  0  0  0  0  0  0  0  0  0  0
    7.7875    1.1860   23.8742 H   0  0  0  0  0  0  0  0  0  0  0  0
   10.6103    0.4565   22.8881 H   0  0  0  0  0  0  0  0  0  0  0  0
    6.8044    0.4388   16.8592 H   0  0  0  0  0  0  0  0  0  0  0  0
    8.2434   -1.5614   21.0991 H   0  0  0  0  0  0  0  0  0  0  0  0
  1  2  1  0  0  0  0
  1  3  2  0  0  0  0
  2  6  2  0  0  0  0
  3 12  1  0  0  0  0
  4  7  2  0  0  0  0
  4 13  1  0  0  0  0
  5  8  1  0  0  0  0
  5 13  2  0  0  0  0
  6 15  1  0  0  0  0
  7 16  1  0  0  0  0
  8 16  2  0  0  0  0
  9 10  2  0  0  0  0
  9 14  1  0  0  0  0
 10 27  1  0  0  0  0
 11 14  2  0  0  0  0
 11 27  1  0  0  0  0
 12 15  2  0  0  0  0
 12 17  1  0  0  0  0
 13 21  1  0  0  0  0
 14 20  1  0  0  0  0
 15 23  1  0  0  0  0
 16 26  1  0  0  0  0
 17 22  2  0  0  0  0
 17 24  1  0  0  0  0
 18 21  1  0  0  0  0
 18 24  1  0  0  0  0
 18 25  2  0  0  0  0
 19 26  1  0  0  0  0
 20 21  1  6  0  0  0
 22 23  1  0  0  0  0
  1 28  1  0  0  0  0
  2 29  1  0  0  0  0
  3 30  1  0  0  0  0
  4 31  1  0  0  0  0
  5 32  1  0  0  0  0
  6 33  1  0  0  0  0
  7 34  1  0  0  0  0
  8 35  1  0  0  0  0
  9 36  1  0  0  0  0
 10 37  1  0  0  0  0
 11 38  1  0  0  0  0
 19 39  1  0  0  0  0
 19 40  1  0  0  0  0
 19 41  1  0  0  0  0
 20 42  1  0  0  0  0
 20 43  1  0  0  0  0
 21 44  1  0  0  0  0
 23 45  1  0  0  0  0
 24 46  1  0  0  0  0
M  END
> <clash_score>
0

> <docking_score>
-6.401369094848633

> <overlap_score>
0.8258882164955139

$$$$
BENZO_240_1
  -OEChem-08232013453D

 46 49  0     1  0  0  0  0  0999 V2000
    4.2750    1.7050   20.8490 C   0  0  0  0  0  0  0  0  0  0  0  0
    3.9160    2.0630   19.5520 C   0  0  0  0  0  0  0  0  0  0  0  0
    5.4210    0.9600   21.0930 C   0  0  0  0  0  0  0  0  0  0  0  0
    9.0720   -1.1280   24.8640 C   0  0  0  0  0  0  0  0  0  0  0  0
    9.7200   -2.2600   22.8630 C   0  0  0  0  0  0  0  0  0  0  0  0
    4.6890    1.6810   18.4640 C   0  0  0  0  0  0  0  0  0  0  0  0
    8.9960   -2.3380   25.5320 C   0  0  0  0  0  0  0  0  0  0  0  0
    9.6730   -3.4710   23.5300 C   0  0  0  0  0  0  0  0  0  0  0  0
   11.9789    2.9159   22.1431 C   0  0  0  0  0  0  0  0  0  0  0  0
   11.9531    4.2698   22.3953 C   0  0  0  0  0  0  0  0  0  0  0  0
   10.5610    3.0079   23.9825 C   0  0  0  0  0  0  0  0  0  0  0  0
    6.1790    0.5730   19.9990 C   0  0  0  0  0  0  0  0  0  0  0  0
    9.3350   -1.0880   23.5010 C   0  0  0  0  0  0  0  0  0  0  0  0
   11.1723    2.1848   23.0624 C   0  0  0  0  0  0  0  0  0  0  0  0
    5.8300    0.9190   18.6970 C   0  0  0  0  0  0  0  0  0  0  0  0
    9.3070   -3.5340   24.8780 C   0  0  0  0  0  0  0  0  0  0  0  0
    7.3170   -0.1610   19.8550 C   0  0  0  0  0  0  0  0  0  0  0  0
    9.0420    0.3700   21.5280 C   0  0  0  0  0  0  0  0  0  0  0  0
    9.5904   -5.8808   24.7806 C   0  0  0  0  0  0  0  0  0  0  0  0
   11.0089    0.6825   23.0307 C   0  0  0  0  0  0  0  0  0  0  0  0
    9.4560    0.1560   22.8130 C   0  0  1  0  0  0  0  0  0  0  0  0
    7.6390   -0.2680   18.5410 N   0  0  0  0  0  0  0  0  0  0  0  0
    6.7580    0.3810   17.8350 N   0  0  0  0  0  0  0  0  0  0  0  0
    8.1890   -0.7180   20.8700 N   0  0  0  0  0  0  0  0  0  0  0  0
    9.2690    1.4140   20.9380 O   0  0  0  0  0  0  0  0  0  0  0  0
    9.2567   -4.7121   25.5280 O   0  0  0  0  0  0  0  0  0  0  0  0
   10.9597    4.6549   23.7359 S   0  0  0  0  0  0  0  0  0  0  0  0
    3.6468    2.0173   21.6825 H   0  0  0  0  0  0  0  0  0  0  0  0
    3.0153    2.6527   19.3907 H   0  0  0  0  0  0  0  0  0  0  0  0
    5.7015    0.6980   22.1071 H   0  0  0  0  0  0  0  0  0  0  0  0
    8.9224   -0.1986   25.4209 H   0  0  0  0  0  0  0  0  0  0  0  0
   10.0638   -2.2321   21.8253 H   0  0  0  0  0  0  0  0  0  0  0  0
    4.4064    1.9744   17.4453 H   0  0  0  0  0  0  0  0  0  0  0  0
    8.6903   -2.3588   26.5807 H   0  0  0  0  0  0  0  0  0  0  0  0
    9.9258   -4.3917   22.9962 H   0  0  0  0  0  0  0  0  0  0  0  0
   12.5509    2.4750   21.3365 H   0  0  0  0  0  0  0  0  0  0  0  0
   12.4707    5.0513   21.8570 H   0  0  0  0  0  0  0  0  0  0  0  0
    9.8997    2.7250   24.7898 H   0  0  0  0  0  0  0  0  0  0  0  0
    9.5095   -6.7607   25.4235 H   0  0  0  0  0  0  0  0  0  0  0  0
   10.6094   -5.7898   24.3961 H   0  0  0  0  0  0  0  0  0  0  0  0
    8.8947   -5.9784   23.9439 H   0  0  0  0  0  0  0  0  0  0  0  0
   11.6011    0.2707   22.2030 H   0  0  0  0  0  0  0  0  0  0  0  0
   11.4624    0.2744   23.9446 H   0  0  0  0  0  0  0  0  0  0  0  0
    8.9284    0.9668   23.5149 H   0  0  0  0  0  0  0  0  0  0  0  0
    6.8044    0.4388   16.8592 H   0  0  0  0  0  0  0  0  0  0  0  0
    8.2434   -1.5614   21.0991 H   0  0  0  0  0  0  0  0  0  0  0  0
  1  2  1  0  0  0  0
  1  3  2  0  0  0  0
  2  6  2  0  0  0  0
  3 12  1  0  0  0  0
  4  7  2  0  0  0  0
  4 13  1  0  0  0  0
  5  8  1  0  0  0  0
  5 13  2  0  0  0  0
  6 15  1  0  0  0  0
  7 16  1  0  0  0  0
  8 16  2  0  0  0  0
  9 10  2  0  0  0  0
  9 14  1  0  0  0  0
 10 27  1  0  0  0  0
 11 14  2  0  0  0  0
 11 27  1  0  0  0  0
 12 15  2  0  0  0  0
 12 17  1  0  0  0  0
 13 21  1  0  0  0  0
 14 20  1  0  0  0  0
 15 23  1  0  0  0  0
 16 26  1  0  0  0  0
 17 22  2  0  0  0  0
 17 24  1  0  0  0  0
 18 21  1  0  0  0  0
 18 24  1  0  0  0  0
 18 25  2  0  0  0  0
 19 26  1  0  0  0  0
 20 21  1  1  0  0  0
 22 23  1  0  0  0  0
  1 28  1  0  0  0  0
  2 29  1  0  0  0  0
  3 30  1  0  0  0  0
  4 31  1  0  0  0  0
  5 32  1  0  0  0  0
  6 33  1  0  0  0  0
  7 34  1  0  0  0  0
  8 35  1  0  0  0  0
  9 36  1  0  0  0  0
 10 37  1  0  0  0  0
 11 38  1  0  0  0  0
 19 39  1  0  0  0  0
 19 40  1  0  0  0  0
 19 41  1  0  0  0  0
 20 42  1  0  0  0  0
 20 43  1  0  0  0  0
 21 44  1  0  0  0  0
 23 45  1  0  0  0  0
 24 46  1  0  0  0  0
M  END
> <clash_score>
0

> <docking_score>
-8.520294189453125

> <overlap_score>
0.9019696712493896

$$$$
BENZO_241_1
  -OEChem-08232013453D

 49 52  0     1  0  0  0  0  0999 V2000
   11.4726    4.9577   23.1210 C   0  0  0  0  0  0  0  0  0  0  0  0
    4.2750    1.7050   20.8490 C   0  0  0  0  0  0  0  0  0  0  0  0
   12.5103    4.1537   22.6496 C   0  0  0  0  0  0  0  0  0  0  0  0
   10.2847    4.3752   23.5633 C   0  0  0  0  0  0  0  0  0  0  0  0
    3.9160    2.0630   19.5520 C   0  0  0  0  0  0  0  0  0  0  0  0
    5.4210    0.9600   21.0930 C   0  0  0  0  0  0  0  0  0  0  0  0
   12.3602    2.7672   22.6203 C   0  0  0  0  0  0  0  0  0  0  0  0
   10.1346    2.9888   23.5339 C   0  0  0  0  0  0  0  0  0  0  0  0
    9.0720   -1.1280   24.8640 C   0  0  0  0  0  0  0  0  0  0  0  0
    9.7200   -2.2600   22.8630 C   0  0  0  0  0  0  0  0  0  0  0  0
    4.6890    1.6810   18.4640 C   0  0  0  0  0  0  0  0  0  0  0  0
    8.9960   -2.3380   25.5320 C   0  0  0  0  0  0  0  0  0  0  0  0
    9.6730   -3.4710   23.5300 C   0  0  0  0  0  0  0  0  0  0  0  0
    6.1790    0.5730   19.9990 C   0  0  0  0  0  0  0  0  0  0  0  0
   11.1723    2.1848   23.0624 C   0  0  0  0  0  0  0  0  0  0  0  0
    9.3350   -1.0880   23.5010 C   0  0  0  0  0  0  0  0  0  0  0  0
    5.8300    0.9190   18.6970 C   0  0  0  0  0  0  0  0  0  0  0  0
    9.3070   -3.5340   24.8780 C   0  0  0  0  0  0  0  0  0  0  0  0
    7.3170   -0.1610   19.8550 C   0  0  0  0  0  0  0  0  0  0  0  0
    9.0420    0.3700   21.5280 C   0  0  0  0  0  0  0  0  0  0  0  0
    8.8744   -4.6797   26.9022 C   0  0  0  0  0  0  0  0  0  0  0  0
   11.0089    0.6825   23.0307 C   0  0  0  0  0  0  0  0  0  0  0  0
    9.4560    0.1560   22.8130 C   0  0  1  0  0  0  0  0  0  0  0  0
    7.6390   -0.2680   18.5410 N   0  0  0  0  0  0  0  0  0  0  0  0
    6.7580    0.3810   17.8350 N   0  0  0  0  0  0  0  0  0  0  0  0
    8.1890   -0.7180   20.8700 N   0  0  0  0  0  0  0  0  0  0  0  0
    9.2690    1.4140   20.9380 O   0  0  0  0  0  0  0  0  0  0  0  0
    9.2567   -4.7121   25.5280 O   0  0  0  0  0  0  0  0  0  0  0  0
   11.5901    6.0371   23.1451 H   0  0  0  0  0  0  0  0  0  0  0  0
    3.6468    2.0173   21.6825 H   0  0  0  0  0  0  0  0  0  0  0  0
   13.4357    4.6069   22.3063 H   0  0  0  0  0  0  0  0  0  0  0  0
    9.4770    5.0009   23.9314 H   0  0  0  0  0  0  0  0  0  0  0  0
    3.0153    2.6527   19.3907 H   0  0  0  0  0  0  0  0  0  0  0  0
    5.7015    0.6980   22.1071 H   0  0  0  0  0  0  0  0  0  0  0  0
   13.1740    2.1486   22.2511 H   0  0  0  0  0  0  0  0  0  0  0  0
    9.2056    2.5438   23.8803 H   0  0  0  0  0  0  0  0  0  0  0  0
    8.9224   -0.1986   25.4209 H   0  0  0  0  0  0  0  0  0  0  0  0
   10.0638   -2.2321   21.8253 H   0  0  0  0  0  0  0  0  0  0  0  0
    4.4064    1.9744   17.4453 H   0  0  0  0  0  0  0  0  0  0  0  0
    8.6903   -2.3588   26.5807 H   0  0  0  0  0  0  0  0  0  0  0  0
    9.9258   -4.3917   22.9962 H   0  0  0  0  0  0  0  0  0  0  0  0
    8.8744   -5.6954   27.3053 H   0  0  0  0  0  0  0  0  0  0  0  0
    7.8781   -4.2399   26.9939 H   0  0  0  0  0  0  0  0  0  0  0  0
    9.5921   -4.0702   27.4565 H   0  0  0  0  0  0  0  0  0  0  0  0
   11.6011    0.2707   22.2030 H   0  0  0  0  0  0  0  0  0  0  0  0
   11.4624    0.2744   23.9446 H   0  0  0  0  0  0  0  0  0  0  0  0
    8.9284    0.9668   23.5149 H   0  0  0  0  0  0  0  0  0  0  0  0
    6.8044    0.4388   16.8592 H   0  0  0  0  0  0  0  0  0  0  0  0
    8.2434   -1.5614   21.0991 H   0  0  0  0  0  0  0  0  0  0  0  0
  1  3  1  0  0  0  0
  1  4  2  0  0  0  0
  2  5  1  0  0  0  0
  2  6  2  0  0  0  0
  3  7  2  0  0  0  0
  4  8  1  0  0  0  0
  5 11  2  0  0  0  0
  6 14  1  0  0  0  0
  7 15  1  0  0  0  0
  8 15  2  0  0  0  0
  9 12  2  0  0  0  0
  9 16  1  0  0  0  0
 10 13  1  0  0  0  0
 10 16  2  0  0  0  0
 11 17  1  0  0  0  0
 12 18  1  0  0  0  0
 13 18  2  0  0  0  0
 14 17  2  0  0  0  0
 14 19  1  0  0  0  0
 15 22  1  0  0  0  0
 16 23  1  0  0  0  0
 17 25  1  0  0  0  0
 18 28  1  0  0  0  0
 19 24  2  0  0  0  0
 19 26  1  0  0  0  0
 20 23  1  0  0  0  0
 20 26  1  0  0  0  0
 20 27  2  0  0  0  0
 21 28  1  0  0  0  0
 22 23  1  1  0  0  0
 24 25  1  0  0  0  0
  1 29  1  0  0  0  0
  2 30  1  0  0  0  0
  3 31  1  0  0  0  0
  4 32  1  0  0  0  0
  5 33  1  0  0  0  0
  6 34  1  0  0  0  0
  7 35  1  0  0  0  0
  8 36  1  0  0  0  0
  9 37  1  0  0  0  0
 10 38  1  0  0  0  0
 11 39  1  0  0  0  0
 12 40  1  0  0  0  0
 13 41  1  0  0  0  0
 21 42  1  0  0  0  0
 21 43  1  0  0  0  0
 21 44  1  0  0  0  0
 22 45  1  0  0  0  0
 22 46  1  0  0  0  0
 23 47  1  0  0  0  0
 25 48  1  0  0  0  0
 26 49  1  0  0  0  0
M  END
> <clash_score>
0

> <docking_score>
-9.506105422973633

> <overlap_score>
0.9121972918510437

$$$$
BENZO_241_2
  -OEChem-08232013453D

 49 52  0     1  0  0  0  0  0999 V2000
    9.6170    5.4099   22.6808 C   0  0  0  0  0  0  0  0  0  0  0  0
    4.2750    1.7050   20.8490 C   0  0  0  0  0  0  0  0  0  0  0  0
    8.4752    5.0878   23.4143 C   0  0  0  0  0  0  0  0  0  0  0  0
   10.5182    4.4090   22.3177 C   0  0  0  0  0  0  0  0  0  0  0  0
    3.9160    2.0630   19.5520 C   0  0  0  0  0  0  0  0  0  0  0  0
    5.4210    0.9600   21.0930 C   0  0  0  0  0  0  0  0  0  0  0  0
    8.2345    3.7648   23.7849 C   0  0  0  0  0  0  0  0  0  0  0  0
   10.2775    3.0860   22.6883 C   0  0  0  0  0  0  0  0  0  0  0  0
    9.0720   -1.1280   24.8640 C   0  0  0  0  0  0  0  0  0  0  0  0
    9.7200   -2.2600   22.8630 C   0  0  0  0  0  0  0  0  0  0  0  0
    4.6890    1.6810   18.4640 C   0  0  0  0  0  0  0  0  0  0  0  0
    8.9960   -2.3380   25.5320 C   0  0  0  0  0  0  0  0  0  0  0  0
    9.6730   -3.4710   23.5300 C   0  0  0  0  0  0  0  0  0  0  0  0
    6.1790    0.5730   19.9990 C   0  0  0  0  0  0  0  0  0  0  0  0
    9.1357    2.7638   23.4219 C   0  0  0  0  0  0  0  0  0  0  0  0
    9.3350   -1.0880   23.5010 C   0  0  0  0  0  0  0  0  0  0  0  0
    5.8300    0.9190   18.6970 C   0  0  0  0  0  0  0  0  0  0  0  0
    9.3070   -3.5340   24.8780 C   0  0  0  0  0  0  0  0  0  0  0  0
    7.3170   -0.1610   19.8550 C   0  0  0  0  0  0  0  0  0  0  0  0
    9.0420    0.3700   21.5280 C   0  0  0  0  0  0  0  0  0  0  0  0
    9.5904   -5.8808   24.7806 C   0  0  0  0  0  0  0  0  0  0  0  0
    8.8757    1.3301   23.8233 C   0  0  0  0  0  0  0  0  0  0  0  0
    9.4560    0.1560   22.8130 C   0  0  2  0  0  0  0  0  0  0  0  0
    7.6390   -0.2680   18.5410 N   0  0  0  0  0  0  0  0  0  0  0  0
    6.7580    0.3810   17.8350 N   0  0  0  0  0  0  0  0  0  0  0  0
    8.1890   -0.7180   20.8700 N   0  0  0  0  0  0  0  0  0  0  0  0
    9.2690    1.4140   20.9380 O   0  0  0  0  0  0  0  0  0  0  0  0
    9.2567   -4.7121   25.5280 O   0  0  0  0  0  0  0  0  0  0  0  0
    9.8035    6.4400   22.3912 H   0  0  0  0  0  0  0  0  0  0  0  0
    3.6468    2.0173   21.6825 H   0  0  0  0  0  0  0  0  0  0  0  0
    7.7728    5.8668   23.6961 H   0  0  0  0  0  0  0  0  0  0  0  0
   11.4067    4.6593   21.7457 H   0  0  0  0  0  0  0  0  0  0  0  0
    3.0153    2.6527   19.3907 H   0  0  0  0  0  0  0  0  0  0  0  0
    5.7015    0.6980   22.1071 H   0  0  0  0  0  0  0  0  0  0  0  0
    7.3424    3.5231   24.3565 H   0  0  0  0  0  0  0  0  0  0  0  0
   10.9853    2.3128   22.4011 H   0  0  0  0  0  0  0  0  0  0  0  0
    8.9224   -0.1986   25.4209 H   0  0  0  0  0  0  0  0  0  0  0  0
   10.0638   -2.2321   21.8253 H   0  0  0  0  0  0  0  0  0  0  0  0
    4.4064    1.9744   17.4453 H   0  0  0  0  0  0  0  0  0  0  0  0
    8.6903   -2.3588   26.5807 H   0  0  0  0  0  0  0  0  0  0  0  0
    9.9258   -4.3917   22.9962 H   0  0  0  0  0  0  0  0  0  0  0  0
    9.5095   -6.7607   25.4235 H   0  0  0  0  0  0  0  0  0  0  0  0
   10.6094   -5.7898   24.3961 H   0  0  0  0  0  0  0  0  0  0  0  0
    8.8947   -5.9784   23.9439 H   0  0  0  0  0  0  0  0  0  0  0  0
    9.2390    1.1684   24.8466 H   0  0  0  0  0  0  0  0  0  0  0  0
    7.7875    1.1860   23.8742 H   0  0  0  0  0  0  0  0  0  0  0  0
   10.6103    0.4565   22.8881 H   0  0  0  0  0  0  0  0  0  0  0  0
    6.8044    0.4388   16.8592 H   0  0  0  0  0  0  0  0  0  0  0  0
    8.2434   -1.5614   21.0991 H   0  0  0  0  0  0  0  0  0  0  0  0
  1  3  1  0  0  0  0
  1  4  2  0  0  0  0
  2  5  1  0  0  0  0
  2  6  2  0  0  0  0
  3  7  2  0  0  0  0
  4  8  1  0  0  0  0
  5 11  2  0  0  0  0
  6 14  1  0  0  0  0
  7 15  1  0  0  0  0
  8 15  2  0  0  0  0
  9 12  2  0  0  0  0
  9 16  1  0  0  0  0
 10 13  1  0  0  0  0
 10 16  2  0  0  0  0
 11 17  1  0  0  0  0
 12 18  1  0  0  0  0
 13 18  2  0  0  0  0
 14 17  2  0  0  0  0
 14 19  1  0  0  0  0
 15 22  1  0  0  0  0
 16 23  1  0  0  0  0
 17 25  1  0  0  0  0
 18 28  1  0  0  0  0
 19 24  2  0  0  0  0
 19 26  1  0  0  0  0
 20 23  1  0  0  0  0
 20 26  1  0  0  0  0
 20 27  2  0  0  0  0
 21 28  1  0  0  0  0
 22 23  1  6  0  0  0
 24 25  1  0  0  0  0
  1 29  1  0  0  0  0
  2 30  1  0  0  0  0
  3 31  1  0  0  0  0
  4 32  1  0  0  0  0
  5 33  1  0  0  0  0
  6 34  1  0  0  0  0
  7 35  1  0  0  0  0
  8 36  1  0  0  0  0
  9 37  1  0  0  0  0
 10 38  1  0  0  0  0
 11 39  1  0  0  0  0
 12 40  1  0  0  0  0
 13 41  1  0  0  0  0
 21 42  1  0  0  0  0
 21 43  1  0  0  0  0
 21 44  1  0  0  0  0
 22 45  1  0  0  0  0
 22 46  1  0  0  0  0
 23 47  1  0  0  0  0
 25 48  1  0  0  0  0
 26 49  1  0  0  0  0
M  END
> <clash_score>
0

> <docking_score>
-6.014250755310059

> <overlap_score>
0.8256528973579407

$$$$
BENZO_242_1
  -OEChem-08232013453D

 49 52  0     1  0  0  0  0  0999 V2000
    4.2750    1.7050   20.8490 C   0  0  0  0  0  0  0  0  0  0  0  0
    3.9160    2.0630   19.5520 C   0  0  0  0  0  0  0  0  0  0  0  0
   10.2856    4.3750   23.5656 C   0  0  0  0  0  0  0  0  0  0  0  0
    5.4210    0.9600   21.0930 C   0  0  0  0  0  0  0  0  0  0  0  0
   10.1350    2.9887   23.5349 C   0  0  0  0  0  0  0  0  0  0  0  0
    9.0720   -1.1280   24.8640 C   0  0  0  0  0  0  0  0  0  0  0  0
    9.7200   -2.2600   22.8630 C   0  0  0  0  0  0  0  0  0  0  0  0
    4.6890    1.6810   18.4640 C   0  0  0  0  0  0  0  0  0  0  0  0
    8.9960   -2.3380   25.5320 C   0  0  0  0  0  0  0  0  0  0  0  0
    9.6730   -3.4710   23.5300 C   0  0  0  0  0  0  0  0  0  0  0  0
   11.4735    4.9575   23.1236 C   0  0  0  0  0  0  0  0  0  0  0  0
   12.3603    2.7672   22.6205 C   0  0  0  0  0  0  0  0  0  0  0  0
    6.1790    0.5730   19.9990 C   0  0  0  0  0  0  0  0  0  0  0  0
    9.3350   -1.0880   23.5010 C   0  0  0  0  0  0  0  0  0  0  0  0
   11.1723    2.1848   23.0624 C   0  0  0  0  0  0  0  0  0  0  0  0
    5.8300    0.9190   18.6970 C   0  0  0  0  0  0  0  0  0  0  0  0
    9.3070   -3.5340   24.8780 C   0  0  0  0  0  0  0  0  0  0  0  0
   12.5108    4.1536   22.6511 C   0  0  0  0  0  0  0  0  0  0  0  0
    7.3170   -0.1610   19.8550 C   0  0  0  0  0  0  0  0  0  0  0  0
    9.0420    0.3700   21.5280 C   0  0  0  0  0  0  0  0  0  0  0  0
    9.5904   -5.8808   24.7806 C   0  0  0  0  0  0  0  0  0  0  0  0
   11.0089    0.6825   23.0307 C   0  0  0  0  0  0  0  0  0  0  0  0
    9.4560    0.1560   22.8130 C   0  0  1  0  0  0  0  0  0  0  0  0
    7.6390   -0.2680   18.5410 N   0  0  0  0  0  0  0  0  0  0  0  0
    6.7580    0.3810   17.8350 N   0  0  0  0  0  0  0  0  0  0  0  0
    8.1890   -0.7180   20.8700 N   0  0  0  0  0  0  0  0  0  0  0  0
    9.2690    1.4140   20.9380 O   0  0  0  0  0  0  0  0  0  0  0  0
    9.2567   -4.7121   25.5280 O   0  0  0  0  0  0  0  0  0  0  0  0
   13.9766    4.8727   22.1070 Cl  0  0  0  0  0  0  0  0  0  0  0  0
    3.6468    2.0173   21.6825 H   0  0  0  0  0  0  0  0  0  0  0  0
    3.0153    2.6527   19.3907 H   0  0  0  0  0  0  0  0  0  0  0  0
    9.4776    5.0007   23.9337 H   0  0  0  0  0  0  0  0  0  0  0  0
    5.7015    0.6980   22.1071 H   0  0  0  0  0  0  0  0  0  0  0  0
    9.2060    2.5434   23.8814 H   0  0  0  0  0  0  0  0  0  0  0  0
    8.9224   -0.1986   25.4209 H   0  0  0  0  0  0  0  0  0  0  0  0
   10.0638   -2.2321   21.8253 H   0  0  0  0  0  0  0  0  0  0  0  0
    4.4064    1.9744   17.4453 H   0  0  0  0  0  0  0  0  0  0  0  0
    8.6903   -2.3588   26.5807 H   0  0  0  0  0  0  0  0  0  0  0  0
    9.9258   -4.3917   22.9962 H   0  0  0  0  0  0  0  0  0  0  0  0
   11.5769    6.0394   23.1535 H   0  0  0  0  0  0  0  0  0  0  0  0
   13.1659    2.1361   22.2525 H   0  0  0  0  0  0  0  0  0  0  0  0
    9.5095   -6.7607   25.4235 H   0  0  0  0  0  0  0  0  0  0  0  0
   10.6094   -5.7898   24.3961 H   0  0  0  0  0  0  0  0  0  0  0  0
    8.8947   -5.9784   23.9439 H   0  0  0  0  0  0  0  0  0  0  0  0
   11.6011    0.2707   22.2030 H   0  0  0  0  0  0  0  0  0  0  0  0
   11.4624    0.2744   23.9446 H   0  0  0  0  0  0  0  0  0  0  0  0
    8.9284    0.9668   23.5149 H   0  0  0  0  0  0  0  0  0  0  0  0
    6.8044    0.4388   16.8592 H   0  0  0  0  0  0  0  0  0  0  0  0
    8.2434   -1.5614   21.0991 H   0  0  0  0  0  0  0  0  0  0  0  0
  1  2  1  0  0  0  0
  1  4  2  0  0  0  0
  2  8  2  0  0  0  0
  3  5  2  0  0  0  0
  3 11  1  0  0  0  0
  4 13  1  0  0  0  0
  5 15  1  0  0  0  0
  6  9  2  0  0  0  0
  6 14  1  0  0  0  0
  7 10  1  0  0  0  0
  7 14  2  0  0  0  0
  8 16  1  0  0  0  0
  9 17  1  0  0  0  0
 10 17  2  0  0  0  0
 11 18  2  0  0  0  0
 12 15  2  0  0  0  0
 12 18  1  0  0  0  0
 13 16  2  0  0  0  0
 13 19  1  0  0  0  0
 14 23  1  0  0  0  0
 15 22  1  0  0  0  0
 16 25  1  0  0  0  0
 17 28  1  0  0  0  0
 18 29  1  0  0  0  0
 19 24  2  0  0  0  0
 19 26  1  0  0  0  0
 20 23  1  0  0  0  0
 20 26  1  0  0  0  0
 20 27  2  0  0  0  0
 21 28  1  0  0  0  0
 22 23  1  1  0  0  0
 24 25  1  0  0  0  0
  1 30  1  0  0  0  0
  2 31  1  0  0  0  0
  3 32  1  0  0  0  0
  4 33  1  0  0  0  0
  5 34  1  0  0  0  0
  6 35  1  0  0  0  0
  7 36  1  0  0  0  0
  8 37  1  0  0  0  0
  9 38  1  0  0  0  0
 10 39  1  0  0  0  0
 11 40  1  0  0  0  0
 12 41  1  0  0  0  0
 21 42  1  0  0  0  0
 21 43  1  0  0  0  0
 21 44  1  0  0  0  0
 22 45  1  0  0  0  0
 22 46  1  0  0  0  0
 23 47  1  0  0  0  0
 25 48  1  0  0  0  0
 26 49  1  0  0  0  0
M  END
> <clash_score>
0

> <docking_score>
-9.922075271606445

> <overlap_score>
0.9156606793403625

$$$$
BENZO_242_2
  -OEChem-08232013453D

 49 52  0     1  0  0  0  0  0999 V2000
    4.2750    1.7050   20.8490 C   0  0  0  0  0  0  0  0  0  0  0  0
    3.9160    2.0630   19.5520 C   0  0  0  0  0  0  0  0  0  0  0  0
    8.4741    5.0874   23.4171 C   0  0  0  0  0  0  0  0  0  0  0  0
    5.4210    0.9600   21.0930 C   0  0  0  0  0  0  0  0  0  0  0  0
    8.2342    3.7639   23.7862 C   0  0  0  0  0  0  0  0  0  0  0  0
    9.0720   -1.1280   24.8640 C   0  0  0  0  0  0  0  0  0  0  0  0
    9.7200   -2.2600   22.8630 C   0  0  0  0  0  0  0  0  0  0  0  0
    4.6890    1.6810   18.4640 C   0  0  0  0  0  0  0  0  0  0  0  0
    8.9960   -2.3380   25.5320 C   0  0  0  0  0  0  0  0  0  0  0  0
    9.6730   -3.4710   23.5300 C   0  0  0  0  0  0  0  0  0  0  0  0
    9.6155    5.4109   22.6835 C   0  0  0  0  0  0  0  0  0  0  0  0
   10.2772    3.0873   22.6883 C   0  0  0  0  0  0  0  0  0  0  0  0
    6.1790    0.5730   19.9990 C   0  0  0  0  0  0  0  0  0  0  0  0
    9.3350   -1.0880   23.5010 C   0  0  0  0  0  0  0  0  0  0  0  0
    9.1357    2.7638   23.4219 C   0  0  0  0  0  0  0  0  0  0  0  0
    5.8300    0.9190   18.6970 C   0  0  0  0  0  0  0  0  0  0  0  0
    9.3070   -3.5340   24.8780 C   0  0  0  0  0  0  0  0  0  0  0  0
   10.5171    4.4109   22.3191 C   0  0  0  0  0  0  0  0  0  0  0  0
    7.3170   -0.1610   19.8550 C   0  0  0  0  0  0  0  0  0  0  0  0
    9.0420    0.3700   21.5280 C   0  0  0  0  0  0  0  0  0  0  0  0
    9.5904   -5.8808   24.7806 C   0  0  0  0  0  0  0  0  0  0  0  0
    8.8757    1.3301   23.8233 C   0  0  0  0  0  0  0  0  0  0  0  0
    9.4560    0.1560   22.8130 C   0  0  2  0  0  0  0  0  0  0  0  0
    7.6390   -0.2680   18.5410 N   0  0  0  0  0  0  0  0  0  0  0  0
    6.7580    0.3810   17.8350 N   0  0  0  0  0  0  0  0  0  0  0  0
    8.1890   -0.7180   20.8700 N   0  0  0  0  0  0  0  0  0  0  0  0
    9.2690    1.4140   20.9380 O   0  0  0  0  0  0  0  0  0  0  0  0
    9.2567   -4.7121   25.5280 O   0  0  0  0  0  0  0  0  0  0  0  0
   11.9257    4.8108   21.4150 Cl  0  0  0  0  0  0  0  0  0  0  0  0
    3.6468    2.0173   21.6825 H   0  0  0  0  0  0  0  0  0  0  0  0
    3.0153    2.6527   19.3907 H   0  0  0  0  0  0  0  0  0  0  0  0
    7.7719    5.8659   23.7012 H   0  0  0  0  0  0  0  0  0  0  0  0
    5.7015    0.6980   22.1071 H   0  0  0  0  0  0  0  0  0  0  0  0
    7.3423    3.5209   24.3579 H   0  0  0  0  0  0  0  0  0  0  0  0
    8.9224   -0.1986   25.4209 H   0  0  0  0  0  0  0  0  0  0  0  0
   10.0638   -2.2321   21.8253 H   0  0  0  0  0  0  0  0  0  0  0  0
    4.4064    1.9744   17.4453 H   0  0  0  0  0  0  0  0  0  0  0  0
    8.6903   -2.3588   26.5807 H   0  0  0  0  0  0  0  0  0  0  0  0
    9.9258   -4.3917   22.9962 H   0  0  0  0  0  0  0  0  0  0  0  0
    9.7898    6.4468   22.4029 H   0  0  0  0  0  0  0  0  0  0  0  0
   10.9768    2.3039   22.4061 H   0  0  0  0  0  0  0  0  0  0  0  0
    9.5095   -6.7607   25.4235 H   0  0  0  0  0  0  0  0  0  0  0  0
   10.6094   -5.7898   24.3961 H   0  0  0  0  0  0  0  0  0  0  0  0
    8.8947   -5.9784   23.9439 H   0  0  0  0  0  0  0  0  0  0  0  0
    9.2390    1.1684   24.8466 H   0  0  0  0  0  0  0  0  0  0  0  0
    7.7875    1.1860   23.8742 H   0  0  0  0  0  0  0  0  0  0  0  0
   10.6103    0.4565   22.8881 H   0  0  0  0  0  0  0  0  0  0  0  0
    6.8044    0.4388   16.8592 H   0  0  0  0  0  0  0  0  0  0  0  0
    8.2434   -1.5614   21.0991 H   0  0  0  0  0  0  0  0  0  0  0  0
  1  2  1  0  0  0  0
  1  4  2  0  0  0  0
  2  8  2  0  0  0  0
  3  5  2  0  0  0  0
  3 11  1  0  0  0  0
  4 13  1  0  0  0  0
  5 15  1  0  0  0  0
  6  9  2  0  0  0  0
  6 14  1  0  0  0  0
  7 10  1  0  0  0  0
  7 14  2  0  0  0  0
  8 16  1  0  0  0  0
  9 17  1  0  0  0  0
 10 17  2  0  0  0  0
 11 18  2  0  0  0  0
 12 15  2  0  0  0  0
 12 18  1  0  0  0  0
 13 16  2  0  0  0  0
 13 19  1  0  0  0  0
 14 23  1  0  0  0  0
 15 22  1  0  0  0  0
 16 25  1  0  0  0  0
 17 28  1  0  0  0  0
 18 29  1  0  0  0  0
 19 24  2  0  0  0  0
 19 26  1  0  0  0  0
 20 23  1  0  0  0  0
 20 26  1  0  0  0  0
 20 27  2  0  0  0  0
 21 28  1  0  0  0  0
 22 23  1  6  0  0  0
 24 25  1  0  0  0  0
  1 30  1  0  0  0  0
  2 31  1  0  0  0  0
  3 32  1  0  0  0  0
  4 33  1  0  0  0  0
  5 34  1  0  0  0  0
  6 35  1  0  0  0  0
  7 36  1  0  0  0  0
  8 37  1  0  0  0  0
  9 38  1  0  0  0  0
 10 39  1  0  0  0  0
 11 40  1  0  0  0  0
 12 41  1  0  0  0  0
 21 42  1  0  0  0  0
 21 43  1  0  0  0  0
 21 44  1  0  0  0  0
 22 45  1  0  0  0  0
 22 46  1  0  0  0  0
 23 47  1  0  0  0  0
 25 48  1  0  0  0  0
 26 49  1  0  0  0  0
M  END
> <clash_score>
0

> <docking_score>
-5.3674092292785645

> <overlap_score>
0.8263978362083435

$$$$
BENZO_243_1
  -OEChem-08232013453D

 49 52  0     1  0  0  0  0  0999 V2000
    4.2750    1.7050   20.8490 C   0  0  0  0  0  0  0  0  0  0  0  0
    3.9160    2.0630   19.5520 C   0  0  0  0  0  0  0  0  0  0  0  0
    5.4210    0.9600   21.0930 C   0  0  0  0  0  0  0  0  0  0  0  0
    9.0720   -1.1280   24.8640 C   0  0  0  0  0  0  0  0  0  0  0  0
    9.7200   -2.2600   22.8630 C   0  0  0  0  0  0  0  0  0  0  0  0
    4.6890    1.6810   18.4640 C   0  0  0  0  0  0  0  0  0  0  0  0
    8.9960   -2.3380   25.5320 C   0  0  0  0  0  0  0  0  0  0  0  0
    9.6730   -3.4710   23.5300 C   0  0  0  0  0  0  0  0  0  0  0  0
   10.2428    3.1457   23.5034 C   0  0  0  0  0  0  0  0  0  0  0  0
   12.2645    2.9188   22.6690 C   0  0  0  0  0  0  0  0  0  0  0  0
    6.1790    0.5730   19.9990 C   0  0  0  0  0  0  0  0  0  0  0  0
    9.3350   -1.0880   23.5010 C   0  0  0  0  0  0  0  0  0  0  0  0
   11.1723    2.1848   23.0624 C   0  0  0  0  0  0  0  0  0  0  0  0
    5.8300    0.9190   18.6970 C   0  0  0  0  0  0  0  0  0  0  0  0
    9.3070   -3.5340   24.8780 C   0  0  0  0  0  0  0  0  0  0  0  0
    7.3170   -0.1610   19.8550 C   0  0  0  0  0  0  0  0  0  0  0  0
    9.0420    0.3700   21.5280 C   0  0  0  0  0  0  0  0  0  0  0  0
   12.7694    5.3728   22.6294 C   0  0  0  0  0  0  0  0  0  0  0  0
    8.8744   -4.6797   26.9022 C   0  0  0  0  0  0  0  0  0  0  0  0
   11.0089    0.6825   23.0307 C   0  0  0  0  0  0  0  0  0  0  0  0
    9.4560    0.1560   22.8130 C   0  0  1  0  0  0  0  0  0  0  0  0
   10.7043    4.3948   23.4002 N   0  0  0  0  0  0  0  0  0  0  0  0
    7.6390   -0.2680   18.5410 N   0  0  0  0  0  0  0  0  0  0  0  0
    6.7580    0.3810   17.8350 N   0  0  0  0  0  0  0  0  0  0  0  0
   11.9358    4.2239   22.8900 N   0  0  0  0  0  0  0  0  0  0  0  0
    8.1890   -0.7180   20.8700 N   0  0  0  0  0  0  0  0  0  0  0  0
    9.2690    1.4140   20.9380 O   0  0  0  0  0  0  0  0  0  0  0  0
    9.2567   -4.7121   25.5280 O   0  0  0  0  0  0  0  0  0  0  0  0
    3.6468    2.0173   21.6825 H   0  0  0  0  0  0  0  0  0  0  0  0
    3.0153    2.6527   19.3907 H   0  0  0  0  0  0  0  0  0  0  0  0
    5.7015    0.6980   22.1071 H   0  0  0  0  0  0  0  0  0  0  0  0
    8.9224   -0.1986   25.4209 H   0  0  0  0  0  0  0  0  0  0  0  0
   10.0638   -2.2321   21.8253 H   0  0  0  0  0  0  0  0  0  0  0  0
    4.4064    1.9744   17.4453 H   0  0  0  0  0  0  0  0  0  0  0  0
    8.6903   -2.3588   26.5807 H   0  0  0  0  0  0  0  0  0  0  0  0
    9.9258   -4.3917   22.9962 H   0  0  0  0  0  0  0  0  0  0  0  0
    9.2482    2.9901   23.8969 H   0  0  0  0  0  0  0  0  0  0  0  0
   13.2243    2.6307   22.2620 H   0  0  0  0  0  0  0  0  0  0  0  0
   12.5744    5.7060   21.6066 H   0  0  0  0  0  0  0  0  0  0  0  0
   12.5290    6.1664   23.3423 H   0  0  0  0  0  0  0  0  0  0  0  0
   13.8196    5.0915   22.7473 H   0  0  0  0  0  0  0  0  0  0  0  0
    8.8744   -5.6954   27.3053 H   0  0  0  0  0  0  0  0  0  0  0  0
    7.8781   -4.2399   26.9939 H   0  0  0  0  0  0  0  0  0  0  0  0
    9.5921   -4.0702   27.4565 H   0  0  0  0  0  0  0  0  0  0  0  0
   11.6011    0.2707   22.2030 H   0  0  0  0  0  0  0  0  0  0  0  0
   11.4624    0.2744   23.9446 H   0  0  0  0  0  0  0  0  0  0  0  0
    8.9284    0.9668   23.5149 H   0  0  0  0  0  0  0  0  0  0  0  0
    6.8044    0.4388   16.8592 H   0  0  0  0  0  0  0  0  0  0  0  0
    8.2434   -1.5614   21.0991 H   0  0  0  0  0  0  0  0  0  0  0  0
  1  2  1  0  0  0  0
  1  3  2  0  0  0  0
  2  6  2  0  0  0  0
  3 11  1  0  0  0  0
  4  7  2  0  0  0  0
  4 12  1  0  0  0  0
  5  8  1  0  0  0  0
  5 12  2  0  0  0  0
  6 14  1  0  0  0  0
  7 15  1  0  0  0  0
  8 15  2  0  0  0  0
  9 13  1  0  0  0  0
  9 22  2  0  0  0  0
 10 13  2  0  0  0  0
 10 25  1  0  0  0  0
 11 14  2  0  0  0  0
 11 16  1  0  0  0  0
 12 21  1  0  0  0  0
 13 20  1  0  0  0  0
 14 24  1  0  0  0  0
 15 28  1  0  0  0  0
 16 23  2  0  0  0  0
 16 26  1  0  0  0  0
 17 21  1  0  0  0  0
 17 26  1  0  0  0  0
 17 27  2  0  0  0  0
 18 25  1  0  0  0  0
 19 28  1  0  0  0  0
 20 21  1  1  0  0  0
 22 25  1  0  0  0  0
 23 24  1  0  0  0  0
  1 29  1  0  0  0  0
  2 30  1  0  0  0  0
  3 31  1  0  0  0  0
  4 32  1  0  0  0  0
  5 33  1  0  0  0  0
  6 34  1  0  0  0  0
  7 35  1  0  0  0  0
  8 36  1  0  0  0  0
  9 37  1  0  0  0  0
 10 38  1  0  0  0  0
 18 39  1  0  0  0  0
 18 40  1  0  0  0  0
 18 41  1  0  0  0  0
 19 42  1  0  0  0  0
 19 43  1  0  0  0  0
 19 44  1  0  0  0  0
 20 45  1  0  0  0  0
 20 46  1  0  0  0  0
 21 47  1  0  0  0  0
 24 48  1  0  0  0  0
 26 49  1  0  0  0  0
M  END
> <clash_score>
0

> <docking_score>
-9.412250518798828

> <overlap_score>
0.9082751870155334

$$$$
BENZO_243_2
  -OEChem-08232013453D

 49 52  0     1  0  0  0  0  0999 V2000
    4.2750    1.7050   20.8490 C   0  0  0  0  0  0  0  0  0  0  0  0
    3.9160    2.0630   19.5520 C   0  0  0  0  0  0  0  0  0  0  0  0
    5.4210    0.9600   21.0930 C   0  0  0  0  0  0  0  0  0  0  0  0
    9.0720   -1.1280   24.8640 C   0  0  0  0  0  0  0  0  0  0  0  0
    9.7200   -2.2600   22.8630 C   0  0  0  0  0  0  0  0  0  0  0  0
    4.6890    1.6810   18.4640 C   0  0  0  0  0  0  0  0  0  0  0  0
    8.9960   -2.3380   25.5320 C   0  0  0  0  0  0  0  0  0  0  0  0
    9.6730   -3.4710   23.5300 C   0  0  0  0  0  0  0  0  0  0  0  0
   10.2230    3.2711   22.6855 C   0  0  0  0  0  0  0  0  0  0  0  0
    8.3607    3.8650   23.6924 C   0  0  0  0  0  0  0  0  0  0  0  0
    6.1790    0.5730   19.9990 C   0  0  0  0  0  0  0  0  0  0  0  0
    9.3350   -1.0880   23.5010 C   0  0  0  0  0  0  0  0  0  0  0  0
    9.1357    2.7638   23.4218 C   0  0  0  0  0  0  0  0  0  0  0  0
    5.8300    0.9190   18.6970 C   0  0  0  0  0  0  0  0  0  0  0  0
    9.3070   -3.5340   24.8780 C   0  0  0  0  0  0  0  0  0  0  0  0
    7.3170   -0.1610   19.8550 C   0  0  0  0  0  0  0  0  0  0  0  0
    9.0420    0.3700   21.5280 C   0  0  0  0  0  0  0  0  0  0  0  0
    8.5727    6.3003   23.1419 C   0  0  0  0  0  0  0  0  0  0  0  0
    9.5904   -5.8808   24.7806 C   0  0  0  0  0  0  0  0  0  0  0  0
    8.8757    1.3301   23.8233 C   0  0  0  0  0  0  0  0  0  0  0  0
    9.4560    0.1560   22.8130 C   0  0  2  0  0  0  0  0  0  0  0  0
   10.1488    4.5917   22.4999 N   0  0  0  0  0  0  0  0  0  0  0  0
    7.6390   -0.2680   18.5410 N   0  0  0  0  0  0  0  0  0  0  0  0
    6.7580    0.3810   17.8350 N   0  0  0  0  0  0  0  0  0  0  0  0
    9.0056    4.9236   23.1235 N   0  0  0  0  0  0  0  0  0  0  0  0
    8.1890   -0.7180   20.8700 N   0  0  0  0  0  0  0  0  0  0  0  0
    9.2690    1.4140   20.9380 O   0  0  0  0  0  0  0  0  0  0  0  0
    9.2567   -4.7121   25.5280 O   0  0  0  0  0  0  0  0  0  0  0  0
    3.6468    2.0173   21.6825 H   0  0  0  0  0  0  0  0  0  0  0  0
    3.0153    2.6527   19.3907 H   0  0  0  0  0  0  0  0  0  0  0  0
    5.7015    0.6980   22.1071 H   0  0  0  0  0  0  0  0  0  0  0  0
    8.9224   -0.1986   25.4209 H   0  0  0  0  0  0  0  0  0  0  0  0
   10.0638   -2.2321   21.8253 H   0  0  0  0  0  0  0  0  0  0  0  0
    4.4064    1.9744   17.4453 H   0  0  0  0  0  0  0  0  0  0  0  0
    8.6903   -2.3588   26.5807 H   0  0  0  0  0  0  0  0  0  0  0  0
    9.9258   -4.3917   22.9962 H   0  0  0  0  0  0  0  0  0  0  0  0
   11.0671    2.7354   22.2746 H   0  0  0  0  0  0  0  0  0  0  0  0
    7.4277    3.9824   24.2269 H   0  0  0  0  0  0  0  0  0  0  0  0
    8.9983    6.7758   24.0295 H   0  0  0  0  0  0  0  0  0  0  0  0
    8.9199    6.8033   22.2351 H   0  0  0  0  0  0  0  0  0  0  0  0
    7.4802    6.3352   23.1748 H   0  0  0  0  0  0  0  0  0  0  0  0
    9.5095   -6.7607   25.4235 H   0  0  0  0  0  0  0  0  0  0  0  0
   10.6094   -5.7898   24.3961 H   0  0  0  0  0  0  0  0  0  0  0  0
    8.8947   -5.9784   23.9439 H   0  0  0  0  0  0  0  0  0  0  0  0
    9.2390    1.1684   24.8466 H   0  0  0  0  0  0  0  0  0  0  0  0
    7.7875    1.1860   23.8742 H   0  0  0  0  0  0  0  0  0  0  0  0
   10.6103    0.4565   22.8881 H   0  0  0  0  0  0  0  0  0  0  0  0
    6.8044    0.4388   16.8592 H   0  0  0  0  0  0  0  0  0  0  0  0
    8.2434   -1.5614   21.0991 H   0  0  0  0  0  0  0  0  0  0  0  0
  1  2  1  0  0  0  0
  1  3  2  0  0  0  0
  2  6  2  0  0  0  0
  3 11  1  0  0  0  0
  4  7  2  0  0  0  0
  4 12  1  0  0  0  0
  5  8  1  0  0  0  0
  5 12  2  0  0  0  0
  6 14  1  0  0  0  0
  7 15  1  0  0  0  0
  8 15  2  0  0  0  0
  9 13  1  0  0  0  0
  9 22  2  0  0  0  0
 10 13  2  0  0  0  0
 10 25  1  0  0  0  0
 11 14  2  0  0  0  0
 11 16  1  0  0  0  0
 12 21  1  0  0  0  0
 13 20  1  0  0  0  0
 14 24  1  0  0  0  0
 15 28  1  0  0  0  0
 16 23  2  0  0  0  0
 16 26  1  0  0  0  0
 17 21  1  0  0  0  0
 17 26  1  0  0  0  0
 17 27  2  0  0  0  0
 18 25  1  0  0  0  0
 19 28  1  0  0  0  0
 20 21  1  6  0  0  0
 22 25  1  0  0  0  0
 23 24  1  0  0  0  0
  1 29  1  0  0  0  0
  2 30  1  0  0  0  0
  3 31  1  0  0  0  0
  4 32  1  0  0  0  0
  5 33  1  0  0  0  0
  6 34  1  0  0  0  0
  7 35  1  0  0  0  0
  8 36  1  0  0  0  0
  9 37  1  0  0  0  0
 10 38  1  0  0  0  0
 18 39  1  0  0  0  0
 18 40  1  0  0  0  0
 18 41  1  0  0  0  0
 19 42  1  0  0  0  0
 19 43  1  0  0  0  0
 19 44  1  0  0  0  0
 20 45  1  0  0  0  0
 20 46  1  0  0  0  0
 21 47  1  0  0  0  0
 24 48  1  0  0  0  0
 26 49  1  0  0  0  0
M  END
> <clash_score>
0

> <docking_score>
-5.7426676750183105

> <overlap_score>
0.8214378356933594

$$$$
BENZO_245_1
  -OEChem-08232013453D

 59 63  0     1  0  0  0  0  0999 V2000
    9.5866    5.4188   22.6538 C   0  0  0  0  0  0  0  0  0  0  0  0
    4.2750    1.7050   20.8490 C   0  0  0  0  0  0  0  0  0  0  0  0
    8.4494    5.0927   23.3926 C   0  0  0  0  0  0  0  0  0  0  0  0
   10.4928    4.4220   22.2918 C   0  0  0  0  0  0  0  0  0  0  0  0
    3.9160    2.0630   19.5520 C   0  0  0  0  0  0  0  0  0  0  0  0
    5.4210    0.9600   21.0930 C   0  0  0  0  0  0  0  0  0  0  0  0
    8.2182    3.7698   23.7695 C   0  0  0  0  0  0  0  0  0  0  0  0
   10.2616    3.0991   22.6687 C   0  0  0  0  0  0  0  0  0  0  0  0
    9.0720   -1.1280   24.8640 C   0  0  0  0  0  0  0  0  0  0  0  0
    9.7200   -2.2600   22.8630 C   0  0  0  0  0  0  0  0  0  0  0  0
    4.6890    1.6810   18.4640 C   0  0  0  0  0  0  0  0  0  0  0  0
    8.9960   -2.3380   25.5320 C   0  0  0  0  0  0  0  0  0  0  0  0
    9.6730   -3.4710   23.5300 C   0  0  0  0  0  0  0  0  0  0  0  0
    6.1790    0.5730   19.9990 C   0  0  0  0  0  0  0  0  0  0  0  0
    9.1243    2.7729   23.4076 C   0  0  0  0  0  0  0  0  0  0  0  0
    9.3350   -1.0880   23.5010 C   0  0  0  0  0  0  0  0  0  0  0  0
    5.8300    0.9190   18.6970 C   0  0  0  0  0  0  0  0  0  0  0  0
    9.3070   -3.5340   24.8780 C   0  0  0  0  0  0  0  0  0  0  0  0
    7.3170   -0.1610   19.8550 C   0  0  0  0  0  0  0  0  0  0  0  0
    8.3596   -5.0075   26.6307 C   0  0  0  0  0  0  0  0  0  0  0  0
    9.0420    0.3700   21.5280 C   0  0  0  0  0  0  0  0  0  0  0  0
    8.4579   -6.4048   27.2167 C   0  0  0  0  0  0  0  0  0  0  0  0
    8.4717   -7.4504   26.1157 C   0  0  0  0  0  0  0  0  0  0  0  0
    9.5645   -7.1893   25.0840 C   0  0  0  0  0  0  0  0  0  0  0  0
   10.2327   -5.8252   25.2500 C   0  0  0  0  0  0  0  0  0  0  0  0
    8.8746    1.3393   23.8159 C   0  0  0  0  0  0  0  0  0  0  0  0
    9.4560    0.1560   22.8130 C   0  0  1  0  0  0  0  0  0  0  0  0
    7.6390   -0.2680   18.5410 N   0  0  0  0  0  0  0  0  0  0  0  0
    6.7580    0.3810   17.8350 N   0  0  0  0  0  0  0  0  0  0  0  0
    9.2529   -4.7799   25.5644 N   0  0  0  0  0  0  0  0  0  0  0  0
    8.1890   -0.7180   20.8700 N   0  0  0  0  0  0  0  0  0  0  0  0
    7.5989   -4.1866   27.1423 O   0  0  0  0  0  0  0  0  0  0  0  0
    9.2690    1.4140   20.9380 O   0  0  0  0  0  0  0  0  0  0  0  0
    9.7658    6.4488   22.3592 H   0  0  0  0  0  0  0  0  0  0  0  0
    3.6468    2.0173   21.6825 H   0  0  0  0  0  0  0  0  0  0  0  0
    7.7431    5.8685   23.6736 H   0  0  0  0  0  0  0  0  0  0  0  0
   11.3777    4.6754   21.7157 H   0  0  0  0  0  0  0  0  0  0  0  0
    3.0153    2.6527   19.3907 H   0  0  0  0  0  0  0  0  0  0  0  0
    5.7015    0.6980   22.1071 H   0  0  0  0  0  0  0  0  0  0  0  0
    7.3295    3.5250   24.3452 H   0  0  0  0  0  0  0  0  0  0  0  0
   10.9731    2.3291   22.3824 H   0  0  0  0  0  0  0  0  0  0  0  0
    8.9202   -0.1986   25.4206 H   0  0  0  0  0  0  0  0  0  0  0  0
   10.0631   -2.2319   21.8252 H   0  0  0  0  0  0  0  0  0  0  0  0
    4.4064    1.9744   17.4453 H   0  0  0  0  0  0  0  0  0  0  0  0
    8.6898   -2.3534   26.5810 H   0  0  0  0  0  0  0  0  0  0  0  0
    9.9254   -4.3899   22.9914 H   0  0  0  0  0  0  0  0  0  0  0  0
    9.3705   -6.4746   27.7883 H   0  0  0  0  0  0  0  0  0  0  0  0
    7.6054   -6.5499   27.8634 H   0  0  0  0  0  0  0  0  0  0  0  0
    8.6096   -8.4605   26.5547 H   0  0  0  0  0  0  0  0  0  0  0  0
    7.4835   -7.4764   25.6139 H   0  0  0  0  0  0  0  0  0  0  0  0
   10.3359   -7.9850   25.1529 H   0  0  0  0  0  0  0  0  0  0  0  0
    9.1459   -7.2795   24.0580 H   0  0  0  0  0  0  0  0  0  0  0  0
   10.9408   -5.8640   26.0724 H   0  0  0  0  0  0  0  0  0  0  0  0
   10.7522   -5.5631   24.3346 H   0  0  0  0  0  0  0  0  0  0  0  0
    9.2322    1.1871   24.8426 H   0  0  0  0  0  0  0  0  0  0  0  0
    7.7874    1.1856   23.8602 H   0  0  0  0  0  0  0  0  0  0  0  0
   10.6111    0.4644   22.8838 H   0  0  0  0  0  0  0  0  0  0  0  0
    6.8044    0.4388   16.8592 H   0  0  0  0  0  0  0  0  0  0  0  0
    8.2585   -1.5522   21.1129 H   0  0  0  0  0  0  0  0  0  0  0  0
  1  3  1  0  0  0  0
  1  4  2  0  0  0  0
  2  5  1  0  0  0  0
  2  6  2  0  0  0  0
  3  7  2  0  0  0  0
  4  8  1  0  0  0  0
  5 11  2  0  0  0  0
  6 14  1  0  0  0  0
  7 15  1  0  0  0  0
  8 15  2  0  0  0  0
  9 12  2  0  0  0  0
  9 16  1  0  0  0  0
 10 13  1  0  0  0  0
 10 16  2  0  0  0  0
 11 17  1  0  0  0  0
 12 18  1  0  0  0  0
 13 18  2  0  0  0  0
 14 17  2  0  0  0  0
 14 19  1  0  0  0  0
 15 26  1  0  0  0  0
 16 27  1  0  0  0  0
 17 29  1  0  0  0  0
 18 30  1  0  0  0  0
 19 28  2  0  0  0  0
 19 31  1  0  0  0  0
 20 22  1  0  0  0  0
 20 30  1  0  0  0  0
 20 32  2  0  0  0  0
 21 27  1  1  0  0  0
 21 31  1  0  0  0  0
 21 33  2  0  0  0  0
 22 23  1  0  0  0  0
 23 24  1  0  0  0  0
 24 25  1  0  0  0  0
 25 30  1  0  0  0  0
 26 27  1  0  0  0  0
 28 29  1  0  0  0  0
  1 34  1  0  0  0  0
  2 35  1  0  0  0  0
  3 36  1  0  0  0  0
  4 37  1  0  0  0  0
  5 38  1  0  0  0  0
  6 39  1  0  0  0  0
  7 40  1  0  0  0  0
  8 41  1  0  0  0  0
  9 42  1  0  0  0  0
 10 43  1  0  0  0  0
 11 44  1  0  0  0  0
 12 45  1  0  0  0  0
 13 46  1  0  0  0  0
 22 47  1  0  0  0  0
 22 48  1  0  0  0  0
 23 49  1  0  0  0  0
 23 50  1  0  0  0  0
 24 51  1  0  0  0  0
 24 52  1  0  0  0  0
 25 53  1  0  0  0  0
 25 54  1  0  0  0  0
 26 55  1  0  0  0  0
 26 56  1  0  0  0  0
 27 57  1  0  0  0  0
 29 58  1  0  0  0  0
 31 59  1  0  0  0  0
M  END
> <clash_score>
0.6354372295654396

> <docking_score>
-5.188782691955566

> <overlap_score>
0.8699353337287903

$$$$
BENZO_245_2
  -OEChem-08232013453D

 59 63  0     1  0  0  0  0  0999 V2000
   11.4754    4.9664   23.0810 C   0  0  0  0  0  0  0  0  0  0  0  0
    4.2750    1.7050   20.8490 C   0  0  0  0  0  0  0  0  0  0  0  0
   12.5124    4.1581   22.6156 C   0  0  0  0  0  0  0  0  0  0  0  0
   10.2875    4.3882   23.5285 C   0  0  0  0  0  0  0  0  0  0  0  0
    3.9160    2.0630   19.5520 C   0  0  0  0  0  0  0  0  0  0  0  0
    5.4210    0.9600   21.0930 C   0  0  0  0  0  0  0  0  0  0  0  0
   12.3617    2.7715   22.5976 C   0  0  0  0  0  0  0  0  0  0  0  0
   10.1367    3.0016   23.5105 C   0  0  0  0  0  0  0  0  0  0  0  0
    9.0720   -1.1280   24.8640 C   0  0  0  0  0  0  0  0  0  0  0  0
    9.7200   -2.2600   22.8630 C   0  0  0  0  0  0  0  0  0  0  0  0
    4.6890    1.6810   18.4640 C   0  0  0  0  0  0  0  0  0  0  0  0
    8.9960   -2.3380   25.5320 C   0  0  0  0  0  0  0  0  0  0  0  0
    9.6730   -3.4710   23.5300 C   0  0  0  0  0  0  0  0  0  0  0  0
    6.1790    0.5730   19.9990 C   0  0  0  0  0  0  0  0  0  0  0  0
   11.1738    2.1933   23.0451 C   0  0  0  0  0  0  0  0  0  0  0  0
    9.3350   -1.0880   23.5010 C   0  0  0  0  0  0  0  0  0  0  0  0
    5.8300    0.9190   18.6970 C   0  0  0  0  0  0  0  0  0  0  0  0
    9.3070   -3.5340   24.8780 C   0  0  0  0  0  0  0  0  0  0  0  0
    7.3170   -0.1610   19.8550 C   0  0  0  0  0  0  0  0  0  0  0  0
    8.3596   -5.0074   26.6306 C   0  0  0  0  0  0  0  0  0  0  0  0
    9.0420    0.3700   21.5280 C   0  0  0  0  0  0  0  0  0  0  0  0
    8.4719   -6.3982   27.2294 C   0  0  0  0  0  0  0  0  0  0  0  0
    9.9251   -6.7607   27.4801 C   0  0  0  0  0  0  0  0  0  0  0  0
   10.7833   -6.6095   26.2280 C   0  0  0  0  0  0  0  0  0  0  0  0
   10.0539   -5.9100   25.0821 C   0  0  0  0  0  0  0  0  0  0  0  0
   11.0096    0.6909   23.0257 C   0  0  0  0  0  0  0  0  0  0  0  0
    9.4560    0.1560   22.8130 C   0  0  2  0  0  0  0  0  0  0  0  0
    7.6390   -0.2680   18.5410 N   0  0  0  0  0  0  0  0  0  0  0  0
    6.7580    0.3810   17.8350 N   0  0  0  0  0  0  0  0  0  0  0  0
    9.2529   -4.7797   25.5643 N   0  0  0  0  0  0  0  0  0  0  0  0
    8.1890   -0.7180   20.8700 N   0  0  0  0  0  0  0  0  0  0  0  0
    7.4954   -4.2357   27.0448 O   0  0  0  0  0  0  0  0  0  0  0  0
    9.2690    1.4140   20.9380 O   0  0  0  0  0  0  0  0  0  0  0  0
   11.5934    6.0460   23.0962 H   0  0  0  0  0  0  0  0  0  0  0  0
    3.6468    2.0173   21.6825 H   0  0  0  0  0  0  0  0  0  0  0  0
   13.4379    4.6081   22.2681 H   0  0  0  0  0  0  0  0  0  0  0  0
    9.4802    5.0172   23.8920 H   0  0  0  0  0  0  0  0  0  0  0  0
    3.0153    2.6527   19.3907 H   0  0  0  0  0  0  0  0  0  0  0  0
    5.7015    0.6980   22.1071 H   0  0  0  0  0  0  0  0  0  0  0  0
   13.1750    2.1496   22.2331 H   0  0  0  0  0  0  0  0  0  0  0  0
    9.2076    2.5600   23.8610 H   0  0  0  0  0  0  0  0  0  0  0  0
    8.9202   -0.1986   25.4206 H   0  0  0  0  0  0  0  0  0  0  0  0
   10.0631   -2.2319   21.8252 H   0  0  0  0  0  0  0  0  0  0  0  0
    4.4064    1.9744   17.4453 H   0  0  0  0  0  0  0  0  0  0  0  0
    8.6898   -2.3534   26.5810 H   0  0  0  0  0  0  0  0  0  0  0  0
    9.9254   -4.3899   22.9914 H   0  0  0  0  0  0  0  0  0  0  0  0
    7.9324   -6.4149   28.1639 H   0  0  0  0  0  0  0  0  0  0  0  0
    8.0254   -7.0921   26.5330 H   0  0  0  0  0  0  0  0  0  0  0  0
   10.3386   -6.1268   28.2921 H   0  0  0  0  0  0  0  0  0  0  0  0
    9.9903   -7.8025   27.8535 H   0  0  0  0  0  0  0  0  0  0  0  0
   11.7036   -6.0405   26.4770 H   0  0  0  0  0  0  0  0  0  0  0  0
   11.1411   -7.6069   25.8917 H   0  0  0  0  0  0  0  0  0  0  0  0
   10.7783   -5.5162   24.3756 H   0  0  0  0  0  0  0  0  0  0  0  0
    9.4042   -6.6189   24.5805 H   0  0  0  0  0  0  0  0  0  0  0  0
   11.6022    0.2720   22.2019 H   0  0  0  0  0  0  0  0  0  0  0  0
   11.4622    0.2902   23.9433 H   0  0  0  0  0  0  0  0  0  0  0  0
    8.9292    0.9747   23.5105 H   0  0  0  0  0  0  0  0  0  0  0  0
    6.8044    0.4388   16.8592 H   0  0  0  0  0  0  0  0  0  0  0  0
    8.2585   -1.5522   21.1129 H   0  0  0  0  0  0  0  0  0  0  0  0
  1  3  1  0  0  0  0
  1  4  2  0  0  0  0
  2  5  1  0  0  0  0
  2  6  2  0  0  0  0
  3  7  2  0  0  0  0
  4  8  1  0  0  0  0
  5 11  2  0  0  0  0
  6 14  1  0  0  0  0
  7 15  1  0  0  0  0
  8 15  2  0  0  0  0
  9 12  2  0  0  0  0
  9 16  1  0  0  0  0
 10 13  1  0  0  0  0
 10 16  2  0  0  0  0
 11 17  1  0  0  0  0
 12 18  1  0  0  0  0
 13 18  2  0  0  0  0
 14 17  2  0  0  0  0
 14 19  1  0  0  0  0
 15 26  1  0  0  0  0
 16 27  1  0  0  0  0
 17 29  1  0  0  0  0
 18 30  1  0  0  0  0
 19 28  2  0  0  0  0
 19 31  1  0  0  0  0
 20 22  1  0  0  0  0
 20 30  1  0  0  0  0
 20 32  2  0  0  0  0
 21 27  1  6  0  0  0
 21 31  1  0  0  0  0
 21 33  2  0  0  0  0
 22 23  1  0  0  0  0
 23 24  1  0  0  0  0
 24 25  1  0  0  0  0
 25 30  1  0  0  0  0
 26 27  1  0  0  0  0
 28 29  1  0  0  0  0
  1 34  1  0  0  0  0
  2 35  1  0  0  0  0
  3 36  1  0  0  0  0
  4 37  1  0  0  0  0
  5 38  1  0  0  0  0
  6 39  1  0  0  0  0
  7 40  1  0  0  0  0
  8 41  1  0  0  0  0
  9 42  1  0  0  0  0
 10 43  1  0  0  0  0
 11 44  1  0  0  0  0
 12 45  1  0  0  0  0
 13 46  1  0  0  0  0
 22 47  1  0  0  0  0
 22 48  1  0  0  0  0
 23 49  1  0  0  0  0
 23 50  1  0  0  0  0
 24 51  1  0  0  0  0
 24 52  1  0  0  0  0
 25 53  1  0  0  0  0
 25 54  1  0  0  0  0
 26 55  1  0  0  0  0
 26 56  1  0  0  0  0
 27 57  1  0  0  0  0
 29 58  1  0  0  0  0
 31 59  1  0  0  0  0
M  END
> <clash_score>
0.7790931276820443

> <docking_score>
-8.806933403015137

> <overlap_score>
0.9542901515960693

$$$$
BENZO_244_1
  -OEChem-08232013453D

 56 60  0     1  0  0  0  0  0999 V2000
    4.2750    1.7050   20.8490 C   0  0  0  0  0  0  0  0  0  0  0  0
    3.9160    2.0630   19.5520 C   0  0  0  0  0  0  0  0  0  0  0  0
    5.4210    0.9600   21.0930 C   0  0  0  0  0  0  0  0  0  0  0  0
    9.0720   -1.1280   24.8640 C   0  0  0  0  0  0  0  0  0  0  0  0
    9.7200   -2.2600   22.8630 C   0  0  0  0  0  0  0  0  0  0  0  0
    4.6890    1.6810   18.4640 C   0  0  0  0  0  0  0  0  0  0  0  0
    8.9960   -2.3380   25.5320 C   0  0  0  0  0  0  0  0  0  0  0  0
    9.6730   -3.4710   23.5300 C   0  0  0  0  0  0  0  0  0  0  0  0
    8.1909    3.8305   23.6088 C   0  0  0  0  0  0  0  0  0  0  0  0
    8.6676    5.0367   23.1446 C   0  0  0  0  0  0  0  0  0  0  0  0
   10.2789    3.2112   22.7970 C   0  0  0  0  0  0  0  0  0  0  0  0
    6.1790    0.5730   19.9990 C   0  0  0  0  0  0  0  0  0  0  0  0
    9.3350   -1.0880   23.5010 C   0  0  0  0  0  0  0  0  0  0  0  0
    9.1243    2.7729   23.4076 C   0  0  0  0  0  0  0  0  0  0  0  0
    5.8300    0.9190   18.6970 C   0  0  0  0  0  0  0  0  0  0  0  0
    9.3070   -3.5340   24.8780 C   0  0  0  0  0  0  0  0  0  0  0  0
    7.3170   -0.1610   19.8550 C   0  0  0  0  0  0  0  0  0  0  0  0
    8.3596   -5.0075   26.6307 C   0  0  0  0  0  0  0  0  0  0  0  0
    9.0420    0.3700   21.5280 C   0  0  0  0  0  0  0  0  0  0  0  0
    8.4579   -6.4048   27.2167 C   0  0  0  0  0  0  0  0  0  0  0  0
    8.4717   -7.4504   26.1157 C   0  0  0  0  0  0  0  0  0  0  0  0
    9.5645   -7.1893   25.0840 C   0  0  0  0  0  0  0  0  0  0  0  0
   10.2327   -5.8252   25.2500 C   0  0  0  0  0  0  0  0  0  0  0  0
    8.8746    1.3393   23.8159 C   0  0  0  0  0  0  0  0  0  0  0  0
    9.4560    0.1560   22.8130 C   0  0  1  0  0  0  0  0  0  0  0  0
    7.6390   -0.2680   18.5410 N   0  0  0  0  0  0  0  0  0  0  0  0
    6.7580    0.3810   17.8350 N   0  0  0  0  0  0  0  0  0  0  0  0
    9.2529   -4.7799   25.5644 N   0  0  0  0  0  0  0  0  0  0  0  0
    8.1890   -0.7180   20.8700 N   0  0  0  0  0  0  0  0  0  0  0  0
    7.5989   -4.1866   27.1423 O   0  0  0  0  0  0  0  0  0  0  0  0
    9.2690    1.4140   20.9380 O   0  0  0  0  0  0  0  0  0  0  0  0
   10.2345    4.8913   22.4694 S   0  0  0  0  0  0  0  0  0  0  0  0
    3.6468    2.0173   21.6825 H   0  0  0  0  0  0  0  0  0  0  0  0
    3.0153    2.6527   19.3907 H   0  0  0  0  0  0  0  0  0  0  0  0
    5.7015    0.6980   22.1071 H   0  0  0  0  0  0  0  0  0  0  0  0
    8.9202   -0.1986   25.4206 H   0  0  0  0  0  0  0  0  0  0  0  0
   10.0631   -2.2319   21.8252 H   0  0  0  0  0  0  0  0  0  0  0  0
    4.4064    1.9744   17.4453 H   0  0  0  0  0  0  0  0  0  0  0  0
    8.6898   -2.3534   26.5810 H   0  0  0  0  0  0  0  0  0  0  0  0
    9.9254   -4.3899   22.9914 H   0  0  0  0  0  0  0  0  0  0  0  0
    7.2179    3.7166   24.0697 H   0  0  0  0  0  0  0  0  0  0  0  0
    8.1705    5.9961   23.1691 H   0  0  0  0  0  0  0  0  0  0  0  0
   11.1481    2.6284   22.5250 H   0  0  0  0  0  0  0  0  0  0  0  0
    9.3705   -6.4746   27.7883 H   0  0  0  0  0  0  0  0  0  0  0  0
    7.6054   -6.5499   27.8634 H   0  0  0  0  0  0  0  0  0  0  0  0
    8.6096   -8.4605   26.5547 H   0  0  0  0  0  0  0  0  0  0  0  0
    7.4835   -7.4764   25.6139 H   0  0  0  0  0  0  0  0  0  0  0  0
   10.3359   -7.9850   25.1529 H   0  0  0  0  0  0  0  0  0  0  0  0
    9.1459   -7.2795   24.0580 H   0  0  0  0  0  0  0  0  0  0  0  0
   10.9408   -5.8640   26.0724 H   0  0  0  0  0  0  0  0  0  0  0  0
   10.7522   -5.5631   24.3346 H   0  0  0  0  0  0  0  0  0  0  0  0
    9.2322    1.1871   24.8426 H   0  0  0  0  0  0  0  0  0  0  0  0
    7.7874    1.1856   23.8602 H   0  0  0  0  0  0  0  0  0  0  0  0
   10.6111    0.4644   22.8838 H   0  0  0  0  0  0  0  0  0  0  0  0
    6.8044    0.4388   16.8592 H   0  0  0  0  0  0  0  0  0  0  0  0
    8.2585   -1.5522   21.1129 H   0  0  0  0  0  0  0  0  0  0  0  0
  1  2  1  0  0  0  0
  1  3  2  0  0  0  0
  2  6  2  0  0  0  0
  3 12  1  0  0  0  0
  4  7  2  0  0  0  0
  4 13  1  0  0  0  0
  5  8  1  0  0  0  0
  5 13  2  0  0  0  0
  6 15  1  0  0  0  0
  7 16  1  0  0  0  0
  8 16  2  0  0  0  0
  9 10  2  0  0  0  0
  9 14  1  0  0  0  0
 10 32  1  0  0  0  0
 11 14  2  0  0  0  0
 11 32  1  0  0  0  0
 12 15  2  0  0  0  0
 12 17  1  0  0  0  0
 13 25  1  0  0  0  0
 14 24  1  0  0  0  0
 15 27  1  0  0  0  0
 16 28  1  0  0  0  0
 17 26  2  0  0  0  0
 17 29  1  0  0  0  0
 18 20  1  0  0  0  0
 18 28  1  0  0  0  0
 18 30  2  0  0  0  0
 19 25  1  1  0  0  0
 19 29  1  0  0  0  0
 19 31  2  0  0  0  0
 20 21  1  0  0  0  0
 21 22  1  0  0  0  0
 22 23  1  0  0  0  0
 23 28  1  0  0  0  0
 24 25  1  0  0  0  0
 26 27  1  0  0  0  0
  1 33  1  0  0  0  0
  2 34  1  0  0  0  0
  3 35  1  0  0  0  0
  4 36  1  0  0  0  0
  5 37  1  0  0  0  0
  6 38  1  0  0  0  0
  7 39  1  0  0  0  0
  8 40  1  0  0  0  0
  9 41  1  0  0  0  0
 10 42  1  0  0  0  0
 11 43  1  0  0  0  0
 20 44  1  0  0  0  0
 20 45  1  0  0  0  0
 21 46  1  0  0  0  0
 21 47  1  0  0  0  0
 22 48  1  0  0  0  0
 22 49  1  0  0  0  0
 23 50  1  0  0  0  0
 23 51  1  0  0  0  0
 24 52  1  0  0  0  0
 24 53  1  0  0  0  0
 25 54  1  0  0  0  0
 27 55  1  0  0  0  0
 29 56  1  0  0  0  0
M  END
> <clash_score>
0.6354372295654396

> <docking_score>
-5.598328590393066

> <overlap_score>
0.8692851066589355

$$$$
BENZO_244_2
  -OEChem-08232013453D

 56 60  0     1  0  0  0  0  0999 V2000
    4.2750    1.7050   20.8490 C   0  0  0  0  0  0  0  0  0  0  0  0
    3.9160    2.0630   19.5520 C   0  0  0  0  0  0  0  0  0  0  0  0
    5.4210    0.9600   21.0930 C   0  0  0  0  0  0  0  0  0  0  0  0
    9.0720   -1.1280   24.8640 C   0  0  0  0  0  0  0  0  0  0  0  0
    9.7200   -2.2600   22.8630 C   0  0  0  0  0  0  0  0  0  0  0  0
    4.6890    1.6810   18.4640 C   0  0  0  0  0  0  0  0  0  0  0  0
    8.9960   -2.3380   25.5320 C   0  0  0  0  0  0  0  0  0  0  0  0
    9.6730   -3.4710   23.5300 C   0  0  0  0  0  0  0  0  0  0  0  0
   11.9814    2.9163   22.1204 C   0  0  0  0  0  0  0  0  0  0  0  0
   11.9562    4.2724   22.3614 C   0  0  0  0  0  0  0  0  0  0  0  0
   10.5621    3.0244   23.9579 C   0  0  0  0  0  0  0  0  0  0  0  0
    6.1790    0.5730   19.9990 C   0  0  0  0  0  0  0  0  0  0  0  0
    9.3350   -1.0880   23.5010 C   0  0  0  0  0  0  0  0  0  0  0  0
   11.1738    2.1933   23.0451 C   0  0  0  0  0  0  0  0  0  0  0  0
    5.8300    0.9190   18.6970 C   0  0  0  0  0  0  0  0  0  0  0  0
    9.3070   -3.5340   24.8780 C   0  0  0  0  0  0  0  0  0  0  0  0
    7.3170   -0.1610   19.8550 C   0  0  0  0  0  0  0  0  0  0  0  0
    8.3596   -5.0074   26.6306 C   0  0  0  0  0  0  0  0  0  0  0  0
    9.0420    0.3700   21.5280 C   0  0  0  0  0  0  0  0  0  0  0  0
    8.4719   -6.3982   27.2294 C   0  0  0  0  0  0  0  0  0  0  0  0
    9.9251   -6.7607   27.4801 C   0  0  0  0  0  0  0  0  0  0  0  0
   10.7833   -6.6095   26.2280 C   0  0  0  0  0  0  0  0  0  0  0  0
   10.0539   -5.9100   25.0821 C   0  0  0  0  0  0  0  0  0  0  0  0
   11.0096    0.6909   23.0257 C   0  0  0  0  0  0  0  0  0  0  0  0
    9.4560    0.1560   22.8130 C   0  0  2  0  0  0  0  0  0  0  0  0
    7.6390   -0.2680   18.5410 N   0  0  0  0  0  0  0  0  0  0  0  0
    6.7580    0.3810   17.8350 N   0  0  0  0  0  0  0  0  0  0  0  0
    9.2529   -4.7797   25.5643 N   0  0  0  0  0  0  0  0  0  0  0  0
    8.1890   -0.7180   20.8700 N   0  0  0  0  0  0  0  0  0  0  0  0
    7.4954   -4.2357   27.0448 O   0  0  0  0  0  0  0  0  0  0  0  0
    9.2690    1.4140   20.9380 O   0  0  0  0  0  0  0  0  0  0  0  0
   10.9619    4.6690   23.6979 S   0  0  0  0  0  0  0  0  0  0  0  0
    3.6468    2.0173   21.6825 H   0  0  0  0  0  0  0  0  0  0  0  0
    3.0153    2.6527   19.3907 H   0  0  0  0  0  0  0  0  0  0  0  0
    5.7015    0.6980   22.1071 H   0  0  0  0  0  0  0  0  0  0  0  0
    8.9202   -0.1986   25.4206 H   0  0  0  0  0  0  0  0  0  0  0  0
   10.0631   -2.2319   21.8252 H   0  0  0  0  0  0  0  0  0  0  0  0
    4.4064    1.9744   17.4453 H   0  0  0  0  0  0  0  0  0  0  0  0
    8.6898   -2.3534   26.5810 H   0  0  0  0  0  0  0  0  0  0  0  0
    9.9254   -4.3899   22.9914 H   0  0  0  0  0  0  0  0  0  0  0  0
   12.5539    2.4685   21.3179 H   0  0  0  0  0  0  0  0  0  0  0  0
   12.4745    5.0491   21.8171 H   0  0  0  0  0  0  0  0  0  0  0  0
    9.9000    2.7485   24.7669 H   0  0  0  0  0  0  0  0  0  0  0  0
    7.9324   -6.4149   28.1639 H   0  0  0  0  0  0  0  0  0  0  0  0
    8.0254   -7.0921   26.5330 H   0  0  0  0  0  0  0  0  0  0  0  0
   10.3386   -6.1268   28.2921 H   0  0  0  0  0  0  0  0  0  0  0  0
    9.9903   -7.8025   27.8535 H   0  0  0  0  0  0  0  0  0  0  0  0
   11.7036   -6.0405   26.4770 H   0  0  0  0  0  0  0  0  0  0  0  0
   11.1411   -7.6069   25.8917 H   0  0  0  0  0  0  0  0  0  0  0  0
   10.7783   -5.5162   24.3756 H   0  0  0  0  0  0  0  0  0  0  0  0
    9.4042   -6.6189   24.5805 H   0  0  0  0  0  0  0  0  0  0  0  0
   11.6022    0.2720   22.2019 H   0  0  0  0  0  0  0  0  0  0  0  0
   11.4622    0.2902   23.9433 H   0  0  0  0  0  0  0  0  0  0  0  0
    8.9292    0.9747   23.5105 H   0  0  0  0  0  0  0  0  0  0  0  0
    6.8044    0.4388   16.8592 H   0  0  0  0  0  0  0  0  0  0  0  0
    8.2585   -1.5522   21.1129 H   0  0  0  0  0  0  0  0  0  0  0  0
  1  2  1  0  0  0  0
  1  3  2  0  0  0  0
  2  6  2  0  0  0  0
  3 12  1  0  0  0  0
  4  7  2  0  0  0  0
  4 13  1  0  0  0  0
  5  8  1  0  0  0  0
  5 13  2  0  0  0  0
  6 15  1  0  0  0  0
  7 16  1  0  0  0  0
  8 16  2  0  0  0  0
  9 10  2  0  0  0  0
  9 14  1  0  0  0  0
 10 32  1  0  0  0  0
 11 14  2  0  0  0  0
 11 32  1  0  0  0  0
 12 15  2  0  0  0  0
 12 17  1  0  0  0  0
 13 25  1  0  0  0  0
 14 24  1  0  0  0  0
 15 27  1  0  0  0  0
 16 28  1  0  0  0  0
 17 26  2  0  0  0  0
 17 29  1  0  0  0  0
 18 20  1  0  0  0  0
 18 28  1  0  0  0  0
 18 30  2  0  0  0  0
 19 25  1  6  0  0  0
 19 29  1  0  0  0  0
 19 31  2  0  0  0  0
 20 21  1  0  0  0  0
 21 22  1  0  0  0  0
 22 23  1  0  0  0  0
 23 28  1  0  0  0  0
 24 25  1  0  0  0  0
 26 27  1  0  0  0  0
  1 33  1  0  0  0  0
  2 34  1  0  0  0  0
  3 35  1  0  0  0  0
  4 36  1  0  0  0  0
  5 37  1  0  0  0  0
  6 38  1  0  0  0  0
  7 39  1  0  0  0  0
  8 40  1  0  0  0  0
  9 41  1  0  0  0  0
 10 42  1  0  0  0  0
 11 43  1  0  0  0  0
 20 44  1  0  0  0  0
 20 45  1  0  0  0  0
 21 46  1  0  0  0  0
 21 47  1  0  0  0  0
 22 48  1  0  0  0  0
 22 49  1  0  0  0  0
 23 50  1  0  0  0  0
 23 51  1  0  0  0  0
 24 52  1  0  0  0  0
 24 53  1  0  0  0  0
 25 54  1  0  0  0  0
 27 55  1  0  0  0  0
 29 56  1  0  0  0  0
M  END
> <clash_score>
0.7790931276820443

> <docking_score>
-7.864886283874512

> <overlap_score>
0.9418492913246155

$$$$
BENZO_246_1
  -OEChem-08232013453D

 59 63  0     1  0  0  0  0  0999 V2000
    4.2750    1.7050   20.8490 C   0  0  0  0  0  0  0  0  0  0  0  0
    3.9160    2.0630   19.5520 C   0  0  0  0  0  0  0  0  0  0  0  0
   10.4915    4.4215   22.2897 C   0  0  0  0  0  0  0  0  0  0  0  0
    5.4210    0.9600   21.0930 C   0  0  0  0  0  0  0  0  0  0  0  0
   10.2611    3.0988   22.6678 C   0  0  0  0  0  0  0  0  0  0  0  0
    9.0720   -1.1280   24.8640 C   0  0  0  0  0  0  0  0  0  0  0  0
    9.7200   -2.2600   22.8630 C   0  0  0  0  0  0  0  0  0  0  0  0
    4.6890    1.6810   18.4640 C   0  0  0  0  0  0  0  0  0  0  0  0
    8.9960   -2.3380   25.5320 C   0  0  0  0  0  0  0  0  0  0  0  0
    9.6730   -3.4710   23.5300 C   0  0  0  0  0  0  0  0  0  0  0  0
    9.5854    5.4184   22.6515 C   0  0  0  0  0  0  0  0  0  0  0  0
    8.2181    3.7697   23.7693 C   0  0  0  0  0  0  0  0  0  0  0  0
    6.1790    0.5730   19.9990 C   0  0  0  0  0  0  0  0  0  0  0  0
    9.3350   -1.0880   23.5010 C   0  0  0  0  0  0  0  0  0  0  0  0
    9.1243    2.7729   23.4076 C   0  0  0  0  0  0  0  0  0  0  0  0
    5.8300    0.9190   18.6970 C   0  0  0  0  0  0  0  0  0  0  0  0
    9.3070   -3.5340   24.8780 C   0  0  0  0  0  0  0  0  0  0  0  0
    8.4486    5.0924   23.3912 C   0  0  0  0  0  0  0  0  0  0  0  0
    7.3170   -0.1610   19.8550 C   0  0  0  0  0  0  0  0  0  0  0  0
    8.3596   -5.0075   26.6307 C   0  0  0  0  0  0  0  0  0  0  0  0
    9.0420    0.3700   21.5280 C   0  0  0  0  0  0  0  0  0  0  0  0
    8.4579   -6.4048   27.2167 C   0  0  0  0  0  0  0  0  0  0  0  0
    8.4717   -7.4504   26.1157 C   0  0  0  0  0  0  0  0  0  0  0  0
    9.5645   -7.1893   25.0840 C   0  0  0  0  0  0  0  0  0  0  0  0
   10.2327   -5.8252   25.2500 C   0  0  0  0  0  0  0  0  0  0  0  0
    8.8746    1.3393   23.8159 C   0  0  0  0  0  0  0  0  0  0  0  0
    9.4560    0.1560   22.8130 C   0  0  1  0  0  0  0  0  0  0  0  0
    7.6390   -0.2680   18.5410 N   0  0  0  0  0  0  0  0  0  0  0  0
    6.7580    0.3810   17.8350 N   0  0  0  0  0  0  0  0  0  0  0  0
    9.2529   -4.7799   25.5644 N   0  0  0  0  0  0  0  0  0  0  0  0
    8.1890   -0.7180   20.8700 N   0  0  0  0  0  0  0  0  0  0  0  0
    7.5989   -4.1866   27.1423 O   0  0  0  0  0  0  0  0  0  0  0  0
    9.2690    1.4140   20.9380 O   0  0  0  0  0  0  0  0  0  0  0  0
    7.3303    6.3225   23.8362 Cl  0  0  0  0  0  0  0  0  0  0  0  0
    3.6468    2.0173   21.6825 H   0  0  0  0  0  0  0  0  0  0  0  0
    3.0153    2.6527   19.3907 H   0  0  0  0  0  0  0  0  0  0  0  0
   11.3768    4.6749   21.7135 H   0  0  0  0  0  0  0  0  0  0  0  0
    5.7015    0.6980   22.1071 H   0  0  0  0  0  0  0  0  0  0  0  0
   10.9725    2.3286   22.3815 H   0  0  0  0  0  0  0  0  0  0  0  0
    8.9202   -0.1986   25.4206 H   0  0  0  0  0  0  0  0  0  0  0  0
   10.0631   -2.2319   21.8252 H   0  0  0  0  0  0  0  0  0  0  0  0
    4.4064    1.9744   17.4453 H   0  0  0  0  0  0  0  0  0  0  0  0
    8.6898   -2.3534   26.5810 H   0  0  0  0  0  0  0  0  0  0  0  0
    9.9254   -4.3899   22.9914 H   0  0  0  0  0  0  0  0  0  0  0  0
    9.7777    6.4450   22.3496 H   0  0  0  0  0  0  0  0  0  0  0  0
    7.3335    3.5106   24.3466 H   0  0  0  0  0  0  0  0  0  0  0  0
    9.3705   -6.4746   27.7883 H   0  0  0  0  0  0  0  0  0  0  0  0
    7.6054   -6.5499   27.8634 H   0  0  0  0  0  0  0  0  0  0  0  0
    8.6096   -8.4605   26.5547 H   0  0  0  0  0  0  0  0  0  0  0  0
    7.4835   -7.4764   25.6139 H   0  0  0  0  0  0  0  0  0  0  0  0
   10.3359   -7.9850   25.1529 H   0  0  0  0  0  0  0  0  0  0  0  0
    9.1459   -7.2795   24.0580 H   0  0  0  0  0  0  0  0  0  0  0  0
   10.9408   -5.8640   26.0724 H   0  0  0  0  0  0  0  0  0  0  0  0
   10.7522   -5.5631   24.3346 H   0  0  0  0  0  0  0  0  0  0  0  0
    9.2322    1.1871   24.8426 H   0  0  0  0  0  0  0  0  0  0  0  0
    7.7874    1.1856   23.8602 H   0  0  0  0  0  0  0  0  0  0  0  0
   10.6111    0.4644   22.8838 H   0  0  0  0  0  0  0  0  0  0  0  0
    6.8044    0.4388   16.8592 H   0  0  0  0  0  0  0  0  0  0  0  0
    8.2585   -1.5522   21.1129 H   0  0  0  0  0  0  0  0  0  0  0  0
  1  2  1  0  0  0  0
  1  4  2  0  0  0  0
  2  8  2  0  0  0  0
  3  5  2  0  0  0  0
  3 11  1  0  0  0  0
  4 13  1  0  0  0  0
  5 15  1  0  0  0  0
  6  9  2  0  0  0  0
  6 14  1  0  0  0  0
  7 10  1  0  0  0  0
  7 14  2  0  0  0  0
  8 16  1  0  0  0  0
  9 17  1  0  0  0  0
 10 17  2  0  0  0  0
 11 18  2  0  0  0  0
 12 15  2  0  0  0  0
 12 18  1  0  0  0  0
 13 16  2  0  0  0  0
 13 19  1  0  0  0  0
 14 27  1  0  0  0  0
 15 26  1  0  0  0  0
 16 29  1  0  0  0  0
 17 30  1  0  0  0  0
 18 34  1  0  0  0  0
 19 28  2  0  0  0  0
 19 31  1  0  0  0  0
 20 22  1  0  0  0  0
 20 30  1  0  0  0  0
 20 32  2  0  0  0  0
 21 27  1  1  0  0  0
 21 31  1  0  0  0  0
 21 33  2  0  0  0  0
 22 23  1  0  0  0  0
 23 24  1  0  0  0  0
 24 25  1  0  0  0  0
 25 30  1  0  0  0  0
 26 27  1  0  0  0  0
 28 29  1  0  0  0  0
  1 35  1  0  0  0  0
  2 36  1  0  0  0  0
  3 37  1  0  0  0  0
  4 38  1  0  0  0  0
  5 39  1  0  0  0  0
  6 40  1  0  0  0  0
  7 41  1  0  0  0  0
  8 42  1  0  0  0  0
  9 43  1  0  0  0  0
 10 44  1  0  0  0  0
 11 45  1  0  0  0  0
 12 46  1  0  0  0  0
 22 47  1  0  0  0  0
 22 48  1  0  0  0  0
 23 49  1  0  0  0  0
 23 50  1  0  0  0  0
 24 51  1  0  0  0  0
 24 52  1  0  0  0  0
 25 53  1  0  0  0  0
 25 54  1  0  0  0  0
 26 55  1  0  0  0  0
 26 56  1  0  0  0  0
 27 57  1  0  0  0  0
 29 58  1  0  0  0  0
 31 59  1  0  0  0  0
M  END
> <clash_score>
0.6354372295654396

> <docking_score>
-5.087627410888672

> <overlap_score>
0.8687323331832886

$$$$
BENZO_247_2
  -OEChem-08232013453D

 59 63  0     1  0  0  0  0  0999 V2000
    4.2750    1.7050   20.8490 C   0  0  0  0  0  0  0  0  0  0  0  0
    3.9160    2.0630   19.5520 C   0  0  0  0  0  0  0  0  0  0  0  0
    5.4210    0.9600   21.0930 C   0  0  0  0  0  0  0  0  0  0  0  0
    9.0720   -1.1280   24.8640 C   0  0  0  0  0  0  0  0  0  0  0  0
    9.7200   -2.2600   22.8630 C   0  0  0  0  0  0  0  0  0  0  0  0
    4.6890    1.6810   18.4640 C   0  0  0  0  0  0  0  0  0  0  0  0
    8.9960   -2.3380   25.5320 C   0  0  0  0  0  0  0  0  0  0  0  0
    9.6730   -3.4710   23.5300 C   0  0  0  0  0  0  0  0  0  0  0  0
    8.3074    3.5997   22.6132 C   0  0  0  0  0  0  0  0  0  0  0  0
   10.2002    3.5628   23.7317 C   0  0  0  0  0  0  0  0  0  0  0  0
    6.1790    0.5730   19.9990 C   0  0  0  0  0  0  0  0  0  0  0  0
    9.3350   -1.0880   23.5010 C   0  0  0  0  0  0  0  0  0  0  0  0
    9.1243    2.7729   23.4076 C   0  0  0  0  0  0  0  0  0  0  0  0
    5.8300    0.9190   18.6970 C   0  0  0  0  0  0  0  0  0  0  0  0
    9.3070   -3.5340   24.8780 C   0  0  0  0  0  0  0  0  0  0  0  0
    7.3170   -0.1610   19.8550 C   0  0  0  0  0  0  0  0  0  0  0  0
    8.3596   -5.0075   26.6307 C   0  0  0  0  0  0  0  0  0  0  0  0
    9.0420    0.3700   21.5280 C   0  0  0  0  0  0  0  0  0  0  0  0
    8.4579   -6.4048   27.2167 C   0  0  0  0  0  0  0  0  0  0  0  0
    8.4717   -7.4504   26.1157 C   0  0  0  0  0  0  0  0  0  0  0  0
    9.5645   -7.1893   25.0840 C   0  0  0  0  0  0  0  0  0  0  0  0
   10.2327   -5.8252   25.2500 C   0  0  0  0  0  0  0  0  0  0  0  0
   10.8289    5.9272   23.1904 C   0  0  0  0  0  0  0  0  0  0  0  0
    8.8746    1.3393   23.8159 C   0  0  0  0  0  0  0  0  0  0  0  0
    9.4560    0.1560   22.8130 C   0  0  2  0  0  0  0  0  0  0  0  0
    8.8204    4.8212   22.4432 N   0  0  0  0  0  0  0  0  0  0  0  0
    7.6390   -0.2680   18.5410 N   0  0  0  0  0  0  0  0  0  0  0  0
    6.7580    0.3810   17.8350 N   0  0  0  0  0  0  0  0  0  0  0  0
    9.9711    4.7678   23.1353 N   0  0  0  0  0  0  0  0  0  0  0  0
    9.2529   -4.7799   25.5644 N   0  0  0  0  0  0  0  0  0  0  0  0
    8.1890   -0.7180   20.8700 N   0  0  0  0  0  0  0  0  0  0  0  0
    7.5989   -4.1866   27.1423 O   0  0  0  0  0  0  0  0  0  0  0  0
    9.2690    1.4140   20.9380 O   0  0  0  0  0  0  0  0  0  0  0  0
    3.6468    2.0173   21.6825 H   0  0  0  0  0  0  0  0  0  0  0  0
    3.0153    2.6527   19.3907 H   0  0  0  0  0  0  0  0  0  0  0  0
    5.7015    0.6980   22.1071 H   0  0  0  0  0  0  0  0  0  0  0  0
    8.9202   -0.1986   25.4206 H   0  0  0  0  0  0  0  0  0  0  0  0
   10.0631   -2.2319   21.8252 H   0  0  0  0  0  0  0  0  0  0  0  0
    4.4064    1.9744   17.4453 H   0  0  0  0  0  0  0  0  0  0  0  0
    8.6898   -2.3534   26.5810 H   0  0  0  0  0  0  0  0  0  0  0  0
    9.9254   -4.3899   22.9914 H   0  0  0  0  0  0  0  0  0  0  0  0
    7.3589    3.3656   22.1509 H   0  0  0  0  0  0  0  0  0  0  0  0
   11.0867    3.3751   24.3223 H   0  0  0  0  0  0  0  0  0  0  0  0
    9.3705   -6.4746   27.7883 H   0  0  0  0  0  0  0  0  0  0  0  0
    7.6054   -6.5499   27.8634 H   0  0  0  0  0  0  0  0  0  0  0  0
    8.6096   -8.4605   26.5547 H   0  0  0  0  0  0  0  0  0  0  0  0
    7.4835   -7.4764   25.6139 H   0  0  0  0  0  0  0  0  0  0  0  0
   10.3359   -7.9850   25.1529 H   0  0  0  0  0  0  0  0  0  0  0  0
    9.1459   -7.2795   24.0580 H   0  0  0  0  0  0  0  0  0  0  0  0
   10.9408   -5.8640   26.0724 H   0  0  0  0  0  0  0  0  0  0  0  0
   10.7522   -5.5631   24.3346 H   0  0  0  0  0  0  0  0  0  0  0  0
   11.5266    5.8708   22.3507 H   0  0  0  0  0  0  0  0  0  0  0  0
   10.2208    6.8335   23.1219 H   0  0  0  0  0  0  0  0  0  0  0  0
   11.3712    5.9307   24.1400 H   0  0  0  0  0  0  0  0  0  0  0  0
    9.2322    1.1871   24.8426 H   0  0  0  0  0  0  0  0  0  0  0  0
    7.7874    1.1856   23.8602 H   0  0  0  0  0  0  0  0  0  0  0  0
   10.6111    0.4644   22.8838 H   0  0  0  0  0  0  0  0  0  0  0  0
    6.8044    0.4388   16.8592 H   0  0  0  0  0  0  0  0  0  0  0  0
    8.2585   -1.5522   21.1129 H   0  0  0  0  0  0  0  0  0  0  0  0
  1  2  1  0  0  0  0
  1  3  2  0  0  0  0
  2  6  2  0  0  0  0
  3 11  1  0  0  0  0
  4  7  2  0  0  0  0
  4 12  1  0  0  0  0
  5  8  1  0  0  0  0
  5 12  2  0  0  0  0
  6 14  1  0  0  0  0
  7 15  1  0  0  0  0
  8 15  2  0  0  0  0
  9 13  1  0  0  0  0
  9 26  2  0  0  0  0
 10 13  2  0  0  0  0
 10 29  1  0  0  0  0
 11 14  2  0  0  0  0
 11 16  1  0  0  0  0
 12 25  1  0  0  0  0
 13 24  1  0  0  0  0
 14 28  1  0  0  0  0
 15 30  1  0  0  0  0
 16 27  2  0  0  0  0
 16 31  1  0  0  0  0
 17 19  1  0  0  0  0
 17 30  1  0  0  0  0
 17 32  2  0  0  0  0
 18 25  1  0  0  0  0
 18 31  1  0  0  0  0
 18 33  2  0  0  0  0
 19 20  1  0  0  0  0
 20 21  1  0  0  0  0
 21 22  1  0  0  0  0
 22 30  1  0  0  0  0
 23 29  1  0  0  0  0
 24 25  1  6  0  0  0
 26 29  1  0  0  0  0
 27 28  1  0  0  0  0
  1 34  1  0  0  0  0
  2 35  1  0  0  0  0
  3 36  1  0  0  0  0
  4 37  1  0  0  0  0
  5 38  1  0  0  0  0
  6 39  1  0  0  0  0
  7 40  1  0  0  0  0
  8 41  1  0  0  0  0
  9 42  1  0  0  0  0
 10 43  1  0  0  0  0
 19 44  1  0  0  0  0
 19 45  1  0  0  0  0
 20 46  1  0  0  0  0
 20 47  1  0  0  0  0
 21 48  1  0  0  0  0
 21 49  1  0  0  0  0
 22 50  1  0  0  0  0
 22 51  1  0  0  0  0
 23 52  1  0  0  0  0
 23 53  1  0  0  0  0
 23 54  1  0  0  0  0
 24 55  1  0  0  0  0
 24 56  1  0  0  0  0
 25 57  1  0  0  0  0
 28 58  1  0  0  0  0
 31 59  1  0  0  0  0
M  END
> <clash_score>
0.6354372295654396

> <docking_score>
-6.117145538330078

> <overlap_score>
0.8631774187088013

$$$$
BENZO_246_2
  -OEChem-08232013453D

 59 63  0     1  0  0  0  0  0999 V2000
    4.2750    1.7050   20.8490 C   0  0  0  0  0  0  0  0  0  0  0  0
    3.9160    2.0630   19.5520 C   0  0  0  0  0  0  0  0  0  0  0  0
   10.2883    4.3880   23.5308 C   0  0  0  0  0  0  0  0  0  0  0  0
    5.4210    0.9600   21.0930 C   0  0  0  0  0  0  0  0  0  0  0  0
   10.1370    3.0015   23.5116 C   0  0  0  0  0  0  0  0  0  0  0  0
    9.0720   -1.1280   24.8640 C   0  0  0  0  0  0  0  0  0  0  0  0
    9.7200   -2.2600   22.8630 C   0  0  0  0  0  0  0  0  0  0  0  0
    4.6890    1.6810   18.4640 C   0  0  0  0  0  0  0  0  0  0  0  0
    8.9960   -2.3380   25.5320 C   0  0  0  0  0  0  0  0  0  0  0  0
    9.6730   -3.4710   23.5300 C   0  0  0  0  0  0  0  0  0  0  0  0
   11.4763    4.9663   23.0835 C   0  0  0  0  0  0  0  0  0  0  0  0
   12.3618    2.7715   22.5978 C   0  0  0  0  0  0  0  0  0  0  0  0
    6.1790    0.5730   19.9990 C   0  0  0  0  0  0  0  0  0  0  0  0
    9.3350   -1.0880   23.5010 C   0  0  0  0  0  0  0  0  0  0  0  0
   11.1738    2.1933   23.0451 C   0  0  0  0  0  0  0  0  0  0  0  0
    5.8300    0.9190   18.6970 C   0  0  0  0  0  0  0  0  0  0  0  0
    9.3070   -3.5340   24.8780 C   0  0  0  0  0  0  0  0  0  0  0  0
   12.5130    4.1580   22.6171 C   0  0  0  0  0  0  0  0  0  0  0  0
    7.3170   -0.1610   19.8550 C   0  0  0  0  0  0  0  0  0  0  0  0
    8.3596   -5.0074   26.6306 C   0  0  0  0  0  0  0  0  0  0  0  0
    9.0420    0.3700   21.5280 C   0  0  0  0  0  0  0  0  0  0  0  0
    8.4719   -6.3982   27.2294 C   0  0  0  0  0  0  0  0  0  0  0  0
    9.9251   -6.7607   27.4801 C   0  0  0  0  0  0  0  0  0  0  0  0
   10.7833   -6.6095   26.2280 C   0  0  0  0  0  0  0  0  0  0  0  0
   10.0539   -5.9100   25.0821 C   0  0  0  0  0  0  0  0  0  0  0  0
   11.0096    0.6909   23.0257 C   0  0  0  0  0  0  0  0  0  0  0  0
    9.4560    0.1560   22.8130 C   0  0  2  0  0  0  0  0  0  0  0  0
    7.6390   -0.2680   18.5410 N   0  0  0  0  0  0  0  0  0  0  0  0
    6.7580    0.3810   17.8350 N   0  0  0  0  0  0  0  0  0  0  0  0
    9.2529   -4.7797   25.5643 N   0  0  0  0  0  0  0  0  0  0  0  0
    8.1890   -0.7180   20.8700 N   0  0  0  0  0  0  0  0  0  0  0  0
    7.4954   -4.2357   27.0448 O   0  0  0  0  0  0  0  0  0  0  0  0
    9.2690    1.4140   20.9380 O   0  0  0  0  0  0  0  0  0  0  0  0
   13.9788    4.8720   22.0664 Cl  0  0  0  0  0  0  0  0  0  0  0  0
    3.6468    2.0173   21.6825 H   0  0  0  0  0  0  0  0  0  0  0  0
    3.0153    2.6527   19.3907 H   0  0  0  0  0  0  0  0  0  0  0  0
    9.4808    5.0170   23.8943 H   0  0  0  0  0  0  0  0  0  0  0  0
    5.7015    0.6980   22.1071 H   0  0  0  0  0  0  0  0  0  0  0  0
    9.2080    2.5596   23.8621 H   0  0  0  0  0  0  0  0  0  0  0  0
    8.9202   -0.1986   25.4206 H   0  0  0  0  0  0  0  0  0  0  0  0
   10.0631   -2.2319   21.8252 H   0  0  0  0  0  0  0  0  0  0  0  0
    4.4064    1.9744   17.4453 H   0  0  0  0  0  0  0  0  0  0  0  0
    8.6898   -2.3534   26.5810 H   0  0  0  0  0  0  0  0  0  0  0  0
    9.9254   -4.3899   22.9914 H   0  0  0  0  0  0  0  0  0  0  0  0
   11.5802    6.0483   23.1046 H   0  0  0  0  0  0  0  0  0  0  0  0
   13.1669    2.1370   22.2346 H   0  0  0  0  0  0  0  0  0  0  0  0
    7.9324   -6.4149   28.1639 H   0  0  0  0  0  0  0  0  0  0  0  0
    8.0254   -7.0921   26.5330 H   0  0  0  0  0  0  0  0  0  0  0  0
   10.3386   -6.1268   28.2921 H   0  0  0  0  0  0  0  0  0  0  0  0
    9.9903   -7.8025   27.8535 H   0  0  0  0  0  0  0  0  0  0  0  0
   11.7036   -6.0405   26.4770 H   0  0  0  0  0  0  0  0  0  0  0  0
   11.1411   -7.6069   25.8917 H   0  0  0  0  0  0  0  0  0  0  0  0
   10.7783   -5.5162   24.3756 H   0  0  0  0  0  0  0  0  0  0  0  0
    9.4042   -6.6189   24.5805 H   0  0  0  0  0  0  0  0  0  0  0  0
   11.6022    0.2720   22.2019 H   0  0  0  0  0  0  0  0  0  0  0  0
   11.4622    0.2902   23.9433 H   0  0  0  0  0  0  0  0  0  0  0  0
    8.9292    0.9747   23.5105 H   0  0  0  0  0  0  0  0  0  0  0  0
    6.8044    0.4388   16.8592 H   0  0  0  0  0  0  0  0  0  0  0  0
    8.2585   -1.5522   21.1129 H   0  0  0  0  0  0  0  0  0  0  0  0
  1  2  1  0  0  0  0
  1  4  2  0  0  0  0
  2  8  2  0  0  0  0
  3  5  2  0  0  0  0
  3 11  1  0  0  0  0
  4 13  1  0  0  0  0
  5 15  1  0  0  0  0
  6  9  2  0  0  0  0
  6 14  1  0  0  0  0
  7 10  1  0  0  0  0
  7 14  2  0  0  0  0
  8 16  1  0  0  0  0
  9 17  1  0  0  0  0
 10 17  2  0  0  0  0
 11 18  2  0  0  0  0
 12 15  2  0  0  0  0
 12 18  1  0  0  0  0
 13 16  2  0  0  0  0
 13 19  1  0  0  0  0
 14 27  1  0  0  0  0
 15 26  1  0  0  0  0
 16 29  1  0  0  0  0
 17 30  1  0  0  0  0
 18 34  1  0  0  0  0
 19 28  2  0  0  0  0
 19 31  1  0  0  0  0
 20 22  1  0  0  0  0
 20 30  1  0  0  0  0
 20 32  2  0  0  0  0
 21 27  1  6  0  0  0
 21 31  1  0  0  0  0
 21 33  2  0  0  0  0
 22 23  1  0  0  0  0
 23 24  1  0  0  0  0
 24 25  1  0  0  0  0
 25 30  1  0  0  0  0
 26 27  1  0  0  0  0
 28 29  1  0  0  0  0
  1 35  1  0  0  0  0
  2 36  1  0  0  0  0
  3 37  1  0  0  0  0
  4 38  1  0  0  0  0
  5 39  1  0  0  0  0
  6 40  1  0  0  0  0
  7 41  1  0  0  0  0
  8 42  1  0  0  0  0
  9 43  1  0  0  0  0
 10 44  1  0  0  0  0
 11 45  1  0  0  0  0
 12 46  1  0  0  0  0
 22 47  1  0  0  0  0
 22 48  1  0  0  0  0
 23 49  1  0  0  0  0
 23 50  1  0  0  0  0
 24 51  1  0  0  0  0
 24 52  1  0  0  0  0
 25 53  1  0  0  0  0
 25 54  1  0  0  0  0
 26 55  1  0  0  0  0
 26 56  1  0  0  0  0
 27 57  1  0  0  0  0
 29 58  1  0  0  0  0
 31 59  1  0  0  0  0
M  END
> <clash_score>
0.7790931276820443

> <docking_score>
-9.235930442810059

> <overlap_score>
0.9551644921302795

$$$$
BENZO_247_1
  -OEChem-08232013453D

 59 63  0     1  0  0  0  0  0999 V2000
    4.2750    1.7050   20.8490 C   0  0  0  0  0  0  0  0  0  0  0  0
    3.9160    2.0630   19.5520 C   0  0  0  0  0  0  0  0  0  0  0  0
    5.4210    0.9600   21.0930 C   0  0  0  0  0  0  0  0  0  0  0  0
    9.0720   -1.1280   24.8640 C   0  0  0  0  0  0  0  0  0  0  0  0
    9.7200   -2.2600   22.8630 C   0  0  0  0  0  0  0  0  0  0  0  0
    4.6890    1.6810   18.4640 C   0  0  0  0  0  0  0  0  0  0  0  0
    8.9960   -2.3380   25.5320 C   0  0  0  0  0  0  0  0  0  0  0  0
    9.6730   -3.4710   23.5300 C   0  0  0  0  0  0  0  0  0  0  0  0
   10.2449    3.1582   23.4787 C   0  0  0  0  0  0  0  0  0  0  0  0
   12.2661    2.9236   22.6452 C   0  0  0  0  0  0  0  0  0  0  0  0
    6.1790    0.5730   19.9990 C   0  0  0  0  0  0  0  0  0  0  0  0
    9.3350   -1.0880   23.5010 C   0  0  0  0  0  0  0  0  0  0  0  0
   11.1738    2.1933   23.0451 C   0  0  0  0  0  0  0  0  0  0  0  0
    5.8300    0.9190   18.6970 C   0  0  0  0  0  0  0  0  0  0  0  0
    9.3070   -3.5340   24.8780 C   0  0  0  0  0  0  0  0  0  0  0  0
    7.3170   -0.1610   19.8550 C   0  0  0  0  0  0  0  0  0  0  0  0
    8.3596   -5.0074   26.6306 C   0  0  0  0  0  0  0  0  0  0  0  0
    9.0420    0.3700   21.5280 C   0  0  0  0  0  0  0  0  0  0  0  0
    8.4719   -6.3982   27.2294 C   0  0  0  0  0  0  0  0  0  0  0  0
    9.9251   -6.7607   27.4801 C   0  0  0  0  0  0  0  0  0  0  0  0
   10.7833   -6.6095   26.2280 C   0  0  0  0  0  0  0  0  0  0  0  0
   10.0539   -5.9100   25.0821 C   0  0  0  0  0  0  0  0  0  0  0  0
   12.7722    5.3769   22.5853 C   0  0  0  0  0  0  0  0  0  0  0  0
   11.0096    0.6909   23.0257 C   0  0  0  0  0  0  0  0  0  0  0  0
    9.4560    0.1560   22.8130 C   0  0  1  0  0  0  0  0  0  0  0  0
   10.7069    4.4062   23.3651 N   0  0  0  0  0  0  0  0  0  0  0  0
    7.6390   -0.2680   18.5410 N   0  0  0  0  0  0  0  0  0  0  0  0
    6.7580    0.3810   17.8350 N   0  0  0  0  0  0  0  0  0  0  0  0
   11.9381    4.2306   22.8557 N   0  0  0  0  0  0  0  0  0  0  0  0
    9.2529   -4.7797   25.5643 N   0  0  0  0  0  0  0  0  0  0  0  0
    8.1890   -0.7180   20.8700 N   0  0  0  0  0  0  0  0  0  0  0  0
    7.4954   -4.2357   27.0448 O   0  0  0  0  0  0  0  0  0  0  0  0
    9.2690    1.4140   20.9380 O   0  0  0  0  0  0  0  0  0  0  0  0
    3.6468    2.0173   21.6825 H   0  0  0  0  0  0  0  0  0  0  0  0
    3.0153    2.6527   19.3907 H   0  0  0  0  0  0  0  0  0  0  0  0
    5.7015    0.6980   22.1071 H   0  0  0  0  0  0  0  0  0  0  0  0
    8.9202   -0.1986   25.4206 H   0  0  0  0  0  0  0  0  0  0  0  0
   10.0631   -2.2319   21.8252 H   0  0  0  0  0  0  0  0  0  0  0  0
    4.4064    1.9744   17.4453 H   0  0  0  0  0  0  0  0  0  0  0  0
    8.6898   -2.3534   26.5810 H   0  0  0  0  0  0  0  0  0  0  0  0
    9.9254   -4.3899   22.9914 H   0  0  0  0  0  0  0  0  0  0  0  0
    9.2505    3.0063   23.8739 H   0  0  0  0  0  0  0  0  0  0  0  0
   13.2256    2.6317   22.2400 H   0  0  0  0  0  0  0  0  0  0  0  0
    7.9324   -6.4149   28.1639 H   0  0  0  0  0  0  0  0  0  0  0  0
    8.0254   -7.0921   26.5330 H   0  0  0  0  0  0  0  0  0  0  0  0
   10.3386   -6.1268   28.2921 H   0  0  0  0  0  0  0  0  0  0  0  0
    9.9903   -7.8025   27.8535 H   0  0  0  0  0  0  0  0  0  0  0  0
   11.7036   -6.0405   26.4770 H   0  0  0  0  0  0  0  0  0  0  0  0
   11.1411   -7.6069   25.8917 H   0  0  0  0  0  0  0  0  0  0  0  0
   10.7783   -5.5162   24.3756 H   0  0  0  0  0  0  0  0  0  0  0  0
    9.4042   -6.6189   24.5805 H   0  0  0  0  0  0  0  0  0  0  0  0
   12.5768    5.7019   21.5599 H   0  0  0  0  0  0  0  0  0  0  0  0
   12.5325    6.1764   23.2919 H   0  0  0  0  0  0  0  0  0  0  0  0
   13.8223    5.0961   22.7050 H   0  0  0  0  0  0  0  0  0  0  0  0
   11.6022    0.2720   22.2019 H   0  0  0  0  0  0  0  0  0  0  0  0
   11.4622    0.2902   23.9433 H   0  0  0  0  0  0  0  0  0  0  0  0
    8.9292    0.9747   23.5105 H   0  0  0  0  0  0  0  0  0  0  0  0
    6.8044    0.4388   16.8592 H   0  0  0  0  0  0  0  0  0  0  0  0
    8.2585   -1.5522   21.1129 H   0  0  0  0  0  0  0  0  0  0  0  0
  1  2  1  0  0  0  0
  1  3  2  0  0  0  0
  2  6  2  0  0  0  0
  3 11  1  0  0  0  0
  4  7  2  0  0  0  0
  4 12  1  0  0  0  0
  5  8  1  0  0  0  0
  5 12  2  0  0  0  0
  6 14  1  0  0  0  0
  7 15  1  0  0  0  0
  8 15  2  0  0  0  0
  9 13  1  0  0  0  0
  9 26  2  0  0  0  0
 10 13  2  0  0  0  0
 10 29  1  0  0  0  0
 11 14  2  0  0  0  0
 11 16  1  0  0  0  0
 12 25  1  0  0  0  0
 13 24  1  0  0  0  0
 14 28  1  0  0  0  0
 15 30  1  0  0  0  0
 16 27  2  0  0  0  0
 16 31  1  0  0  0  0
 17 19  1  0  0  0  0
 17 30  1  0  0  0  0
 17 32  2  0  0  0  0
 18 25  1  0  0  0  0
 18 31  1  0  0  0  0
 18 33  2  0  0  0  0
 19 20  1  0  0  0  0
 20 21  1  0  0  0  0
 21 22  1  0  0  0  0
 22 30  1  0  0  0  0
 23 29  1  0  0  0  0
 24 25  1  1  0  0  0
 26 29  1  0  0  0  0
 27 28  1  0  0  0  0
  1 34  1  0  0  0  0
  2 35  1  0  0  0  0
  3 36  1  0  0  0  0
  4 37  1  0  0  0  0
  5 38  1  0  0  0  0
  6 39  1  0  0  0  0
  7 40  1  0  0  0  0
  8 41  1  0  0  0  0
  9 42  1  0  0  0  0
 10 43  1  0  0  0  0
 19 44  1  0  0  0  0
 19 45  1  0  0  0  0
 20 46  1  0  0  0  0
 20 47  1  0  0  0  0
 21 48  1  0  0  0  0
 21 49  1  0  0  0  0
 22 50  1  0  0  0  0
 22 51  1  0  0  0  0
 23 52  1  0  0  0  0
 23 53  1  0  0  0  0
 23 54  1  0  0  0  0
 24 55  1  0  0  0  0
 24 56  1  0  0  0  0
 25 57  1  0  0  0  0
 28 58  1  0  0  0  0
 31 59  1  0  0  0  0
M  END
> <clash_score>
0.7790931276820443

> <docking_score>
-8.710001945495605

> <overlap_score>
0.9504612684249878

$$$$
BENZO_249_1
  -OEChem-08232013453D

 58 62  0     1  0  0  0  0  0999 V2000
   11.1941    2.2526   27.3210 C   0  0  0  0  0  0  0  0  0  0  0  0
    4.2750    1.7050   20.8490 C   0  0  0  0  0  0  0  0  0  0  0  0
    9.8088    2.4148   27.3399 C   0  0  0  0  0  0  0  0  0  0  0  0
   11.8270    1.7944   26.1655 C   0  0  0  0  0  0  0  0  0  0  0  0
    3.9160    2.0630   19.5520 C   0  0  0  0  0  0  0  0  0  0  0  0
    5.4210    0.9600   21.0930 C   0  0  0  0  0  0  0  0  0  0  0  0
    9.0564    2.1187   26.2033 C   0  0  0  0  0  0  0  0  0  0  0  0
   11.0746    1.4983   25.0288 C   0  0  0  0  0  0  0  0  0  0  0  0
    9.0720   -1.1280   24.8640 C   0  0  0  0  0  0  0  0  0  0  0  0
    9.7200   -2.2600   22.8630 C   0  0  0  0  0  0  0  0  0  0  0  0
    4.6890    1.6810   18.4640 C   0  0  0  0  0  0  0  0  0  0  0  0
    8.9960   -2.3380   25.5320 C   0  0  0  0  0  0  0  0  0  0  0  0
    9.6730   -3.4710   23.5300 C   0  0  0  0  0  0  0  0  0  0  0  0
    6.1790    0.5730   19.9990 C   0  0  0  0  0  0  0  0  0  0  0  0
    9.6893    1.6605   25.0477 C   0  0  0  0  0  0  0  0  0  0  0  0
    9.3350   -1.0880   23.5010 C   0  0  0  0  0  0  0  0  0  0  0  0
    5.8300    0.9190   18.6970 C   0  0  0  0  0  0  0  0  0  0  0  0
    9.3070   -3.5340   24.8780 C   0  0  0  0  0  0  0  0  0  0  0  0
    7.3170   -0.1610   19.8550 C   0  0  0  0  0  0  0  0  0  0  0  0
    9.0420    0.3700   21.5280 C   0  0  0  0  0  0  0  0  0  0  0  0
    8.8802   -4.8468   26.9522 C   0  0  0  0  0  0  0  0  0  0  0  0
    9.1312   -5.9971   24.8013 C   0  0  0  0  0  0  0  0  0  0  0  0
    7.4537   -5.3795   27.0345 C   0  0  0  0  0  0  0  0  0  0  0  0
    7.6970   -6.5030   24.9624 C   0  0  0  0  0  0  0  0  0  0  0  0
    8.8746    1.3393   23.8158 C   0  0  0  0  0  0  0  0  0  0  0  0
    9.4560    0.1560   22.8130 C   0  0  1  0  0  0  0  0  0  0  0  0
    7.6390   -0.2680   18.5410 N   0  0  0  0  0  0  0  0  0  0  0  0
    6.7580    0.3810   17.8350 N   0  0  0  0  0  0  0  0  0  0  0  0
    9.2564   -4.7368   25.5411 N   0  0  0  0  0  0  0  0  0  0  0  0
    8.1890   -0.7180   20.8700 N   0  0  0  0  0  0  0  0  0  0  0  0
    9.2690    1.4140   20.9380 O   0  0  0  0  0  0  0  0  0  0  0  0
    7.3604   -6.6337   26.3481 O   0  0  0  0  0  0  0  0  0  0  0  0
   11.7799    2.4844   28.2057 H   0  0  0  0  0  0  0  0  0  0  0  0
    3.6468    2.0173   21.6825 H   0  0  0  0  0  0  0  0  0  0  0  0
    9.3160    2.7725   28.2392 H   0  0  0  0  0  0  0  0  0  0  0  0
   12.9056    1.6690   26.1501 H   0  0  0  0  0  0  0  0  0  0  0  0
    3.0153    2.6527   19.3907 H   0  0  0  0  0  0  0  0  0  0  0  0
    5.7015    0.6980   22.1071 H   0  0  0  0  0  0  0  0  0  0  0  0
    7.9776    2.2479   26.2272 H   0  0  0  0  0  0  0  0  0  0  0  0
   11.5762    1.1418   24.1331 H   0  0  0  0  0  0  0  0  0  0  0  0
    8.9214   -0.1986   25.4206 H   0  0  0  0  0  0  0  0  0  0  0  0
   10.0622   -2.2326   21.8251 H   0  0  0  0  0  0  0  0  0  0  0  0
    4.4064    1.9744   17.4453 H   0  0  0  0  0  0  0  0  0  0  0  0
    8.6882   -2.3542   26.5803 H   0  0  0  0  0  0  0  0  0  0  0  0
    9.9258   -4.3896   22.9914 H   0  0  0  0  0  0  0  0  0  0  0  0
    8.9362   -3.8759   27.4489 H   0  0  0  0  0  0  0  0  0  0  0  0
    9.5593   -5.5413   27.4538 H   0  0  0  0  0  0  0  0  0  0  0  0
    9.8251   -6.7295   25.2159 H   0  0  0  0  0  0  0  0  0  0  0  0
    9.3501   -5.8539   23.7441 H   0  0  0  0  0  0  0  0  0  0  0  0
    7.1818   -5.5525   28.0779 H   0  0  0  0  0  0  0  0  0  0  0  0
    6.7334   -4.6727   26.6129 H   0  0  0  0  0  0  0  0  0  0  0  0
    6.9790   -5.8386   24.4676 H   0  0  0  0  0  0  0  0  0  0  0  0
    7.6015   -7.4918   24.5034 H   0  0  0  0  0  0  0  0  0  0  0  0
    7.8399    1.1224   24.1118 H   0  0  0  0  0  0  0  0  0  0  0  0
    8.8176    2.2492   23.2023 H   0  0  0  0  0  0  0  0  0  0  0  0
   10.6111    0.4645   22.8838 H   0  0  0  0  0  0  0  0  0  0  0  0
    6.8044    0.4388   16.8592 H   0  0  0  0  0  0  0  0  0  0  0  0
    8.2585   -1.5522   21.1129 H   0  0  0  0  0  0  0  0  0  0  0  0
  1  3  1  0  0  0  0
  1  4  2  0  0  0  0
  2  5  1  0  0  0  0
  2  6  2  0  0  0  0
  3  7  2  0  0  0  0
  4  8  1  0  0  0  0
  5 11  2  0  0  0  0
  6 14  1  0  0  0  0
  7 15  1  0  0  0  0
  8 15  2  0  0  0  0
  9 12  2  0  0  0  0
  9 16  1  0  0  0  0
 10 13  1  0  0  0  0
 10 16  2  0  0  0  0
 11 17  1  0  0  0  0
 12 18  1  0  0  0  0
 13 18  2  0  0  0  0
 14 17  2  0  0  0  0
 14 19  1  0  0  0  0
 15 25  1  0  0  0  0
 16 26  1  0  0  0  0
 17 28  1  0  0  0  0
 18 29  1  0  0  0  0
 19 27  2  0  0  0  0
 19 30  1  0  0  0  0
 20 26  1  1  0  0  0
 20 30  1  0  0  0  0
 20 31  2  0  0  0  0
 21 23  1  0  0  0  0
 21 29  1  0  0  0  0
 22 24  1  0  0  0  0
 22 29  1  0  0  0  0
 23 32  1  0  0  0  0
 24 32  1  0  0  0  0
 25 26  1  0  0  0  0
 27 28  1  0  0  0  0
  1 33  1  0  0  0  0
  2 34  1  0  0  0  0
  3 35  1  0  0  0  0
  4 36  1  0  0  0  0
  5 37  1  0  0  0  0
  6 38  1  0  0  0  0
  7 39  1  0  0  0  0
  8 40  1  0  0  0  0
  9 41  1  0  0  0  0
 10 42  1  0  0  0  0
 11 43  1  0  0  0  0
 12 44  1  0  0  0  0
 13 45  1  0  0  0  0
 21 46  1  0  0  0  0
 21 47  1  0  0  0  0
 22 48  1  0  0  0  0
 22 49  1  0  0  0  0
 23 50  1  0  0  0  0
 23 51  1  0  0  0  0
 24 52  1  0  0  0  0
 24 53  1  0  0  0  0
 25 54  1  0  0  0  0
 25 55  1  0  0  0  0
 26 56  1  0  0  0  0
 28 57  1  0  0  0  0
 30 58  1  0  0  0  0
M  END
> <clash_score>
5.275540369421406

> <docking_score>
-4.890196323394775

> <overlap_score>
0.8608978390693665

$$$$
BENZO_248_1
  -OEChem-08232013453D

 55 59  0     1  0  0  0  0  0999 V2000
    4.2750    1.7050   20.8490 C   0  0  0  0  0  0  0  0  0  0  0  0
    3.9160    2.0630   19.5520 C   0  0  0  0  0  0  0  0  0  0  0  0
    5.4210    0.9600   21.0930 C   0  0  0  0  0  0  0  0  0  0  0  0
    9.0720   -1.1280   24.8640 C   0  0  0  0  0  0  0  0  0  0  0  0
    9.7200   -2.2600   22.8630 C   0  0  0  0  0  0  0  0  0  0  0  0
    4.6890    1.6810   18.4640 C   0  0  0  0  0  0  0  0  0  0  0  0
    8.9960   -2.3380   25.5320 C   0  0  0  0  0  0  0  0  0  0  0  0
    9.6730   -3.4710   23.5300 C   0  0  0  0  0  0  0  0  0  0  0  0
   10.3203    3.2228   22.7771 C   0  0  0  0  0  0  0  0  0  0  0  0
   10.2891    4.5743   22.5128 C   0  0  0  0  0  0  0  0  0  0  0  0
    8.2246    3.7981   23.6013 C   0  0  0  0  0  0  0  0  0  0  0  0
    6.1790    0.5730   19.9990 C   0  0  0  0  0  0  0  0  0  0  0  0
    9.3350   -1.0880   23.5010 C   0  0  0  0  0  0  0  0  0  0  0  0
    9.1243    2.7729   23.4075 C   0  0  0  0  0  0  0  0  0  0  0  0
    5.8300    0.9190   18.6970 C   0  0  0  0  0  0  0  0  0  0  0  0
    9.3070   -3.5340   24.8780 C   0  0  0  0  0  0  0  0  0  0  0  0
    7.3170   -0.1610   19.8550 C   0  0  0  0  0  0  0  0  0  0  0  0
    9.0420    0.3700   21.5280 C   0  0  0  0  0  0  0  0  0  0  0  0
    8.8802   -4.8468   26.9522 C   0  0  0  0  0  0  0  0  0  0  0  0
    9.1312   -5.9971   24.8013 C   0  0  0  0  0  0  0  0  0  0  0  0
    7.4537   -5.3795   27.0345 C   0  0  0  0  0  0  0  0  0  0  0  0
    7.6970   -6.5030   24.9624 C   0  0  0  0  0  0  0  0  0  0  0  0
    8.8746    1.3393   23.8158 C   0  0  0  0  0  0  0  0  0  0  0  0
    9.4560    0.1560   22.8130 C   0  0  1  0  0  0  0  0  0  0  0  0
    7.6390   -0.2680   18.5410 N   0  0  0  0  0  0  0  0  0  0  0  0
    6.7580    0.3810   17.8350 N   0  0  0  0  0  0  0  0  0  0  0  0
    9.2564   -4.7368   25.5411 N   0  0  0  0  0  0  0  0  0  0  0  0
    8.1890   -0.7180   20.8700 N   0  0  0  0  0  0  0  0  0  0  0  0
    9.2690    1.4140   20.9380 O   0  0  0  0  0  0  0  0  0  0  0  0
    7.3604   -6.6337   26.3481 O   0  0  0  0  0  0  0  0  0  0  0  0
    8.8224    5.2953   23.0240 S   0  0  0  0  0  0  0  0  0  0  0  0
    3.6468    2.0173   21.6825 H   0  0  0  0  0  0  0  0  0  0  0  0
    3.0153    2.6527   19.3907 H   0  0  0  0  0  0  0  0  0  0  0  0
    5.7015    0.6980   22.1071 H   0  0  0  0  0  0  0  0  0  0  0  0
    8.9214   -0.1986   25.4206 H   0  0  0  0  0  0  0  0  0  0  0  0
   10.0622   -2.2326   21.8251 H   0  0  0  0  0  0  0  0  0  0  0  0
    4.4064    1.9744   17.4453 H   0  0  0  0  0  0  0  0  0  0  0  0
    8.6882   -2.3542   26.5803 H   0  0  0  0  0  0  0  0  0  0  0  0
    9.9258   -4.3896   22.9914 H   0  0  0  0  0  0  0  0  0  0  0  0
   11.1634    2.5905   22.5286 H   0  0  0  0  0  0  0  0  0  0  0  0
   11.0576    5.1730   22.0446 H   0  0  0  0  0  0  0  0  0  0  0  0
    7.2445    3.7440   24.0547 H   0  0  0  0  0  0  0  0  0  0  0  0
    8.9362   -3.8759   27.4489 H   0  0  0  0  0  0  0  0  0  0  0  0
    9.5593   -5.5413   27.4538 H   0  0  0  0  0  0  0  0  0  0  0  0
    9.8251   -6.7295   25.2159 H   0  0  0  0  0  0  0  0  0  0  0  0
    9.3501   -5.8539   23.7441 H   0  0  0  0  0  0  0  0  0  0  0  0
    7.1818   -5.5525   28.0779 H   0  0  0  0  0  0  0  0  0  0  0  0
    6.7334   -4.6727   26.6129 H   0  0  0  0  0  0  0  0  0  0  0  0
    6.9790   -5.8386   24.4676 H   0  0  0  0  0  0  0  0  0  0  0  0
    7.6015   -7.4918   24.5034 H   0  0  0  0  0  0  0  0  0  0  0  0
    9.2322    1.1871   24.8426 H   0  0  0  0  0  0  0  0  0  0  0  0
    7.7874    1.1856   23.8601 H   0  0  0  0  0  0  0  0  0  0  0  0
   10.6111    0.4645   22.8838 H   0  0  0  0  0  0  0  0  0  0  0  0
    6.8044    0.4388   16.8592 H   0  0  0  0  0  0  0  0  0  0  0  0
    8.2585   -1.5522   21.1129 H   0  0  0  0  0  0  0  0  0  0  0  0
  1  2  1  0  0  0  0
  1  3  2  0  0  0  0
  2  6  2  0  0  0  0
  3 12  1  0  0  0  0
  4  7  2  0  0  0  0
  4 13  1  0  0  0  0
  5  8  1  0  0  0  0
  5 13  2  0  0  0  0
  6 15  1  0  0  0  0
  7 16  1  0  0  0  0
  8 16  2  0  0  0  0
  9 10  2  0  0  0  0
  9 14  1  0  0  0  0
 10 31  1  0  0  0  0
 11 14  2  0  0  0  0
 11 31  1  0  0  0  0
 12 15  2  0  0  0  0
 12 17  1  0  0  0  0
 13 24  1  0  0  0  0
 14 23  1  0  0  0  0
 15 26  1  0  0  0  0
 16 27  1  0  0  0  0
 17 25  2  0  0  0  0
 17 28  1  0  0  0  0
 18 24  1  1  0  0  0
 18 28  1  0  0  0  0
 18 29  2  0  0  0  0
 19 21  1  0  0  0  0
 19 27  1  0  0  0  0
 20 22  1  0  0  0  0
 20 27  1  0  0  0  0
 21 30  1  0  0  0  0
 22 30  1  0  0  0  0
 23 24  1  0  0  0  0
 25 26  1  0  0  0  0
  1 32  1  0  0  0  0
  2 33  1  0  0  0  0
  3 34  1  0  0  0  0
  4 35  1  0  0  0  0
  5 36  1  0  0  0  0
  6 37  1  0  0  0  0
  7 38  1  0  0  0  0
  8 39  1  0  0  0  0
  9 40  1  0  0  0  0
 10 41  1  0  0  0  0
 11 42  1  0  0  0  0
 19 43  1  0  0  0  0
 19 44  1  0  0  0  0
 20 45  1  0  0  0  0
 20 46  1  0  0  0  0
 21 47  1  0  0  0  0
 21 48  1  0  0  0  0
 22 49  1  0  0  0  0
 22 50  1  0  0  0  0
 23 51  1  0  0  0  0
 23 52  1  0  0  0  0
 24 53  1  0  0  0  0
 26 54  1  0  0  0  0
 28 55  1  0  0  0  0
M  END
> <clash_score>
0

> <docking_score>
-6.702049255371094

> <overlap_score>
0.861058235168457

$$$$
BENZO_249_2
  -OEChem-08232013453D

 58 62  0     1  0  0  0  0  0999 V2000
   11.4754    4.9665   23.0809 C   0  0  0  0  0  0  0  0  0  0  0  0
    4.2750    1.7050   20.8490 C   0  0  0  0  0  0  0  0  0  0  0  0
   12.5124    4.1581   22.6155 C   0  0  0  0  0  0  0  0  0  0  0  0
   10.2875    4.3882   23.5284 C   0  0  0  0  0  0  0  0  0  0  0  0
    3.9160    2.0630   19.5520 C   0  0  0  0  0  0  0  0  0  0  0  0
    5.4210    0.9600   21.0930 C   0  0  0  0  0  0  0  0  0  0  0  0
   12.3617    2.7716   22.5975 C   0  0  0  0  0  0  0  0  0  0  0  0
   10.1367    3.0017   23.5105 C   0  0  0  0  0  0  0  0  0  0  0  0
    9.0720   -1.1280   24.8640 C   0  0  0  0  0  0  0  0  0  0  0  0
    9.7200   -2.2600   22.8630 C   0  0  0  0  0  0  0  0  0  0  0  0
    4.6890    1.6810   18.4640 C   0  0  0  0  0  0  0  0  0  0  0  0
    8.9960   -2.3380   25.5320 C   0  0  0  0  0  0  0  0  0  0  0  0
    9.6730   -3.4710   23.5300 C   0  0  0  0  0  0  0  0  0  0  0  0
    6.1790    0.5730   19.9990 C   0  0  0  0  0  0  0  0  0  0  0  0
   11.1738    2.1933   23.0450 C   0  0  0  0  0  0  0  0  0  0  0  0
    9.3350   -1.0880   23.5010 C   0  0  0  0  0  0  0  0  0  0  0  0
    5.8300    0.9190   18.6970 C   0  0  0  0  0  0  0  0  0  0  0  0
    9.3070   -3.5340   24.8780 C   0  0  0  0  0  0  0  0  0  0  0  0
    7.3170   -0.1610   19.8550 C   0  0  0  0  0  0  0  0  0  0  0  0
    9.0420    0.3700   21.5280 C   0  0  0  0  0  0  0  0  0  0  0  0
    9.5176   -4.8600   26.9769 C   0  0  0  0  0  0  0  0  0  0  0  0
    8.5166   -5.8725   24.9805 C   0  0  0  0  0  0  0  0  0  0  0  0
    8.1870   -5.0443   27.6986 C   0  0  0  0  0  0  0  0  0  0  0  0
    7.2201   -6.0348   25.7753 C   0  0  0  0  0  0  0  0  0  0  0  0
   11.0096    0.6909   23.0256 C   0  0  0  0  0  0  0  0  0  0  0  0
    9.4560    0.1560   22.8130 C   0  0  2  0  0  0  0  0  0  0  0  0
    7.6390   -0.2680   18.5410 N   0  0  0  0  0  0  0  0  0  0  0  0
    6.7580    0.3810   17.8350 N   0  0  0  0  0  0  0  0  0  0  0  0
    9.2564   -4.7368   25.5411 N   0  0  0  0  0  0  0  0  0  0  0  0
    8.1890   -0.7180   20.8700 N   0  0  0  0  0  0  0  0  0  0  0  0
    9.2690    1.4140   20.9380 O   0  0  0  0  0  0  0  0  0  0  0  0
    7.4995   -6.1856   27.1717 O   0  0  0  0  0  0  0  0  0  0  0  0
   11.5934    6.0460   23.0961 H   0  0  0  0  0  0  0  0  0  0  0  0
    3.6468    2.0173   21.6825 H   0  0  0  0  0  0  0  0  0  0  0  0
   13.4379    4.6081   22.2680 H   0  0  0  0  0  0  0  0  0  0  0  0
    9.4802    5.0172   23.8919 H   0  0  0  0  0  0  0  0  0  0  0  0
    3.0153    2.6527   19.3907 H   0  0  0  0  0  0  0  0  0  0  0  0
    5.7015    0.6980   22.1071 H   0  0  0  0  0  0  0  0  0  0  0  0
   13.1750    2.1496   22.2330 H   0  0  0  0  0  0  0  0  0  0  0  0
    9.2076    2.5600   23.8610 H   0  0  0  0  0  0  0  0  0  0  0  0
    8.9214   -0.1986   25.4206 H   0  0  0  0  0  0  0  0  0  0  0  0
   10.0622   -2.2326   21.8251 H   0  0  0  0  0  0  0  0  0  0  0  0
    4.4064    1.9744   17.4453 H   0  0  0  0  0  0  0  0  0  0  0  0
    8.6882   -2.3542   26.5803 H   0  0  0  0  0  0  0  0  0  0  0  0
    9.9258   -4.3896   22.9914 H   0  0  0  0  0  0  0  0  0  0  0  0
   10.0207   -3.9702   27.3608 H   0  0  0  0  0  0  0  0  0  0  0  0
   10.1536   -5.7313   27.1546 H   0  0  0  0  0  0  0  0  0  0  0  0
    9.1181   -6.7774   25.0751 H   0  0  0  0  0  0  0  0  0  0  0  0
    8.2812   -5.7063   23.9302 H   0  0  0  0  0  0  0  0  0  0  0  0
    8.3631   -5.2257   28.7609 H   0  0  0  0  0  0  0  0  0  0  0  0
    7.5532   -4.1574   27.6103 H   0  0  0  0  0  0  0  0  0  0  0  0
    6.5460   -5.1840   25.6220 H   0  0  0  0  0  0  0  0  0  0  0  0
    6.6948   -6.9355   25.4433 H   0  0  0  0  0  0  0  0  0  0  0  0
   11.6022    0.2720   22.2019 H   0  0  0  0  0  0  0  0  0  0  0  0
   11.4622    0.2902   23.9433 H   0  0  0  0  0  0  0  0  0  0  0  0
    8.9292    0.9747   23.5105 H   0  0  0  0  0  0  0  0  0  0  0  0
    6.8044    0.4388   16.8592 H   0  0  0  0  0  0  0  0  0  0  0  0
    8.2585   -1.5522   21.1129 H   0  0  0  0  0  0  0  0  0  0  0  0
  1  3  1  0  0  0  0
  1  4  2  0  0  0  0
  2  5  1  0  0  0  0
  2  6  2  0  0  0  0
  3  7  2  0  0  0  0
  4  8  1  0  0  0  0
  5 11  2  0  0  0  0
  6 14  1  0  0  0  0
  7 15  1  0  0  0  0
  8 15  2  0  0  0  0
  9 12  2  0  0  0  0
  9 16  1  0  0  0  0
 10 13  1  0  0  0  0
 10 16  2  0  0  0  0
 11 17  1  0  0  0  0
 12 18  1  0  0  0  0
 13 18  2  0  0  0  0
 14 17  2  0  0  0  0
 14 19  1  0  0  0  0
 15 25  1  0  0  0  0
 16 26  1  0  0  0  0
 17 28  1  0  0  0  0
 18 29  1  0  0  0  0
 19 27  2  0  0  0  0
 19 30  1  0  0  0  0
 20 26  1  6  0  0  0
 20 30  1  0  0  0  0
 20 31  2  0  0  0  0
 21 23  1  0  0  0  0
 21 29  1  0  0  0  0
 22 24  1  0  0  0  0
 22 29  1  0  0  0  0
 23 32  1  0  0  0  0
 24 32  1  0  0  0  0
 25 26  1  0  0  0  0
 27 28  1  0  0  0  0
  1 33  1  0  0  0  0
  2 34  1  0  0  0  0
  3 35  1  0  0  0  0
  4 36  1  0  0  0  0
  5 37  1  0  0  0  0
  6 38  1  0  0  0  0
  7 39  1  0  0  0  0
  8 40  1  0  0  0  0
  9 41  1  0  0  0  0
 10 42  1  0  0  0  0
 11 43  1  0  0  0  0
 12 44  1  0  0  0  0
 13 45  1  0  0  0  0
 21 46  1  0  0  0  0
 21 47  1  0  0  0  0
 22 48  1  0  0  0  0
 22 49  1  0  0  0  0
 23 50  1  0  0  0  0
 23 51  1  0  0  0  0
 24 52  1  0  0  0  0
 24 53  1  0  0  0  0
 25 54  1  0  0  0  0
 25 55  1  0  0  0  0
 26 56  1  0  0  0  0
 28 57  1  0  0  0  0
 30 58  1  0  0  0  0
M  END
> <clash_score>
0

> <docking_score>
-9.750529289245605

> <overlap_score>
0.9441663026809692

$$$$
BENZO_248_2
  -OEChem-08232013453D

 55 59  0     1  0  0  0  0  0999 V2000
    4.2750    1.7050   20.8490 C   0  0  0  0  0  0  0  0  0  0  0  0
    3.9160    2.0630   19.5520 C   0  0  0  0  0  0  0  0  0  0  0  0
    5.4210    0.9600   21.0930 C   0  0  0  0  0  0  0  0  0  0  0  0
    9.0720   -1.1280   24.8640 C   0  0  0  0  0  0  0  0  0  0  0  0
    9.7200   -2.2600   22.8630 C   0  0  0  0  0  0  0  0  0  0  0  0
    4.6890    1.6810   18.4640 C   0  0  0  0  0  0  0  0  0  0  0  0
    8.9960   -2.3380   25.5320 C   0  0  0  0  0  0  0  0  0  0  0  0
    9.6730   -3.4710   23.5300 C   0  0  0  0  0  0  0  0  0  0  0  0
   11.9814    2.9163   22.1204 C   0  0  0  0  0  0  0  0  0  0  0  0
   11.9562    4.2724   22.3613 C   0  0  0  0  0  0  0  0  0  0  0  0
   10.5621    3.0244   23.9578 C   0  0  0  0  0  0  0  0  0  0  0  0
    6.1790    0.5730   19.9990 C   0  0  0  0  0  0  0  0  0  0  0  0
    9.3350   -1.0880   23.5010 C   0  0  0  0  0  0  0  0  0  0  0  0
   11.1738    2.1933   23.0450 C   0  0  0  0  0  0  0  0  0  0  0  0
    5.8300    0.9190   18.6970 C   0  0  0  0  0  0  0  0  0  0  0  0
    9.3070   -3.5340   24.8780 C   0  0  0  0  0  0  0  0  0  0  0  0
    7.3170   -0.1610   19.8550 C   0  0  0  0  0  0  0  0  0  0  0  0
    9.0420    0.3700   21.5280 C   0  0  0  0  0  0  0  0  0  0  0  0
    8.8802   -4.8468   26.9522 C   0  0  0  0  0  0  0  0  0  0  0  0
    9.1312   -5.9971   24.8013 C   0  0  0  0  0  0  0  0  0  0  0  0
    7.4537   -5.3795   27.0345 C   0  0  0  0  0  0  0  0  0  0  0  0
    7.6970   -6.5030   24.9624 C   0  0  0  0  0  0  0  0  0  0  0  0
   11.0096    0.6909   23.0256 C   0  0  0  0  0  0  0  0  0  0  0  0
    9.4560    0.1560   22.8130 C   0  0  2  0  0  0  0  0  0  0  0  0
    7.6390   -0.2680   18.5410 N   0  0  0  0  0  0  0  0  0  0  0  0
    6.7580    0.3810   17.8350 N   0  0  0  0  0  0  0  0  0  0  0  0
    9.2564   -4.7368   25.5411 N   0  0  0  0  0  0  0  0  0  0  0  0
    8.1890   -0.7180   20.8700 N   0  0  0  0  0  0  0  0  0  0  0  0
    9.2690    1.4140   20.9380 O   0  0  0  0  0  0  0  0  0  0  0  0
    7.3604   -6.6337   26.3481 O   0  0  0  0  0  0  0  0  0  0  0  0
   10.9619    4.6690   23.6978 S   0  0  0  0  0  0  0  0  0  0  0  0
    3.6468    2.0173   21.6825 H   0  0  0  0  0  0  0  0  0  0  0  0
    3.0153    2.6527   19.3907 H   0  0  0  0  0  0  0  0  0  0  0  0
    5.7015    0.6980   22.1071 H   0  0  0  0  0  0  0  0  0  0  0  0
    8.9214   -0.1986   25.4206 H   0  0  0  0  0  0  0  0  0  0  0  0
   10.0622   -2.2326   21.8251 H   0  0  0  0  0  0  0  0  0  0  0  0
    4.4064    1.9744   17.4453 H   0  0  0  0  0  0  0  0  0  0  0  0
    8.6882   -2.3542   26.5803 H   0  0  0  0  0  0  0  0  0  0  0  0
    9.9258   -4.3896   22.9914 H   0  0  0  0  0  0  0  0  0  0  0  0
   12.5539    2.4685   21.3179 H   0  0  0  0  0  0  0  0  0  0  0  0
   12.4745    5.0491   21.8170 H   0  0  0  0  0  0  0  0  0  0  0  0
    9.9000    2.7486   24.7669 H   0  0  0  0  0  0  0  0  0  0  0  0
    8.9362   -3.8759   27.4489 H   0  0  0  0  0  0  0  0  0  0  0  0
    9.5593   -5.5413   27.4538 H   0  0  0  0  0  0  0  0  0  0  0  0
    9.8251   -6.7295   25.2159 H   0  0  0  0  0  0  0  0  0  0  0  0
    9.3501   -5.8539   23.7441 H   0  0  0  0  0  0  0  0  0  0  0  0
    7.1818   -5.5525   28.0779 H   0  0  0  0  0  0  0  0  0  0  0  0
    6.7334   -4.6727   26.6129 H   0  0  0  0  0  0  0  0  0  0  0  0
    6.9790   -5.8386   24.4676 H   0  0  0  0  0  0  0  0  0  0  0  0
    7.6015   -7.4918   24.5034 H   0  0  0  0  0  0  0  0  0  0  0  0
   11.6022    0.2720   22.2019 H   0  0  0  0  0  0  0  0  0  0  0  0
   11.4622    0.2902   23.9433 H   0  0  0  0  0  0  0  0  0  0  0  0
    8.9292    0.9747   23.5105 H   0  0  0  0  0  0  0  0  0  0  0  0
    6.8044    0.4388   16.8592 H   0  0  0  0  0  0  0  0  0  0  0  0
    8.2585   -1.5522   21.1129 H   0  0  0  0  0  0  0  0  0  0  0  0
  1  2  1  0  0  0  0
  1  3  2  0  0  0  0
  2  6  2  0  0  0  0
  3 12  1  0  0  0  0
  4  7  2  0  0  0  0
  4 13  1  0  0  0  0
  5  8  1  0  0  0  0
  5 13  2  0  0  0  0
  6 15  1  0  0  0  0
  7 16  1  0  0  0  0
  8 16  2  0  0  0  0
  9 10  2  0  0  0  0
  9 14  1  0  0  0  0
 10 31  1  0  0  0  0
 11 14  2  0  0  0  0
 11 31  1  0  0  0  0
 12 15  2  0  0  0  0
 12 17  1  0  0  0  0
 13 24  1  0  0  0  0
 14 23  1  0  0  0  0
 15 26  1  0  0  0  0
 16 27  1  0  0  0  0
 17 25  2  0  0  0  0
 17 28  1  0  0  0  0
 18 24  1  6  0  0  0
 18 28  1  0  0  0  0
 18 29  2  0  0  0  0
 19 21  1  0  0  0  0
 19 27  1  0  0  0  0
 20 22  1  0  0  0  0
 20 27  1  0  0  0  0
 21 30  1  0  0  0  0
 22 30  1  0  0  0  0
 23 24  1  0  0  0  0
 25 26  1  0  0  0  0
  1 32  1  0  0  0  0
  2 33  1  0  0  0  0
  3 34  1  0  0  0  0
  4 35  1  0  0  0  0
  5 36  1  0  0  0  0
  6 37  1  0  0  0  0
  7 38  1  0  0  0  0
  8 39  1  0  0  0  0
  9 40  1  0  0  0  0
 10 41  1  0  0  0  0
 11 42  1  0  0  0  0
 19 43  1  0  0  0  0
 19 44  1  0  0  0  0
 20 45  1  0  0  0  0
 20 46  1  0  0  0  0
 21 47  1  0  0  0  0
 21 48  1  0  0  0  0
 22 49  1  0  0  0  0
 22 50  1  0  0  0  0
 23 51  1  0  0  0  0
 23 52  1  0  0  0  0
 24 53  1  0  0  0  0
 26 54  1  0  0  0  0
 28 55  1  0  0  0  0
M  END
> <clash_score>
0

> <docking_score>
-8.823543548583984

> <overlap_score>
0.9365742802619934

$$$$
BENZO_250_1
  -OEChem-08232013453D

 58 62  0     1  0  0  0  0  0999 V2000
    4.2750    1.7050   20.8490 C   0  0  0  0  0  0  0  0  0  0  0  0
    3.9160    2.0630   19.5520 C   0  0  0  0  0  0  0  0  0  0  0  0
    8.4264    4.7647   22.2317 C   0  0  0  0  0  0  0  0  0  0  0  0
    5.4210    0.9600   21.0930 C   0  0  0  0  0  0  0  0  0  0  0  0
    8.1972    3.4413   22.6079 C   0  0  0  0  0  0  0  0  0  0  0  0
    9.0720   -1.1280   24.8640 C   0  0  0  0  0  0  0  0  0  0  0  0
    9.7200   -2.2600   22.8630 C   0  0  0  0  0  0  0  0  0  0  0  0
    4.6890    1.6810   18.4640 C   0  0  0  0  0  0  0  0  0  0  0  0
    8.9960   -2.3380   25.5320 C   0  0  0  0  0  0  0  0  0  0  0  0
    9.6730   -3.4710   23.5300 C   0  0  0  0  0  0  0  0  0  0  0  0
    9.5829    5.4198   22.6550 C   0  0  0  0  0  0  0  0  0  0  0  0
   10.2808    3.4280   23.8309 C   0  0  0  0  0  0  0  0  0  0  0  0
    6.1790    0.5730   19.9990 C   0  0  0  0  0  0  0  0  0  0  0  0
    9.3350   -1.0880   23.5010 C   0  0  0  0  0  0  0  0  0  0  0  0
    9.1243    2.7729   23.4075 C   0  0  0  0  0  0  0  0  0  0  0  0
    5.8300    0.9190   18.6970 C   0  0  0  0  0  0  0  0  0  0  0  0
    9.3070   -3.5340   24.8780 C   0  0  0  0  0  0  0  0  0  0  0  0
   10.5100    4.7515   23.4546 C   0  0  0  0  0  0  0  0  0  0  0  0
    7.3170   -0.1610   19.8550 C   0  0  0  0  0  0  0  0  0  0  0  0
    9.0420    0.3700   21.5280 C   0  0  0  0  0  0  0  0  0  0  0  0
    9.5835   -5.9889   24.8508 C   0  0  0  0  0  0  0  0  0  0  0  0
    8.4830   -4.9307   26.7696 C   0  0  0  0  0  0  0  0  0  0  0  0
    8.2780   -6.7382   24.5802 C   0  0  0  0  0  0  0  0  0  0  0  0
    7.2139   -5.7040   26.4277 C   0  0  0  0  0  0  0  0  0  0  0  0
    8.8746    1.3393   23.8158 C   0  0  0  0  0  0  0  0  0  0  0  0
    9.4560    0.1560   22.8130 C   0  0  1  0  0  0  0  0  0  0  0  0
    7.6390   -0.2680   18.5410 N   0  0  0  0  0  0  0  0  0  0  0  0
    6.7580    0.3810   17.8350 N   0  0  0  0  0  0  0  0  0  0  0  0
    9.2564   -4.7368   25.5411 N   0  0  0  0  0  0  0  0  0  0  0  0
    8.1890   -0.7180   20.8700 N   0  0  0  0  0  0  0  0  0  0  0  0
    9.2690    1.4140   20.9380 O   0  0  0  0  0  0  0  0  0  0  0  0
    7.5531   -6.9453   25.7977 O   0  0  0  0  0  0  0  0  0  0  0  0
   11.9361    5.5606   23.9775 Cl  0  0  0  0  0  0  0  0  0  0  0  0
    3.6468    2.0173   21.6825 H   0  0  0  0  0  0  0  0  0  0  0  0
    3.0153    2.6527   19.3907 H   0  0  0  0  0  0  0  0  0  0  0  0
    7.7041    5.2848   21.6092 H   0  0  0  0  0  0  0  0  0  0  0  0
    5.7015    0.6980   22.1071 H   0  0  0  0  0  0  0  0  0  0  0  0
    7.2933    2.9387   22.2736 H   0  0  0  0  0  0  0  0  0  0  0  0
    8.9214   -0.1986   25.4206 H   0  0  0  0  0  0  0  0  0  0  0  0
   10.0622   -2.2326   21.8251 H   0  0  0  0  0  0  0  0  0  0  0  0
    4.4064    1.9744   17.4453 H   0  0  0  0  0  0  0  0  0  0  0  0
    8.6882   -2.3542   26.5803 H   0  0  0  0  0  0  0  0  0  0  0  0
    9.9258   -4.3896   22.9914 H   0  0  0  0  0  0  0  0  0  0  0  0
    9.7483    6.4515   22.3543 H   0  0  0  0  0  0  0  0  0  0  0  0
   11.0008    2.9024   24.4538 H   0  0  0  0  0  0  0  0  0  0  0  0
   10.2403   -6.6108   25.4579 H   0  0  0  0  0  0  0  0  0  0  0  0
   10.0757   -5.7616   23.9043 H   0  0  0  0  0  0  0  0  0  0  0  0
    8.2168   -3.9556   27.1860 H   0  0  0  0  0  0  0  0  0  0  0  0
    9.0602   -5.4857   27.5117 H   0  0  0  0  0  0  0  0  0  0  0  0
    7.6439   -6.1455   23.9135 H   0  0  0  0  0  0  0  0  0  0  0  0
    8.4620   -7.7014   24.0901 H   0  0  0  0  0  0  0  0  0  0  0  0
    6.6049   -5.8940   27.3159 H   0  0  0  0  0  0  0  0  0  0  0  0
    6.6090   -5.1300   25.7228 H   0  0  0  0  0  0  0  0  0  0  0  0
    9.2322    1.1871   24.8426 H   0  0  0  0  0  0  0  0  0  0  0  0
    7.7874    1.1856   23.8601 H   0  0  0  0  0  0  0  0  0  0  0  0
   10.6111    0.4645   22.8838 H   0  0  0  0  0  0  0  0  0  0  0  0
    6.8044    0.4388   16.8592 H   0  0  0  0  0  0  0  0  0  0  0  0
    8.2585   -1.5522   21.1129 H   0  0  0  0  0  0  0  0  0  0  0  0
  1  2  1  0  0  0  0
  1  4  2  0  0  0  0
  2  8  2  0  0  0  0
  3  5  2  0  0  0  0
  3 11  1  0  0  0  0
  4 13  1  0  0  0  0
  5 15  1  0  0  0  0
  6  9  2  0  0  0  0
  6 14  1  0  0  0  0
  7 10  1  0  0  0  0
  7 14  2  0  0  0  0
  8 16  1  0  0  0  0
  9 17  1  0  0  0  0
 10 17  2  0  0  0  0
 11 18  2  0  0  0  0
 12 15  2  0  0  0  0
 12 18  1  0  0  0  0
 13 16  2  0  0  0  0
 13 19  1  0  0  0  0
 14 26  1  0  0  0  0
 15 25  1  0  0  0  0
 16 28  1  0  0  0  0
 17 29  1  0  0  0  0
 18 33  1  0  0  0  0
 19 27  2  0  0  0  0
 19 30  1  0  0  0  0
 20 26  1  1  0  0  0
 20 30  1  0  0  0  0
 20 31  2  0  0  0  0
 21 23  1  0  0  0  0
 21 29  1  0  0  0  0
 22 24  1  0  0  0  0
 22 29  1  0  0  0  0
 23 32  1  0  0  0  0
 24 32  1  0  0  0  0
 25 26  1  0  0  0  0
 27 28  1  0  0  0  0
  1 34  1  0  0  0  0
  2 35  1  0  0  0  0
  3 36  1  0  0  0  0
  4 37  1  0  0  0  0
  5 38  1  0  0  0  0
  6 39  1  0  0  0  0
  7 40  1  0  0  0  0
  8 41  1  0  0  0  0
  9 42  1  0  0  0  0
 10 43  1  0  0  0  0
 11 44  1  0  0  0  0
 12 45  1  0  0  0  0
 21 46  1  0  0  0  0
 21 47  1  0  0  0  0
 22 48  1  0  0  0  0
 22 49  1  0  0  0  0
 23 50  1  0  0  0  0
 23 51  1  0  0  0  0
 24 52  1  0  0  0  0
 24 53  1  0  0  0  0
 25 54  1  0  0  0  0
 25 55  1  0  0  0  0
 26 56  1  0  0  0  0
 28 57  1  0  0  0  0
 30 58  1  0  0  0  0
M  END
> <clash_score>
0

> <docking_score>
-7.1708664894104

> <overlap_score>
0.8577043414115906

$$$$
BENZO_251_2
  -OEChem-08232013453D

 58 62  0     1  0  0  0  0  0999 V2000
    4.2750    1.7050   20.8490 C   0  0  0  0  0  0  0  0  0  0  0  0
    3.9160    2.0630   19.5520 C   0  0  0  0  0  0  0  0  0  0  0  0
    5.4210    0.9600   21.0930 C   0  0  0  0  0  0  0  0  0  0  0  0
    9.0720   -1.1280   24.8640 C   0  0  0  0  0  0  0  0  0  0  0  0
    9.7200   -2.2600   22.8630 C   0  0  0  0  0  0  0  0  0  0  0  0
    4.6890    1.6810   18.4640 C   0  0  0  0  0  0  0  0  0  0  0  0
    8.9960   -2.3380   25.5320 C   0  0  0  0  0  0  0  0  0  0  0  0
    9.6730   -3.4710   23.5300 C   0  0  0  0  0  0  0  0  0  0  0  0
   10.2059    3.2839   22.6653 C   0  0  0  0  0  0  0  0  0  0  0  0
    8.3433    3.8704   23.6762 C   0  0  0  0  0  0  0  0  0  0  0  0
    6.1790    0.5730   19.9990 C   0  0  0  0  0  0  0  0  0  0  0  0
    9.3350   -1.0880   23.5010 C   0  0  0  0  0  0  0  0  0  0  0  0
    9.1243    2.7729   23.4075 C   0  0  0  0  0  0  0  0  0  0  0  0
    5.8300    0.9190   18.6970 C   0  0  0  0  0  0  0  0  0  0  0  0
    9.3070   -3.5340   24.8780 C   0  0  0  0  0  0  0  0  0  0  0  0
    7.3170   -0.1610   19.8550 C   0  0  0  0  0  0  0  0  0  0  0  0
    9.0420    0.3700   21.5280 C   0  0  0  0  0  0  0  0  0  0  0  0
    9.5835   -5.9889   24.8508 C   0  0  0  0  0  0  0  0  0  0  0  0
    8.4830   -4.9307   26.7696 C   0  0  0  0  0  0  0  0  0  0  0  0
    8.2780   -6.7382   24.5802 C   0  0  0  0  0  0  0  0  0  0  0  0
    7.2139   -5.7040   26.4277 C   0  0  0  0  0  0  0  0  0  0  0  0
    8.5383    6.3046   23.1148 C   0  0  0  0  0  0  0  0  0  0  0  0
    8.8746    1.3393   23.8158 C   0  0  0  0  0  0  0  0  0  0  0  0
    9.4560    0.1560   22.8130 C   0  0  2  0  0  0  0  0  0  0  0  0
   10.1229    4.6032   22.4745 N   0  0  0  0  0  0  0  0  0  0  0  0
    7.6390   -0.2680   18.5410 N   0  0  0  0  0  0  0  0  0  0  0  0
    6.7580    0.3810   17.8350 N   0  0  0  0  0  0  0  0  0  0  0  0
    8.9797    4.9306   23.1006 N   0  0  0  0  0  0  0  0  0  0  0  0
    9.2564   -4.7368   25.5411 N   0  0  0  0  0  0  0  0  0  0  0  0
    8.1890   -0.7180   20.8700 N   0  0  0  0  0  0  0  0  0  0  0  0
    9.2690    1.4140   20.9380 O   0  0  0  0  0  0  0  0  0  0  0  0
    7.5531   -6.9453   25.7977 O   0  0  0  0  0  0  0  0  0  0  0  0
    3.6468    2.0173   21.6825 H   0  0  0  0  0  0  0  0  0  0  0  0
    3.0153    2.6527   19.3907 H   0  0  0  0  0  0  0  0  0  0  0  0
    5.7015    0.6980   22.1071 H   0  0  0  0  0  0  0  0  0  0  0  0
    8.9214   -0.1986   25.4206 H   0  0  0  0  0  0  0  0  0  0  0  0
   10.0622   -2.2326   21.8251 H   0  0  0  0  0  0  0  0  0  0  0  0
    4.4064    1.9744   17.4453 H   0  0  0  0  0  0  0  0  0  0  0  0
    8.6882   -2.3542   26.5803 H   0  0  0  0  0  0  0  0  0  0  0  0
    9.9258   -4.3896   22.9914 H   0  0  0  0  0  0  0  0  0  0  0  0
   11.0518    2.7517   22.2537 H   0  0  0  0  0  0  0  0  0  0  0  0
    7.4115    3.9842   24.2133 H   0  0  0  0  0  0  0  0  0  0  0  0
   10.2403   -6.6108   25.4579 H   0  0  0  0  0  0  0  0  0  0  0  0
   10.0757   -5.7616   23.9043 H   0  0  0  0  0  0  0  0  0  0  0  0
    8.2168   -3.9556   27.1860 H   0  0  0  0  0  0  0  0  0  0  0  0
    9.0602   -5.4857   27.5117 H   0  0  0  0  0  0  0  0  0  0  0  0
    7.6439   -6.1455   23.9135 H   0  0  0  0  0  0  0  0  0  0  0  0
    8.4620   -7.7014   24.0901 H   0  0  0  0  0  0  0  0  0  0  0  0
    6.6049   -5.8940   27.3159 H   0  0  0  0  0  0  0  0  0  0  0  0
    6.6090   -5.1300   25.7228 H   0  0  0  0  0  0  0  0  0  0  0  0
    8.9640    6.7865   23.9989 H   0  0  0  0  0  0  0  0  0  0  0  0
    8.8793    6.8060   22.2046 H   0  0  0  0  0  0  0  0  0  0  0  0
    7.4457    6.3329   23.1513 H   0  0  0  0  0  0  0  0  0  0  0  0
    9.2322    1.1871   24.8426 H   0  0  0  0  0  0  0  0  0  0  0  0
    7.7874    1.1856   23.8601 H   0  0  0  0  0  0  0  0  0  0  0  0
   10.6111    0.4645   22.8838 H   0  0  0  0  0  0  0  0  0  0  0  0
    6.8044    0.4388   16.8592 H   0  0  0  0  0  0  0  0  0  0  0  0
    8.2585   -1.5522   21.1129 H   0  0  0  0  0  0  0  0  0  0  0  0
  1  2  1  0  0  0  0
  1  3  2  0  0  0  0
  2  6  2  0  0  0  0
  3 11  1  0  0  0  0
  4  7  2  0  0  0  0
  4 12  1  0  0  0  0
  5  8  1  0  0  0  0
  5 12  2  0  0  0  0
  6 14  1  0  0  0  0
  7 15  1  0  0  0  0
  8 15  2  0  0  0  0
  9 13  1  0  0  0  0
  9 25  2  0  0  0  0
 10 13  2  0  0  0  0
 10 28  1  0  0  0  0
 11 14  2  0  0  0  0
 11 16  1  0  0  0  0
 12 24  1  0  0  0  0
 13 23  1  0  0  0  0
 14 27  1  0  0  0  0
 15 29  1  0  0  0  0
 16 26  2  0  0  0  0
 16 30  1  0  0  0  0
 17 24  1  0  0  0  0
 17 30  1  0  0  0  0
 17 31  2  0  0  0  0
 18 20  1  0  0  0  0
 18 29  1  0  0  0  0
 19 21  1  0  0  0  0
 19 29  1  0  0  0  0
 20 32  1  0  0  0  0
 21 32  1  0  0  0  0
 22 28  1  0  0  0  0
 23 24  1  6  0  0  0
 25 28  1  0  0  0  0
 26 27  1  0  0  0  0
  1 33  1  0  0  0  0
  2 34  1  0  0  0  0
  3 35  1  0  0  0  0
  4 36  1  0  0  0  0
  5 37  1  0  0  0  0
  6 38  1  0  0  0  0
  7 39  1  0  0  0  0
  8 40  1  0  0  0  0
  9 41  1  0  0  0  0
 10 42  1  0  0  0  0
 18 43  1  0  0  0  0
 18 44  1  0  0  0  0
 19 45  1  0  0  0  0
 19 46  1  0  0  0  0
 20 47  1  0  0  0  0
 20 48  1  0  0  0  0
 21 49  1  0  0  0  0
 21 50  1  0  0  0  0
 22 51  1  0  0  0  0
 22 52  1  0  0  0  0
 22 53  1  0  0  0  0
 23 54  1  0  0  0  0
 23 55  1  0  0  0  0
 24 56  1  0  0  0  0
 27 57  1  0  0  0  0
 30 58  1  0  0  0  0
M  END
> <clash_score>
0

> <docking_score>
-5.412785053253174

> <overlap_score>
0.8582332134246826

$$$$
BENZO_253_1
  -OEChem-08232013453D

 52 55  0     1  0  0  0  0  0999 V2000
   11.4726    4.9577   23.1210 C   0  0  0  0  0  0  0  0  0  0  0  0
   12.5103    4.1537   22.6496 C   0  0  0  0  0  0  0  0  0  0  0  0
   10.2847    4.3752   23.5633 C   0  0  0  0  0  0  0  0  0  0  0  0
   12.3602    2.7672   22.6203 C   0  0  0  0  0  0  0  0  0  0  0  0
   10.1346    2.9888   23.5339 C   0  0  0  0  0  0  0  0  0  0  0  0
    9.0720   -1.1280   24.8640 C   0  0  0  0  0  0  0  0  0  0  0  0
    9.7200   -2.2600   22.8630 C   0  0  0  0  0  0  0  0  0  0  0  0
    8.9960   -2.3380   25.5320 C   0  0  0  0  0  0  0  0  0  0  0  0
    9.6730   -3.4710   23.5300 C   0  0  0  0  0  0  0  0  0  0  0  0
   11.1723    2.1848   23.0624 C   0  0  0  0  0  0  0  0  0  0  0  0
    9.3350   -1.0880   23.5010 C   0  0  0  0  0  0  0  0  0  0  0  0
    9.3070   -3.5340   24.8780 C   0  0  0  0  0  0  0  0  0  0  0  0
    6.1790    0.5730   19.9990 C   0  0  0  0  0  0  0  0  0  0  0  0
    7.3170   -0.1610   19.8550 C   0  0  0  0  0  0  0  0  0  0  0  0
    5.4210    0.9600   21.0930 C   0  0  0  0  0  0  0  0  0  0  0  0
    4.2750    1.7050   20.8490 C   0  0  0  0  0  0  0  0  0  0  0  0
    3.9160    2.0630   19.5520 C   0  0  0  0  0  0  0  0  0  0  0  0
    4.6890    1.6810   18.4640 C   0  0  0  0  0  0  0  0  0  0  0  0
    9.0420    0.3700   21.5280 C   0  0  0  0  0  0  0  0  0  0  0  0
    8.0148   -5.2164   26.1419 C   0  0  0  0  0  0  0  0  0  0  0  0
   10.4390   -5.5857   25.6570 C   0  0  0  0  0  0  0  0  0  0  0  0
   11.0089    0.6825   23.0307 C   0  0  0  0  0  0  0  0  0  0  0  0
    9.4560    0.1560   22.8130 C   0  0  1  0  0  0  0  0  0  0  0  0
    7.6390   -0.2680   18.5410 N   0  0  0  0  0  0  0  0  0  0  0  0
    6.7580    0.3810   17.8350 N   0  0  0  0  0  0  0  0  0  0  0  0
    5.8300    0.9190   18.6970 N   0  0  0  0  0  0  0  0  0  0  0  0
    8.1890   -0.7180   20.8700 N   0  0  0  0  0  0  0  0  0  0  0  0
    9.2556   -4.7554   25.5513 N   0  0  0  0  0  0  0  0  0  0  0  0
    9.2690    1.4140   20.9380 O   0  0  0  0  0  0  0  0  0  0  0  0
   11.5901    6.0371   23.1451 H   0  0  0  0  0  0  0  0  0  0  0  0
   13.4357    4.6069   22.3063 H   0  0  0  0  0  0  0  0  0  0  0  0
    9.4770    5.0009   23.9314 H   0  0  0  0  0  0  0  0  0  0  0  0
   13.1740    2.1486   22.2511 H   0  0  0  0  0  0  0  0  0  0  0  0
    9.2056    2.5438   23.8803 H   0  0  0  0  0  0  0  0  0  0  0  0
    8.9214   -0.1986   25.4206 H   0  0  0  0  0  0  0  0  0  0  0  0
   10.0622   -2.2326   21.8251 H   0  0  0  0  0  0  0  0  0  0  0  0
    8.6882   -2.3542   26.5803 H   0  0  0  0  0  0  0  0  0  0  0  0
    9.9258   -4.3896   22.9914 H   0  0  0  0  0  0  0  0  0  0  0  0
    5.6855    0.7074   22.1002 H   0  0  0  0  0  0  0  0  0  0  0  0
    3.6634    2.0034   21.6926 H   0  0  0  0  0  0  0  0  0  0  0  0
    3.0111    2.6563   19.3629 H   0  0  0  0  0  0  0  0  0  0  0  0
    4.4370    1.9522   17.4626 H   0  0  0  0  0  0  0  0  0  0  0  0
    8.1775   -6.1919   26.6235 H   0  0  0  0  0  0  0  0  0  0  0  0
    7.6740   -4.4890   26.8933 H   0  0  0  0  0  0  0  0  0  0  0  0
    7.2508   -5.3181   25.3570 H   0  0  0  0  0  0  0  0  0  0  0  0
   10.1974   -6.4996   26.2195 H   0  0  0  0  0  0  0  0  0  0  0  0
   10.7877   -5.8568   24.6496 H   0  0  0  0  0  0  0  0  0  0  0  0
   11.2305   -5.0307   26.1819 H   0  0  0  0  0  0  0  0  0  0  0  0
   11.6011    0.2707   22.2030 H   0  0  0  0  0  0  0  0  0  0  0  0
   11.4624    0.2744   23.9446 H   0  0  0  0  0  0  0  0  0  0  0  0
    8.9284    0.9668   23.5149 H   0  0  0  0  0  0  0  0  0  0  0  0
    8.2392   -1.5641   21.0954 H   0  0  0  0  0  0  0  0  0  0  0  0
  1  2  1  0  0  0  0
  1  3  2  0  0  0  0
  2  4  2  0  0  0  0
  3  5  1  0  0  0  0
  4 10  1  0  0  0  0
  5 10  2  0  0  0  0
  6  8  2  0  0  0  0
  6 11  1  0  0  0  0
  7  9  1  0  0  0  0
  7 11  2  0  0  0  0
  8 12  1  0  0  0  0
  9 12  2  0  0  0  0
 10 22  1  0  0  0  0
 11 23  1  0  0  0  0
 12 28  1  0  0  0  0
 13 14  2  0  0  0  0
 13 15  1  0  0  0  0
 13 26  1  0  0  0  0
 14 24  1  0  0  0  0
 14 27  1  0  0  0  0
 15 16  2  0  0  0  0
 16 17  1  0  0  0  0
 17 18  2  0  0  0  0
 18 26  1  0  0  0  0
 19 23  1  0  0  0  0
 19 27  1  0  0  0  0
 19 29  2  0  0  0  0
 20 28  1  0  0  0  0
 21 28  1  0  0  0  0
 22 23  1  1  0  0  0
 24 25  2  0  0  0  0
 25 26  1  0  0  0  0
  1 30  1  0  0  0  0
  2 31  1  0  0  0  0
  3 32  1  0  0  0  0
  4 33  1  0  0  0  0
  5 34  1  0  0  0  0
  6 35  1  0  0  0  0
  7 36  1  0  0  0  0
  8 37  1  0  0  0  0
  9 38  1  0  0  0  0
 15 39  1  0  0  0  0
 16 40  1  0  0  0  0
 17 41  1  0  0  0  0
 18 42  1  0  0  0  0
 20 43  1  0  0  0  0
 20 44  1  0  0  0  0
 20 45  1  0  0  0  0
 21 46  1  0  0  0  0
 21 47  1  0  0  0  0
 21 48  1  0  0  0  0
 22 49  1  0  0  0  0
 22 50  1  0  0  0  0
 23 51  1  0  0  0  0
 27 52  1  0  0  0  0
M  END
> <clash_score>
0

> <docking_score>
-11.2520170211792

> <overlap_score>
0.9285069108009338

$$$$
BENZO_250_2
  -OEChem-08232013453D

 58 62  0     1  0  0  0  0  0999 V2000
    4.2750    1.7050   20.8490 C   0  0  0  0  0  0  0  0  0  0  0  0
    3.9160    2.0630   19.5520 C   0  0  0  0  0  0  0  0  0  0  0  0
   10.2883    4.3880   23.5308 C   0  0  0  0  0  0  0  0  0  0  0  0
    5.4210    0.9600   21.0930 C   0  0  0  0  0  0  0  0  0  0  0  0
   10.1371    3.0016   23.5115 C   0  0  0  0  0  0  0  0  0  0  0  0
    9.0720   -1.1280   24.8640 C   0  0  0  0  0  0  0  0  0  0  0  0
    9.7200   -2.2600   22.8630 C   0  0  0  0  0  0  0  0  0  0  0  0
    4.6890    1.6810   18.4640 C   0  0  0  0  0  0  0  0  0  0  0  0
    8.9960   -2.3380   25.5320 C   0  0  0  0  0  0  0  0  0  0  0  0
    9.6730   -3.4710   23.5300 C   0  0  0  0  0  0  0  0  0  0  0  0
   11.4763    4.9663   23.0834 C   0  0  0  0  0  0  0  0  0  0  0  0
   12.3618    2.7715   22.5978 C   0  0  0  0  0  0  0  0  0  0  0  0
    6.1790    0.5730   19.9990 C   0  0  0  0  0  0  0  0  0  0  0  0
    9.3350   -1.0880   23.5010 C   0  0  0  0  0  0  0  0  0  0  0  0
   11.1738    2.1933   23.0450 C   0  0  0  0  0  0  0  0  0  0  0  0
    5.8300    0.9190   18.6970 C   0  0  0  0  0  0  0  0  0  0  0  0
    9.3070   -3.5340   24.8780 C   0  0  0  0  0  0  0  0  0  0  0  0
   12.5130    4.1581   22.6170 C   0  0  0  0  0  0  0  0  0  0  0  0
    7.3170   -0.1610   19.8550 C   0  0  0  0  0  0  0  0  0  0  0  0
    9.0420    0.3700   21.5280 C   0  0  0  0  0  0  0  0  0  0  0  0
    9.5176   -4.8600   26.9769 C   0  0  0  0  0  0  0  0  0  0  0  0
    8.5166   -5.8725   24.9805 C   0  0  0  0  0  0  0  0  0  0  0  0
    8.1870   -5.0443   27.6986 C   0  0  0  0  0  0  0  0  0  0  0  0
    7.2201   -6.0348   25.7753 C   0  0  0  0  0  0  0  0  0  0  0  0
   11.0096    0.6909   23.0256 C   0  0  0  0  0  0  0  0  0  0  0  0
    9.4560    0.1560   22.8130 C   0  0  2  0  0  0  0  0  0  0  0  0
    7.6390   -0.2680   18.5410 N   0  0  0  0  0  0  0  0  0  0  0  0
    6.7580    0.3810   17.8350 N   0  0  0  0  0  0  0  0  0  0  0  0
    9.2564   -4.7368   25.5411 N   0  0  0  0  0  0  0  0  0  0  0  0
    8.1890   -0.7180   20.8700 N   0  0  0  0  0  0  0  0  0  0  0  0
    9.2690    1.4140   20.9380 O   0  0  0  0  0  0  0  0  0  0  0  0
    7.4995   -6.1856   27.1717 O   0  0  0  0  0  0  0  0  0  0  0  0
   13.9789    4.8720   22.0663 Cl  0  0  0  0  0  0  0  0  0  0  0  0
    3.6468    2.0173   21.6825 H   0  0  0  0  0  0  0  0  0  0  0  0
    3.0153    2.6527   19.3907 H   0  0  0  0  0  0  0  0  0  0  0  0
    9.4808    5.0171   23.8942 H   0  0  0  0  0  0  0  0  0  0  0  0
    5.7015    0.6980   22.1071 H   0  0  0  0  0  0  0  0  0  0  0  0
    9.2080    2.5596   23.8620 H   0  0  0  0  0  0  0  0  0  0  0  0
    8.9214   -0.1986   25.4206 H   0  0  0  0  0  0  0  0  0  0  0  0
   10.0622   -2.2326   21.8251 H   0  0  0  0  0  0  0  0  0  0  0  0
    4.4064    1.9744   17.4453 H   0  0  0  0  0  0  0  0  0  0  0  0
    8.6882   -2.3542   26.5803 H   0  0  0  0  0  0  0  0  0  0  0  0
    9.9258   -4.3896   22.9914 H   0  0  0  0  0  0  0  0  0  0  0  0
   11.5803    6.0484   23.1045 H   0  0  0  0  0  0  0  0  0  0  0  0
   13.1669    2.1370   22.2345 H   0  0  0  0  0  0  0  0  0  0  0  0
   10.0207   -3.9702   27.3608 H   0  0  0  0  0  0  0  0  0  0  0  0
   10.1536   -5.7313   27.1546 H   0  0  0  0  0  0  0  0  0  0  0  0
    9.1181   -6.7774   25.0751 H   0  0  0  0  0  0  0  0  0  0  0  0
    8.2812   -5.7063   23.9302 H   0  0  0  0  0  0  0  0  0  0  0  0
    8.3631   -5.2257   28.7609 H   0  0  0  0  0  0  0  0  0  0  0  0
    7.5532   -4.1574   27.6103 H   0  0  0  0  0  0  0  0  0  0  0  0
    6.5460   -5.1840   25.6220 H   0  0  0  0  0  0  0  0  0  0  0  0
    6.6948   -6.9355   25.4433 H   0  0  0  0  0  0  0  0  0  0  0  0
   11.6022    0.2720   22.2019 H   0  0  0  0  0  0  0  0  0  0  0  0
   11.4622    0.2902   23.9433 H   0  0  0  0  0  0  0  0  0  0  0  0
    8.9292    0.9747   23.5105 H   0  0  0  0  0  0  0  0  0  0  0  0
    6.8044    0.4388   16.8592 H   0  0  0  0  0  0  0  0  0  0  0  0
    8.2585   -1.5522   21.1129 H   0  0  0  0  0  0  0  0  0  0  0  0
  1  2  1  0  0  0  0
  1  4  2  0  0  0  0
  2  8  2  0  0  0  0
  3  5  2  0  0  0  0
  3 11  1  0  0  0  0
  4 13  1  0  0  0  0
  5 15  1  0  0  0  0
  6  9  2  0  0  0  0
  6 14  1  0  0  0  0
  7 10  1  0  0  0  0
  7 14  2  0  0  0  0
  8 16  1  0  0  0  0
  9 17  1  0  0  0  0
 10 17  2  0  0  0  0
 11 18  2  0  0  0  0
 12 15  2  0  0  0  0
 12 18  1  0  0  0  0
 13 16  2  0  0  0  0
 13 19  1  0  0  0  0
 14 26  1  0  0  0  0
 15 25  1  0  0  0  0
 16 28  1  0  0  0  0
 17 29  1  0  0  0  0
 18 33  1  0  0  0  0
 19 27  2  0  0  0  0
 19 30  1  0  0  0  0
 20 26  1  6  0  0  0
 20 30  1  0  0  0  0
 20 31  2  0  0  0  0
 21 23  1  0  0  0  0
 21 29  1  0  0  0  0
 22 24  1  0  0  0  0
 22 29  1  0  0  0  0
 23 32  1  0  0  0  0
 24 32  1  0  0  0  0
 25 26  1  0  0  0  0
 27 28  1  0  0  0  0
  1 34  1  0  0  0  0
  2 35  1  0  0  0  0
  3 36  1  0  0  0  0
  4 37  1  0  0  0  0
  5 38  1  0  0  0  0
  6 39  1  0  0  0  0
  7 40  1  0  0  0  0
  8 41  1  0  0  0  0
  9 42  1  0  0  0  0
 10 43  1  0  0  0  0
 11 44  1  0  0  0  0
 12 45  1  0  0  0  0
 21 46  1  0  0  0  0
 21 47  1  0  0  0  0
 22 48  1  0  0  0  0
 22 49  1  0  0  0  0
 23 50  1  0  0  0  0
 23 51  1  0  0  0  0
 24 52  1  0  0  0  0
 24 53  1  0  0  0  0
 25 54  1  0  0  0  0
 25 55  1  0  0  0  0
 26 56  1  0  0  0  0
 28 57  1  0  0  0  0
 30 58  1  0  0  0  0
M  END
> <clash_score>
0

> <docking_score>
-10.179476737976074

> <overlap_score>
0.9450560808181763

$$$$
BENZO_253_2
  -OEChem-08232013453D

 52 55  0     1  0  0  0  0  0999 V2000
    9.6170    5.4099   22.6808 C   0  0  0  0  0  0  0  0  0  0  0  0
    8.4752    5.0878   23.4143 C   0  0  0  0  0  0  0  0  0  0  0  0
   10.5182    4.4090   22.3177 C   0  0  0  0  0  0  0  0  0  0  0  0
    8.2345    3.7648   23.7849 C   0  0  0  0  0  0  0  0  0  0  0  0
   10.2775    3.0860   22.6883 C   0  0  0  0  0  0  0  0  0  0  0  0
    9.0720   -1.1280   24.8640 C   0  0  0  0  0  0  0  0  0  0  0  0
    9.7200   -2.2600   22.8630 C   0  0  0  0  0  0  0  0  0  0  0  0
    8.9960   -2.3380   25.5320 C   0  0  0  0  0  0  0  0  0  0  0  0
    9.6730   -3.4710   23.5300 C   0  0  0  0  0  0  0  0  0  0  0  0
    9.1357    2.7638   23.4219 C   0  0  0  0  0  0  0  0  0  0  0  0
    9.3350   -1.0880   23.5010 C   0  0  0  0  0  0  0  0  0  0  0  0
    9.3070   -3.5340   24.8780 C   0  0  0  0  0  0  0  0  0  0  0  0
    6.1790    0.5730   19.9990 C   0  0  0  0  0  0  0  0  0  0  0  0
    7.3170   -0.1610   19.8550 C   0  0  0  0  0  0  0  0  0  0  0  0
    5.4210    0.9600   21.0930 C   0  0  0  0  0  0  0  0  0  0  0  0
    4.2750    1.7050   20.8490 C   0  0  0  0  0  0  0  0  0  0  0  0
    3.9160    2.0630   19.5520 C   0  0  0  0  0  0  0  0  0  0  0  0
    4.6890    1.6810   18.4640 C   0  0  0  0  0  0  0  0  0  0  0  0
    9.0420    0.3700   21.5280 C   0  0  0  0  0  0  0  0  0  0  0  0
    8.8766   -4.8076   26.9494 C   0  0  0  0  0  0  0  0  0  0  0  0
    9.5670   -5.9896   24.8578 C   0  0  0  0  0  0  0  0  0  0  0  0
    8.8757    1.3301   23.8233 C   0  0  0  0  0  0  0  0  0  0  0  0
    9.4560    0.1560   22.8130 C   0  0  2  0  0  0  0  0  0  0  0  0
    7.6390   -0.2680   18.5410 N   0  0  0  0  0  0  0  0  0  0  0  0
    6.7580    0.3810   17.8350 N   0  0  0  0  0  0  0  0  0  0  0  0
    5.8300    0.9190   18.6970 N   0  0  0  0  0  0  0  0  0  0  0  0
    8.1890   -0.7180   20.8700 N   0  0  0  0  0  0  0  0  0  0  0  0
    9.2556   -4.7554   25.5513 N   0  0  0  0  0  0  0  0  0  0  0  0
    9.2690    1.4140   20.9380 O   0  0  0  0  0  0  0  0  0  0  0  0
    9.8035    6.4400   22.3912 H   0  0  0  0  0  0  0  0  0  0  0  0
    7.7728    5.8668   23.6961 H   0  0  0  0  0  0  0  0  0  0  0  0
   11.4067    4.6593   21.7457 H   0  0  0  0  0  0  0  0  0  0  0  0
    7.3424    3.5231   24.3565 H   0  0  0  0  0  0  0  0  0  0  0  0
   10.9853    2.3128   22.4011 H   0  0  0  0  0  0  0  0  0  0  0  0
    8.9214   -0.1986   25.4206 H   0  0  0  0  0  0  0  0  0  0  0  0
   10.0622   -2.2326   21.8251 H   0  0  0  0  0  0  0  0  0  0  0  0
    8.6882   -2.3542   26.5803 H   0  0  0  0  0  0  0  0  0  0  0  0
    9.9258   -4.3896   22.9914 H   0  0  0  0  0  0  0  0  0  0  0  0
    5.6855    0.7074   22.1002 H   0  0  0  0  0  0  0  0  0  0  0  0
    3.6634    2.0034   21.6926 H   0  0  0  0  0  0  0  0  0  0  0  0
    3.0111    2.6563   19.3629 H   0  0  0  0  0  0  0  0  0  0  0  0
    4.4370    1.9522   17.4626 H   0  0  0  0  0  0  0  0  0  0  0  0
    8.8956   -5.8513   27.2963 H   0  0  0  0  0  0  0  0  0  0  0  0
    9.5845   -4.2109   27.5435 H   0  0  0  0  0  0  0  0  0  0  0  0
    7.8621   -4.3997   27.0696 H   0  0  0  0  0  0  0  0  0  0  0  0
    9.4708   -6.8361   25.5536 H   0  0  0  0  0  0  0  0  0  0  0  0
    8.8693   -6.1242   24.0180 H   0  0  0  0  0  0  0  0  0  0  0  0
   10.5973   -5.9450   24.4750 H   0  0  0  0  0  0  0  0  0  0  0  0
    9.2390    1.1684   24.8466 H   0  0  0  0  0  0  0  0  0  0  0  0
    7.7875    1.1860   23.8742 H   0  0  0  0  0  0  0  0  0  0  0  0
   10.6103    0.4565   22.8881 H   0  0  0  0  0  0  0  0  0  0  0  0
    8.2392   -1.5641   21.0954 H   0  0  0  0  0  0  0  0  0  0  0  0
  1  2  1  0  0  0  0
  1  3  2  0  0  0  0
  2  4  2  0  0  0  0
  3  5  1  0  0  0  0
  4 10  1  0  0  0  0
  5 10  2  0  0  0  0
  6  8  2  0  0  0  0
  6 11  1  0  0  0  0
  7  9  1  0  0  0  0
  7 11  2  0  0  0  0
  8 12  1  0  0  0  0
  9 12  2  0  0  0  0
 10 22  1  0  0  0  0
 11 23  1  0  0  0  0
 12 28  1  0  0  0  0
 13 14  2  0  0  0  0
 13 15  1  0  0  0  0
 13 26  1  0  0  0  0
 14 24  1  0  0  0  0
 14 27  1  0  0  0  0
 15 16  2  0  0  0  0
 16 17  1  0  0  0  0
 17 18  2  0  0  0  0
 18 26  1  0  0  0  0
 19 23  1  0  0  0  0
 19 27  1  0  0  0  0
 19 29  2  0  0  0  0
 20 28  1  0  0  0  0
 21 28  1  0  0  0  0
 22 23  1  6  0  0  0
 24 25  2  0  0  0  0
 25 26  1  0  0  0  0
  1 30  1  0  0  0  0
  2 31  1  0  0  0  0
  3 32  1  0  0  0  0
  4 33  1  0  0  0  0
  5 34  1  0  0  0  0
  6 35  1  0  0  0  0
  7 36  1  0  0  0  0
  8 37  1  0  0  0  0
  9 38  1  0  0  0  0
 15 39  1  0  0  0  0
 16 40  1  0  0  0  0
 17 41  1  0  0  0  0
 18 42  1  0  0  0  0
 20 43  1  0  0  0  0
 20 44  1  0  0  0  0
 20 45  1  0  0  0  0
 21 46  1  0  0  0  0
 21 47  1  0  0  0  0
 21 48  1  0  0  0  0
 22 49  1  0  0  0  0
 22 50  1  0  0  0  0
 23 51  1  0  0  0  0
 27 52  1  0  0  0  0
M  END
> <clash_score>
0

> <docking_score>
-7.4664812088012695

> <overlap_score>
0.8459813594818115

$$$$
BENZO_252_2
  -OEChem-08232013453D

 49 52  0     1  0  0  0  0  0999 V2000
    9.0720   -1.1280   24.8640 C   0  0  0  0  0  0  0  0  0  0  0  0
    9.7200   -2.2600   22.8630 C   0  0  0  0  0  0  0  0  0  0  0  0
    8.9960   -2.3380   25.5320 C   0  0  0  0  0  0  0  0  0  0  0  0
    9.6730   -3.4710   23.5300 C   0  0  0  0  0  0  0  0  0  0  0  0
   10.3314    3.2065   22.7858 C   0  0  0  0  0  0  0  0  0  0  0  0
   10.3108    4.5599   22.5298 C   0  0  0  0  0  0  0  0  0  0  0  0
    8.2468    3.7959   23.6280 C   0  0  0  0  0  0  0  0  0  0  0  0
    9.3350   -1.0880   23.5010 C   0  0  0  0  0  0  0  0  0  0  0  0
    9.1357    2.7638   23.4219 C   0  0  0  0  0  0  0  0  0  0  0  0
    9.3070   -3.5340   24.8780 C   0  0  0  0  0  0  0  0  0  0  0  0
    6.1790    0.5730   19.9990 C   0  0  0  0  0  0  0  0  0  0  0  0
    7.3170   -0.1610   19.8550 C   0  0  0  0  0  0  0  0  0  0  0  0
    5.4210    0.9600   21.0930 C   0  0  0  0  0  0  0  0  0  0  0  0
    4.2750    1.7050   20.8490 C   0  0  0  0  0  0  0  0  0  0  0  0
    3.9160    2.0630   19.5520 C   0  0  0  0  0  0  0  0  0  0  0  0
    4.6890    1.6810   18.4640 C   0  0  0  0  0  0  0  0  0  0  0  0
    9.0420    0.3700   21.5280 C   0  0  0  0  0  0  0  0  0  0  0  0
    8.8766   -4.8076   26.9494 C   0  0  0  0  0  0  0  0  0  0  0  0
    9.5670   -5.9896   24.8578 C   0  0  0  0  0  0  0  0  0  0  0  0
    8.8757    1.3301   23.8233 C   0  0  0  0  0  0  0  0  0  0  0  0
    9.4560    0.1560   22.8130 C   0  0  2  0  0  0  0  0  0  0  0  0
    7.6390   -0.2680   18.5410 N   0  0  0  0  0  0  0  0  0  0  0  0
    6.7580    0.3810   17.8350 N   0  0  0  0  0  0  0  0  0  0  0  0
    5.8300    0.9190   18.6970 N   0  0  0  0  0  0  0  0  0  0  0  0
    8.1890   -0.7180   20.8700 N   0  0  0  0  0  0  0  0  0  0  0  0
    9.2556   -4.7554   25.5513 N   0  0  0  0  0  0  0  0  0  0  0  0
    9.2690    1.4140   20.9380 O   0  0  0  0  0  0  0  0  0  0  0  0
    8.8543    5.2911   23.0556 S   0  0  0  0  0  0  0  0  0  0  0  0
    8.9214   -0.1986   25.4206 H   0  0  0  0  0  0  0  0  0  0  0  0
   10.0622   -2.2326   21.8251 H   0  0  0  0  0  0  0  0  0  0  0  0
    8.6882   -2.3542   26.5803 H   0  0  0  0  0  0  0  0  0  0  0  0
    9.9258   -4.3896   22.9914 H   0  0  0  0  0  0  0  0  0  0  0  0
   11.1669    2.5681   22.5277 H   0  0  0  0  0  0  0  0  0  0  0  0
   11.0815    5.1544   22.0599 H   0  0  0  0  0  0  0  0  0  0  0  0
    7.2694    3.7480   24.0879 H   0  0  0  0  0  0  0  0  0  0  0  0
    5.6855    0.7074   22.1002 H   0  0  0  0  0  0  0  0  0  0  0  0
    3.6634    2.0034   21.6926 H   0  0  0  0  0  0  0  0  0  0  0  0
    3.0111    2.6563   19.3629 H   0  0  0  0  0  0  0  0  0  0  0  0
    4.4370    1.9522   17.4626 H   0  0  0  0  0  0  0  0  0  0  0  0
    8.8956   -5.8513   27.2963 H   0  0  0  0  0  0  0  0  0  0  0  0
    9.5845   -4.2109   27.5435 H   0  0  0  0  0  0  0  0  0  0  0  0
    7.8621   -4.3997   27.0696 H   0  0  0  0  0  0  0  0  0  0  0  0
    9.4708   -6.8361   25.5536 H   0  0  0  0  0  0  0  0  0  0  0  0
    8.8693   -6.1242   24.0180 H   0  0  0  0  0  0  0  0  0  0  0  0
   10.5973   -5.9450   24.4750 H   0  0  0  0  0  0  0  0  0  0  0  0
    9.2390    1.1684   24.8466 H   0  0  0  0  0  0  0  0  0  0  0  0
    7.7875    1.1860   23.8742 H   0  0  0  0  0  0  0  0  0  0  0  0
   10.6103    0.4565   22.8881 H   0  0  0  0  0  0  0  0  0  0  0  0
    8.2392   -1.5641   21.0954 H   0  0  0  0  0  0  0  0  0  0  0  0
  1  3  2  0  0  0  0
  1  8  1  0  0  0  0
  2  4  1  0  0  0  0
  2  8  2  0  0  0  0
  3 10  1  0  0  0  0
  4 10  2  0  0  0  0
  5  6  2  0  0  0  0
  5  9  1  0  0  0  0
  6 28  1  0  0  0  0
  7  9  2  0  0  0  0
  7 28  1  0  0  0  0
  8 21  1  0  0  0  0
  9 20  1  0  0  0  0
 10 26  1  0  0  0  0
 11 12  2  0  0  0  0
 11 13  1  0  0  0  0
 11 24  1  0  0  0  0
 12 22  1  0  0  0  0
 12 25  1  0  0  0  0
 13 14  2  0  0  0  0
 14 15  1  0  0  0  0
 15 16  2  0  0  0  0
 16 24  1  0  0  0  0
 17 21  1  0  0  0  0
 17 25  1  0  0  0  0
 17 27  2  0  0  0  0
 18 26  1  0  0  0  0
 19 26  1  0  0  0  0
 20 21  1  6  0  0  0
 22 23  2  0  0  0  0
 23 24  1  0  0  0  0
  1 29  1  0  0  0  0
  2 30  1  0  0  0  0
  3 31  1  0  0  0  0
  4 32  1  0  0  0  0
  5 33  1  0  0  0  0
  6 34  1  0  0  0  0
  7 35  1  0  0  0  0
 13 36  1  0  0  0  0
 14 37  1  0  0  0  0
 15 38  1  0  0  0  0
 16 39  1  0  0  0  0
 18 40  1  0  0  0  0
 18 41  1  0  0  0  0
 18 42  1  0  0  0  0
 19 43  1  0  0  0  0
 19 44  1  0  0  0  0
 19 45  1  0  0  0  0
 20 46  1  0  0  0  0
 20 47  1  0  0  0  0
 21 48  1  0  0  0  0
 25 49  1  0  0  0  0
M  END
> <clash_score>
0

> <docking_score>
-7.853599548339844

> <overlap_score>
0.8462643623352051

$$$$
BENZO_252_1
  -OEChem-08232013453D

 49 52  0     1  0  0  0  0  0999 V2000
    9.0720   -1.1280   24.8640 C   0  0  0  0  0  0  0  0  0  0  0  0
    9.7200   -2.2600   22.8630 C   0  0  0  0  0  0  0  0  0  0  0  0
    8.9960   -2.3380   25.5320 C   0  0  0  0  0  0  0  0  0  0  0  0
    9.6730   -3.4710   23.5300 C   0  0  0  0  0  0  0  0  0  0  0  0
   11.9789    2.9159   22.1431 C   0  0  0  0  0  0  0  0  0  0  0  0
   11.9531    4.2698   22.3953 C   0  0  0  0  0  0  0  0  0  0  0  0
   10.5610    3.0079   23.9825 C   0  0  0  0  0  0  0  0  0  0  0  0
    9.3350   -1.0880   23.5010 C   0  0  0  0  0  0  0  0  0  0  0  0
   11.1723    2.1848   23.0624 C   0  0  0  0  0  0  0  0  0  0  0  0
    9.3070   -3.5340   24.8780 C   0  0  0  0  0  0  0  0  0  0  0  0
    6.1790    0.5730   19.9990 C   0  0  0  0  0  0  0  0  0  0  0  0
    7.3170   -0.1610   19.8550 C   0  0  0  0  0  0  0  0  0  0  0  0
    5.4210    0.9600   21.0930 C   0  0  0  0  0  0  0  0  0  0  0  0
    4.2750    1.7050   20.8490 C   0  0  0  0  0  0  0  0  0  0  0  0
    3.9160    2.0630   19.5520 C   0  0  0  0  0  0  0  0  0  0  0  0
    4.6890    1.6810   18.4640 C   0  0  0  0  0  0  0  0  0  0  0  0
    9.0420    0.3700   21.5280 C   0  0  0  0  0  0  0  0  0  0  0  0
    8.0148   -5.2164   26.1419 C   0  0  0  0  0  0  0  0  0  0  0  0
   10.4390   -5.5857   25.6570 C   0  0  0  0  0  0  0  0  0  0  0  0
   11.0089    0.6825   23.0307 C   0  0  0  0  0  0  0  0  0  0  0  0
    9.4560    0.1560   22.8130 C   0  0  1  0  0  0  0  0  0  0  0  0
    7.6390   -0.2680   18.5410 N   0  0  0  0  0  0  0  0  0  0  0  0
    6.7580    0.3810   17.8350 N   0  0  0  0  0  0  0  0  0  0  0  0
    5.8300    0.9190   18.6970 N   0  0  0  0  0  0  0  0  0  0  0  0
    8.1890   -0.7180   20.8700 N   0  0  0  0  0  0  0  0  0  0  0  0
    9.2556   -4.7554   25.5513 N   0  0  0  0  0  0  0  0  0  0  0  0
    9.2690    1.4140   20.9380 O   0  0  0  0  0  0  0  0  0  0  0  0
   10.9597    4.6549   23.7359 S   0  0  0  0  0  0  0  0  0  0  0  0
    8.9214   -0.1986   25.4206 H   0  0  0  0  0  0  0  0  0  0  0  0
   10.0622   -2.2326   21.8251 H   0  0  0  0  0  0  0  0  0  0  0  0
    8.6882   -2.3542   26.5803 H   0  0  0  0  0  0  0  0  0  0  0  0
    9.9258   -4.3896   22.9914 H   0  0  0  0  0  0  0  0  0  0  0  0
   12.5509    2.4750   21.3365 H   0  0  0  0  0  0  0  0  0  0  0  0
   12.4707    5.0513   21.8570 H   0  0  0  0  0  0  0  0  0  0  0  0
    9.8997    2.7250   24.7898 H   0  0  0  0  0  0  0  0  0  0  0  0
    5.6855    0.7074   22.1002 H   0  0  0  0  0  0  0  0  0  0  0  0
    3.6634    2.0034   21.6926 H   0  0  0  0  0  0  0  0  0  0  0  0
    3.0111    2.6563   19.3629 H   0  0  0  0  0  0  0  0  0  0  0  0
    4.4370    1.9522   17.4626 H   0  0  0  0  0  0  0  0  0  0  0  0
    8.1775   -6.1919   26.6235 H   0  0  0  0  0  0  0  0  0  0  0  0
    7.6740   -4.4890   26.8933 H   0  0  0  0  0  0  0  0  0  0  0  0
    7.2508   -5.3181   25.3570 H   0  0  0  0  0  0  0  0  0  0  0  0
   10.1974   -6.4996   26.2195 H   0  0  0  0  0  0  0  0  0  0  0  0
   10.7877   -5.8568   24.6496 H   0  0  0  0  0  0  0  0  0  0  0  0
   11.2305   -5.0307   26.1819 H   0  0  0  0  0  0  0  0  0  0  0  0
   11.6011    0.2707   22.2030 H   0  0  0  0  0  0  0  0  0  0  0  0
   11.4624    0.2744   23.9446 H   0  0  0  0  0  0  0  0  0  0  0  0
    8.9284    0.9668   23.5149 H   0  0  0  0  0  0  0  0  0  0  0  0
    8.2392   -1.5641   21.0954 H   0  0  0  0  0  0  0  0  0  0  0  0
  1  3  2  0  0  0  0
  1  8  1  0  0  0  0
  2  4  1  0  0  0  0
  2  8  2  0  0  0  0
  3 10  1  0  0  0  0
  4 10  2  0  0  0  0
  5  6  2  0  0  0  0
  5  9  1  0  0  0  0
  6 28  1  0  0  0  0
  7  9  2  0  0  0  0
  7 28  1  0  0  0  0
  8 21  1  0  0  0  0
  9 20  1  0  0  0  0
 10 26  1  0  0  0  0
 11 12  2  0  0  0  0
 11 13  1  0  0  0  0
 11 24  1  0  0  0  0
 12 22  1  0  0  0  0
 12 25  1  0  0  0  0
 13 14  2  0  0  0  0
 14 15  1  0  0  0  0
 15 16  2  0  0  0  0
 16 24  1  0  0  0  0
 17 21  1  0  0  0  0
 17 25  1  0  0  0  0
 17 27  2  0  0  0  0
 18 26  1  0  0  0  0
 19 26  1  0  0  0  0
 20 21  1  1  0  0  0
 22 23  2  0  0  0  0
 23 24  1  0  0  0  0
  1 29  1  0  0  0  0
  2 30  1  0  0  0  0
  3 31  1  0  0  0  0
  4 32  1  0  0  0  0
  5 33  1  0  0  0  0
  6 34  1  0  0  0  0
  7 35  1  0  0  0  0
 13 36  1  0  0  0  0
 14 37  1  0  0  0  0
 15 38  1  0  0  0  0
 16 39  1  0  0  0  0
 18 40  1  0  0  0  0
 18 41  1  0  0  0  0
 18 42  1  0  0  0  0
 19 43  1  0  0  0  0
 19 44  1  0  0  0  0
 19 45  1  0  0  0  0
 20 46  1  0  0  0  0
 20 47  1  0  0  0  0
 21 48  1  0  0  0  0
 25 49  1  0  0  0  0
M  END
> <clash_score>
0

> <docking_score>
-10.29371452331543

> <overlap_score>
0.9158619046211243

$$$$
BENZO_251_1
  -OEChem-08232013453D

 58 62  0     1  0  0  0  0  0999 V2000
    4.2750    1.7050   20.8490 C   0  0  0  0  0  0  0  0  0  0  0  0
    3.9160    2.0630   19.5520 C   0  0  0  0  0  0  0  0  0  0  0  0
    5.4210    0.9600   21.0930 C   0  0  0  0  0  0  0  0  0  0  0  0
    9.0720   -1.1280   24.8640 C   0  0  0  0  0  0  0  0  0  0  0  0
    9.7200   -2.2600   22.8630 C   0  0  0  0  0  0  0  0  0  0  0  0
    4.6890    1.6810   18.4640 C   0  0  0  0  0  0  0  0  0  0  0  0
    8.9960   -2.3380   25.5320 C   0  0  0  0  0  0  0  0  0  0  0  0
    9.6730   -3.4710   23.5300 C   0  0  0  0  0  0  0  0  0  0  0  0
   10.2449    3.1582   23.4786 C   0  0  0  0  0  0  0  0  0  0  0  0
   12.2661    2.9236   22.6451 C   0  0  0  0  0  0  0  0  0  0  0  0
    6.1790    0.5730   19.9990 C   0  0  0  0  0  0  0  0  0  0  0  0
    9.3350   -1.0880   23.5010 C   0  0  0  0  0  0  0  0  0  0  0  0
   11.1738    2.1933   23.0450 C   0  0  0  0  0  0  0  0  0  0  0  0
    5.8300    0.9190   18.6970 C   0  0  0  0  0  0  0  0  0  0  0  0
    9.3070   -3.5340   24.8780 C   0  0  0  0  0  0  0  0  0  0  0  0
    7.3170   -0.1610   19.8550 C   0  0  0  0  0  0  0  0  0  0  0  0
    9.0420    0.3700   21.5280 C   0  0  0  0  0  0  0  0  0  0  0  0
   10.0772   -5.0257   26.7191 C   0  0  0  0  0  0  0  0  0  0  0  0
    8.0927   -5.6196   25.4069 C   0  0  0  0  0  0  0  0  0  0  0  0
    9.1935   -4.9431   27.9590 C   0  0  0  0  0  0  0  0  0  0  0  0
    7.2758   -5.5292   26.6966 C   0  0  0  0  0  0  0  0  0  0  0  0
   12.7722    5.3769   22.5852 C   0  0  0  0  0  0  0  0  0  0  0  0
   11.0096    0.6909   23.0256 C   0  0  0  0  0  0  0  0  0  0  0  0
    9.4560    0.1560   22.8130 C   0  0  1  0  0  0  0  0  0  0  0  0
   10.7069    4.4063   23.3651 N   0  0  0  0  0  0  0  0  0  0  0  0
    7.6390   -0.2680   18.5410 N   0  0  0  0  0  0  0  0  0  0  0  0
    6.7580    0.3810   17.8350 N   0  0  0  0  0  0  0  0  0  0  0  0
   11.9381    4.2306   22.8556 N   0  0  0  0  0  0  0  0  0  0  0  0
    9.2564   -4.7368   25.5411 N   0  0  0  0  0  0  0  0  0  0  0  0
    8.1890   -0.7180   20.8700 N   0  0  0  0  0  0  0  0  0  0  0  0
    9.2690    1.4140   20.9380 O   0  0  0  0  0  0  0  0  0  0  0  0
    8.0884   -5.8462   27.8322 O   0  0  0  0  0  0  0  0  0  0  0  0
    3.6468    2.0173   21.6825 H   0  0  0  0  0  0  0  0  0  0  0  0
    3.0153    2.6527   19.3907 H   0  0  0  0  0  0  0  0  0  0  0  0
    5.7015    0.6980   22.1071 H   0  0  0  0  0  0  0  0  0  0  0  0
    8.9214   -0.1986   25.4206 H   0  0  0  0  0  0  0  0  0  0  0  0
   10.0622   -2.2326   21.8251 H   0  0  0  0  0  0  0  0  0  0  0  0
    4.4064    1.9744   17.4453 H   0  0  0  0  0  0  0  0  0  0  0  0
    8.6882   -2.3542   26.5803 H   0  0  0  0  0  0  0  0  0  0  0  0
    9.9258   -4.3896   22.9914 H   0  0  0  0  0  0  0  0  0  0  0  0
    9.2505    3.0064   23.8739 H   0  0  0  0  0  0  0  0  0  0  0  0
   13.2256    2.6317   22.2400 H   0  0  0  0  0  0  0  0  0  0  0  0
   10.8986   -4.3117   26.8083 H   0  0  0  0  0  0  0  0  0  0  0  0
   10.4916   -6.0336   26.6319 H   0  0  0  0  0  0  0  0  0  0  0  0
    8.4328   -6.6457   25.2617 H   0  0  0  0  0  0  0  0  0  0  0  0
    7.4726   -5.3240   24.5618 H   0  0  0  0  0  0  0  0  0  0  0  0
    9.7638   -5.2402   28.8416 H   0  0  0  0  0  0  0  0  0  0  0  0
    8.8238   -3.9272   28.1248 H   0  0  0  0  0  0  0  0  0  0  0  0
    6.8340   -4.5339   26.8232 H   0  0  0  0  0  0  0  0  0  0  0  0
    6.4551   -6.2523   26.6641 H   0  0  0  0  0  0  0  0  0  0  0  0
   12.5768    5.7019   21.5598 H   0  0  0  0  0  0  0  0  0  0  0  0
   12.5325    6.1764   23.2918 H   0  0  0  0  0  0  0  0  0  0  0  0
   13.8223    5.0961   22.7049 H   0  0  0  0  0  0  0  0  0  0  0  0
   11.6022    0.2720   22.2019 H   0  0  0  0  0  0  0  0  0  0  0  0
   11.4622    0.2902   23.9433 H   0  0  0  0  0  0  0  0  0  0  0  0
    8.9292    0.9747   23.5105 H   0  0  0  0  0  0  0  0  0  0  0  0
    6.8044    0.4388   16.8592 H   0  0  0  0  0  0  0  0  0  0  0  0
    8.2585   -1.5522   21.1129 H   0  0  0  0  0  0  0  0  0  0  0  0
  1  2  1  0  0  0  0
  1  3  2  0  0  0  0
  2  6  2  0  0  0  0
  3 11  1  0  0  0  0
  4  7  2  0  0  0  0
  4 12  1  0  0  0  0
  5  8  1  0  0  0  0
  5 12  2  0  0  0  0
  6 14  1  0  0  0  0
  7 15  1  0  0  0  0
  8 15  2  0  0  0  0
  9 13  1  0  0  0  0
  9 25  2  0  0  0  0
 10 13  2  0  0  0  0
 10 28  1  0  0  0  0
 11 14  2  0  0  0  0
 11 16  1  0  0  0  0
 12 24  1  0  0  0  0
 13 23  1  0  0  0  0
 14 27  1  0  0  0  0
 15 29  1  0  0  0  0
 16 26  2  0  0  0  0
 16 30  1  0  0  0  0
 17 24  1  0  0  0  0
 17 30  1  0  0  0  0
 17 31  2  0  0  0  0
 18 20  1  0  0  0  0
 18 29  1  0  0  0  0
 19 21  1  0  0  0  0
 19 29  1  0  0  0  0
 20 32  1  0  0  0  0
 21 32  1  0  0  0  0
 22 28  1  0  0  0  0
 23 24  1  1  0  0  0
 25 28  1  0  0  0  0
 26 27  1  0  0  0  0
  1 33  1  0  0  0  0
  2 34  1  0  0  0  0
  3 35  1  0  0  0  0
  4 36  1  0  0  0  0
  5 37  1  0  0  0  0
  6 38  1  0  0  0  0
  7 39  1  0  0  0  0
  8 40  1  0  0  0  0
  9 41  1  0  0  0  0
 10 42  1  0  0  0  0
 18 43  1  0  0  0  0
 18 44  1  0  0  0  0
 19 45  1  0  0  0  0
 19 46  1  0  0  0  0
 20 47  1  0  0  0  0
 20 48  1  0  0  0  0
 21 49  1  0  0  0  0
 21 50  1  0  0  0  0
 22 51  1  0  0  0  0
 22 52  1  0  0  0  0
 22 53  1  0  0  0  0
 23 54  1  0  0  0  0
 23 55  1  0  0  0  0
 24 56  1  0  0  0  0
 27 57  1  0  0  0  0
 30 58  1  0  0  0  0
M  END
> <clash_score>
0

> <docking_score>
-9.69134521484375

> <overlap_score>
0.9365970492362976

$$$$
BENZO_255_2
  -OEChem-08232013453D

 52 55  0     1  0  0  0  0  0999 V2000
    9.0720   -1.1280   24.8640 C   0  0  0  0  0  0  0  0  0  0  0  0
    9.7200   -2.2600   22.8630 C   0  0  0  0  0  0  0  0  0  0  0  0
    8.9960   -2.3380   25.5320 C   0  0  0  0  0  0  0  0  0  0  0  0
    9.6730   -3.4710   23.5300 C   0  0  0  0  0  0  0  0  0  0  0  0
   10.2230    3.2711   22.6855 C   0  0  0  0  0  0  0  0  0  0  0  0
    8.3607    3.8650   23.6924 C   0  0  0  0  0  0  0  0  0  0  0  0
    9.3350   -1.0880   23.5010 C   0  0  0  0  0  0  0  0  0  0  0  0
    9.1357    2.7638   23.4219 C   0  0  0  0  0  0  0  0  0  0  0  0
    9.3070   -3.5340   24.8780 C   0  0  0  0  0  0  0  0  0  0  0  0
    6.1790    0.5730   19.9990 C   0  0  0  0  0  0  0  0  0  0  0  0
    7.3170   -0.1610   19.8550 C   0  0  0  0  0  0  0  0  0  0  0  0
    5.4210    0.9600   21.0930 C   0  0  0  0  0  0  0  0  0  0  0  0
    4.2750    1.7050   20.8490 C   0  0  0  0  0  0  0  0  0  0  0  0
    3.9160    2.0630   19.5520 C   0  0  0  0  0  0  0  0  0  0  0  0
    4.6890    1.6810   18.4640 C   0  0  0  0  0  0  0  0  0  0  0  0
    9.0420    0.3700   21.5280 C   0  0  0  0  0  0  0  0  0  0  0  0
    8.5727    6.3003   23.1419 C   0  0  0  0  0  0  0  0  0  0  0  0
    8.8766   -4.8076   26.9494 C   0  0  0  0  0  0  0  0  0  0  0  0
    9.5670   -5.9896   24.8578 C   0  0  0  0  0  0  0  0  0  0  0  0
    8.8757    1.3301   23.8233 C   0  0  0  0  0  0  0  0  0  0  0  0
    9.4560    0.1560   22.8130 C   0  0  2  0  0  0  0  0  0  0  0  0
   10.1488    4.5917   22.4999 N   0  0  0  0  0  0  0  0  0  0  0  0
    7.6390   -0.2680   18.5410 N   0  0  0  0  0  0  0  0  0  0  0  0
    6.7580    0.3810   17.8350 N   0  0  0  0  0  0  0  0  0  0  0  0
    9.0056    4.9236   23.1235 N   0  0  0  0  0  0  0  0  0  0  0  0
    5.8300    0.9190   18.6970 N   0  0  0  0  0  0  0  0  0  0  0  0
    8.1890   -0.7180   20.8700 N   0  0  0  0  0  0  0  0  0  0  0  0
    9.2556   -4.7554   25.5513 N   0  0  0  0  0  0  0  0  0  0  0  0
    9.2690    1.4140   20.9380 O   0  0  0  0  0  0  0  0  0  0  0  0
    8.9214   -0.1986   25.4206 H   0  0  0  0  0  0  0  0  0  0  0  0
   10.0622   -2.2326   21.8251 H   0  0  0  0  0  0  0  0  0  0  0  0
    8.6882   -2.3542   26.5803 H   0  0  0  0  0  0  0  0  0  0  0  0
    9.9258   -4.3896   22.9914 H   0  0  0  0  0  0  0  0  0  0  0  0
   11.0671    2.7354   22.2746 H   0  0  0  0  0  0  0  0  0  0  0  0
    7.4277    3.9824   24.2269 H   0  0  0  0  0  0  0  0  0  0  0  0
    5.6855    0.7074   22.1002 H   0  0  0  0  0  0  0  0  0  0  0  0
    3.6634    2.0034   21.6926 H   0  0  0  0  0  0  0  0  0  0  0  0
    3.0111    2.6563   19.3629 H   0  0  0  0  0  0  0  0  0  0  0  0
    4.4370    1.9522   17.4626 H   0  0  0  0  0  0  0  0  0  0  0  0
    8.9983    6.7758   24.0295 H   0  0  0  0  0  0  0  0  0  0  0  0
    8.9199    6.8033   22.2351 H   0  0  0  0  0  0  0  0  0  0  0  0
    7.4802    6.3352   23.1748 H   0  0  0  0  0  0  0  0  0  0  0  0
    8.8956   -5.8513   27.2963 H   0  0  0  0  0  0  0  0  0  0  0  0
    9.5845   -4.2109   27.5435 H   0  0  0  0  0  0  0  0  0  0  0  0
    7.8621   -4.3997   27.0696 H   0  0  0  0  0  0  0  0  0  0  0  0
    9.4708   -6.8361   25.5536 H   0  0  0  0  0  0  0  0  0  0  0  0
    8.8693   -6.1242   24.0180 H   0  0  0  0  0  0  0  0  0  0  0  0
   10.5973   -5.9450   24.4750 H   0  0  0  0  0  0  0  0  0  0  0  0
    9.2390    1.1684   24.8466 H   0  0  0  0  0  0  0  0  0  0  0  0
    7.7875    1.1860   23.8742 H   0  0  0  0  0  0  0  0  0  0  0  0
   10.6103    0.4565   22.8881 H   0  0  0  0  0  0  0  0  0  0  0  0
    8.2392   -1.5641   21.0954 H   0  0  0  0  0  0  0  0  0  0  0  0
  1  3  2  0  0  0  0
  1  7  1  0  0  0  0
  2  4  1  0  0  0  0
  2  7  2  0  0  0  0
  3  9  1  0  0  0  0
  4  9  2  0  0  0  0
  5  8  1  0  0  0  0
  5 22  2  0  0  0  0
  6  8  2  0  0  0  0
  6 25  1  0  0  0  0
  7 21  1  0  0  0  0
  8 20  1  0  0  0  0
  9 28  1  0  0  0  0
 10 11  2  0  0  0  0
 10 12  1  0  0  0  0
 10 26  1  0  0  0  0
 11 23  1  0  0  0  0
 11 27  1  0  0  0  0
 12 13  2  0  0  0  0
 13 14  1  0  0  0  0
 14 15  2  0  0  0  0
 15 26  1  0  0  0  0
 16 21  1  0  0  0  0
 16 27  1  0  0  0  0
 16 29  2  0  0  0  0
 17 25  1  0  0  0  0
 18 28  1  0  0  0  0
 19 28  1  0  0  0  0
 20 21  1  6  0  0  0
 22 25  1  0  0  0  0
 23 24  2  0  0  0  0
 24 26  1  0  0  0  0
  1 30  1  0  0  0  0
  2 31  1  0  0  0  0
  3 32  1  0  0  0  0
  4 33  1  0  0  0  0
  5 34  1  0  0  0  0
  6 35  1  0  0  0  0
 12 36  1  0  0  0  0
 13 37  1  0  0  0  0
 14 38  1  0  0  0  0
 15 39  1  0  0  0  0
 17 40  1  0  0  0  0
 17 41  1  0  0  0  0
 17 42  1  0  0  0  0
 18 43  1  0  0  0  0
 18 44  1  0  0  0  0
 18 45  1  0  0  0  0
 19 46  1  0  0  0  0
 19 47  1  0  0  0  0
 19 48  1  0  0  0  0
 20 49  1  0  0  0  0
 20 50  1  0  0  0  0
 21 51  1  0  0  0  0
 27 52  1  0  0  0  0
M  END
> <clash_score>
0

> <docking_score>
-7.194896697998047

> <overlap_score>
0.8417670726776123

$$$$
BENZO_255_1
  -OEChem-08232013453D

 52 55  0     1  0  0  0  0  0999 V2000
    9.0720   -1.1280   24.8640 C   0  0  0  0  0  0  0  0  0  0  0  0
    9.7200   -2.2600   22.8630 C   0  0  0  0  0  0  0  0  0  0  0  0
    8.9960   -2.3380   25.5320 C   0  0  0  0  0  0  0  0  0  0  0  0
    9.6730   -3.4710   23.5300 C   0  0  0  0  0  0  0  0  0  0  0  0
   10.2428    3.1457   23.5034 C   0  0  0  0  0  0  0  0  0  0  0  0
   12.2645    2.9188   22.6690 C   0  0  0  0  0  0  0  0  0  0  0  0
    9.3350   -1.0880   23.5010 C   0  0  0  0  0  0  0  0  0  0  0  0
   11.1723    2.1848   23.0624 C   0  0  0  0  0  0  0  0  0  0  0  0
    9.3070   -3.5340   24.8780 C   0  0  0  0  0  0  0  0  0  0  0  0
    6.1790    0.5730   19.9990 C   0  0  0  0  0  0  0  0  0  0  0  0
    7.3170   -0.1610   19.8550 C   0  0  0  0  0  0  0  0  0  0  0  0
    5.4210    0.9600   21.0930 C   0  0  0  0  0  0  0  0  0  0  0  0
    4.2750    1.7050   20.8490 C   0  0  0  0  0  0  0  0  0  0  0  0
    3.9160    2.0630   19.5520 C   0  0  0  0  0  0  0  0  0  0  0  0
    4.6890    1.6810   18.4640 C   0  0  0  0  0  0  0  0  0  0  0  0
    9.0420    0.3700   21.5280 C   0  0  0  0  0  0  0  0  0  0  0  0
   12.7694    5.3728   22.6293 C   0  0  0  0  0  0  0  0  0  0  0  0
    8.0148   -5.2164   26.1419 C   0  0  0  0  0  0  0  0  0  0  0  0
   10.4390   -5.5857   25.6570 C   0  0  0  0  0  0  0  0  0  0  0  0
   11.0089    0.6825   23.0307 C   0  0  0  0  0  0  0  0  0  0  0  0
    9.4560    0.1560   22.8130 C   0  0  1  0  0  0  0  0  0  0  0  0
   10.7043    4.3948   23.4002 N   0  0  0  0  0  0  0  0  0  0  0  0
    7.6390   -0.2680   18.5410 N   0  0  0  0  0  0  0  0  0  0  0  0
    6.7580    0.3810   17.8350 N   0  0  0  0  0  0  0  0  0  0  0  0
   11.9358    4.2239   22.8900 N   0  0  0  0  0  0  0  0  0  0  0  0
    5.8300    0.9190   18.6970 N   0  0  0  0  0  0  0  0  0  0  0  0
    8.1890   -0.7180   20.8700 N   0  0  0  0  0  0  0  0  0  0  0  0
    9.2556   -4.7554   25.5513 N   0  0  0  0  0  0  0  0  0  0  0  0
    9.2690    1.4140   20.9380 O   0  0  0  0  0  0  0  0  0  0  0  0
    8.9214   -0.1986   25.4206 H   0  0  0  0  0  0  0  0  0  0  0  0
   10.0622   -2.2326   21.8251 H   0  0  0  0  0  0  0  0  0  0  0  0
    8.6882   -2.3542   26.5803 H   0  0  0  0  0  0  0  0  0  0  0  0
    9.9258   -4.3896   22.9914 H   0  0  0  0  0  0  0  0  0  0  0  0
    9.2482    2.9901   23.8969 H   0  0  0  0  0  0  0  0  0  0  0  0
   13.2243    2.6307   22.2620 H   0  0  0  0  0  0  0  0  0  0  0  0
    5.6855    0.7074   22.1002 H   0  0  0  0  0  0  0  0  0  0  0  0
    3.6634    2.0034   21.6926 H   0  0  0  0  0  0  0  0  0  0  0  0
    3.0111    2.6563   19.3629 H   0  0  0  0  0  0  0  0  0  0  0  0
    4.4370    1.9522   17.4626 H   0  0  0  0  0  0  0  0  0  0  0  0
   12.5744    5.7060   21.6066 H   0  0  0  0  0  0  0  0  0  0  0  0
   12.5290    6.1664   23.3423 H   0  0  0  0  0  0  0  0  0  0  0  0
   13.8196    5.0915   22.7473 H   0  0  0  0  0  0  0  0  0  0  0  0
    8.1775   -6.1919   26.6235 H   0  0  0  0  0  0  0  0  0  0  0  0
    7.6740   -4.4890   26.8933 H   0  0  0  0  0  0  0  0  0  0  0  0
    7.2508   -5.3181   25.3570 H   0  0  0  0  0  0  0  0  0  0  0  0
   10.1974   -6.4996   26.2195 H   0  0  0  0  0  0  0  0  0  0  0  0
   10.7877   -5.8568   24.6496 H   0  0  0  0  0  0  0  0  0  0  0  0
   11.2305   -5.0307   26.1819 H   0  0  0  0  0  0  0  0  0  0  0  0
   11.6011    0.2707   22.2030 H   0  0  0  0  0  0  0  0  0  0  0  0
   11.4624    0.2744   23.9446 H   0  0  0  0  0  0  0  0  0  0  0  0
    8.9284    0.9668   23.5149 H   0  0  0  0  0  0  0  0  0  0  0  0
    8.2392   -1.5641   21.0954 H   0  0  0  0  0  0  0  0  0  0  0  0
  1  3  2  0  0  0  0
  1  7  1  0  0  0  0
  2  4  1  0  0  0  0
  2  7  2  0  0  0  0
  3  9  1  0  0  0  0
  4  9  2  0  0  0  0
  5  8  1  0  0  0  0
  5 22  2  0  0  0  0
  6  8  2  0  0  0  0
  6 25  1  0  0  0  0
  7 21  1  0  0  0  0
  8 20  1  0  0  0  0
  9 28  1  0  0  0  0
 10 11  2  0  0  0  0
 10 12  1  0  0  0  0
 10 26  1  0  0  0  0
 11 23  1  0  0  0  0
 11 27  1  0  0  0  0
 12 13  2  0  0  0  0
 13 14  1  0  0  0  0
 14 15  2  0  0  0  0
 15 26  1  0  0  0  0
 16 21  1  0  0  0  0
 16 27  1  0  0  0  0
 16 29  2  0  0  0  0
 17 25  1  0  0  0  0
 18 28  1  0  0  0  0
 19 28  1  0  0  0  0
 20 21  1  1  0  0  0
 22 25  1  0  0  0  0
 23 24  2  0  0  0  0
 24 26  1  0  0  0  0
  1 30  1  0  0  0  0
  2 31  1  0  0  0  0
  3 32  1  0  0  0  0
  4 33  1  0  0  0  0
  5 34  1  0  0  0  0
  6 35  1  0  0  0  0
 12 36  1  0  0  0  0
 13 37  1  0  0  0  0
 14 38  1  0  0  0  0
 15 39  1  0  0  0  0
 17 40  1  0  0  0  0
 17 41  1  0  0  0  0
 17 42  1  0  0  0  0
 18 43  1  0  0  0  0
 18 44  1  0  0  0  0
 18 45  1  0  0  0  0
 19 46  1  0  0  0  0
 19 47  1  0  0  0  0
 19 48  1  0  0  0  0
 20 49  1  0  0  0  0
 20 50  1  0  0  0  0
 21 51  1  0  0  0  0
 27 52  1  0  0  0  0
M  END
> <clash_score>
0

> <docking_score>
-11.158153533935547

> <overlap_score>
0.9245859980583191

$$$$
BENZO_254_1
  -OEChem-08232013453D

 52 55  0     1  0  0  0  0  0999 V2000
   10.2856    4.3750   23.5656 C   0  0  0  0  0  0  0  0  0  0  0  0
   10.1350    2.9887   23.5349 C   0  0  0  0  0  0  0  0  0  0  0  0
    9.0720   -1.1280   24.8640 C   0  0  0  0  0  0  0  0  0  0  0  0
    9.7200   -2.2600   22.8630 C   0  0  0  0  0  0  0  0  0  0  0  0
    8.9960   -2.3380   25.5320 C   0  0  0  0  0  0  0  0  0  0  0  0
    9.6730   -3.4710   23.5300 C   0  0  0  0  0  0  0  0  0  0  0  0
   11.4735    4.9575   23.1236 C   0  0  0  0  0  0  0  0  0  0  0  0
   12.3603    2.7672   22.6205 C   0  0  0  0  0  0  0  0  0  0  0  0
    9.3350   -1.0880   23.5010 C   0  0  0  0  0  0  0  0  0  0  0  0
   11.1723    2.1848   23.0624 C   0  0  0  0  0  0  0  0  0  0  0  0
    9.3070   -3.5340   24.8780 C   0  0  0  0  0  0  0  0  0  0  0  0
   12.5108    4.1536   22.6511 C   0  0  0  0  0  0  0  0  0  0  0  0
    6.1790    0.5730   19.9990 C   0  0  0  0  0  0  0  0  0  0  0  0
    7.3170   -0.1610   19.8550 C   0  0  0  0  0  0  0  0  0  0  0  0
    5.4210    0.9600   21.0930 C   0  0  0  0  0  0  0  0  0  0  0  0
    4.2750    1.7050   20.8490 C   0  0  0  0  0  0  0  0  0  0  0  0
    3.9160    2.0630   19.5520 C   0  0  0  0  0  0  0  0  0  0  0  0
    4.6890    1.6810   18.4640 C   0  0  0  0  0  0  0  0  0  0  0  0
    9.0420    0.3700   21.5280 C   0  0  0  0  0  0  0  0  0  0  0  0
    8.0148   -5.2164   26.1419 C   0  0  0  0  0  0  0  0  0  0  0  0
   10.4390   -5.5857   25.6570 C   0  0  0  0  0  0  0  0  0  0  0  0
   11.0089    0.6825   23.0307 C   0  0  0  0  0  0  0  0  0  0  0  0
    9.4560    0.1560   22.8130 C   0  0  1  0  0  0  0  0  0  0  0  0
    7.6390   -0.2680   18.5410 N   0  0  0  0  0  0  0  0  0  0  0  0
    6.7580    0.3810   17.8350 N   0  0  0  0  0  0  0  0  0  0  0  0
    5.8300    0.9190   18.6970 N   0  0  0  0  0  0  0  0  0  0  0  0
    8.1890   -0.7180   20.8700 N   0  0  0  0  0  0  0  0  0  0  0  0
    9.2556   -4.7554   25.5513 N   0  0  0  0  0  0  0  0  0  0  0  0
    9.2690    1.4140   20.9380 O   0  0  0  0  0  0  0  0  0  0  0  0
   13.9766    4.8727   22.1070 Cl  0  0  0  0  0  0  0  0  0  0  0  0
    9.4776    5.0007   23.9337 H   0  0  0  0  0  0  0  0  0  0  0  0
    9.2060    2.5434   23.8814 H   0  0  0  0  0  0  0  0  0  0  0  0
    8.9214   -0.1986   25.4206 H   0  0  0  0  0  0  0  0  0  0  0  0
   10.0622   -2.2326   21.8251 H   0  0  0  0  0  0  0  0  0  0  0  0
    8.6882   -2.3542   26.5803 H   0  0  0  0  0  0  0  0  0  0  0  0
    9.9258   -4.3896   22.9914 H   0  0  0  0  0  0  0  0  0  0  0  0
   11.5769    6.0394   23.1535 H   0  0  0  0  0  0  0  0  0  0  0  0
   13.1659    2.1361   22.2525 H   0  0  0  0  0  0  0  0  0  0  0  0
    5.6855    0.7074   22.1002 H   0  0  0  0  0  0  0  0  0  0  0  0
    3.6634    2.0034   21.6926 H   0  0  0  0  0  0  0  0  0  0  0  0
    3.0111    2.6563   19.3629 H   0  0  0  0  0  0  0  0  0  0  0  0
    4.4370    1.9522   17.4626 H   0  0  0  0  0  0  0  0  0  0  0  0
    8.1775   -6.1919   26.6235 H   0  0  0  0  0  0  0  0  0  0  0  0
    7.6740   -4.4890   26.8933 H   0  0  0  0  0  0  0  0  0  0  0  0
    7.2508   -5.3181   25.3570 H   0  0  0  0  0  0  0  0  0  0  0  0
   10.1974   -6.4996   26.2195 H   0  0  0  0  0  0  0  0  0  0  0  0
   10.7877   -5.8568   24.6496 H   0  0  0  0  0  0  0  0  0  0  0  0
   11.2305   -5.0307   26.1819 H   0  0  0  0  0  0  0  0  0  0  0  0
   11.6011    0.2707   22.2030 H   0  0  0  0  0  0  0  0  0  0  0  0
   11.4624    0.2744   23.9446 H   0  0  0  0  0  0  0  0  0  0  0  0
    8.9284    0.9668   23.5149 H   0  0  0  0  0  0  0  0  0  0  0  0
    8.2392   -1.5641   21.0954 H   0  0  0  0  0  0  0  0  0  0  0  0
  1  2  2  0  0  0  0
  1  7  1  0  0  0  0
  2 10  1  0  0  0  0
  3  5  2  0  0  0  0
  3  9  1  0  0  0  0
  4  6  1  0  0  0  0
  4  9  2  0  0  0  0
  5 11  1  0  0  0  0
  6 11  2  0  0  0  0
  7 12  2  0  0  0  0
  8 10  2  0  0  0  0
  8 12  1  0  0  0  0
  9 23  1  0  0  0  0
 10 22  1  0  0  0  0
 11 28  1  0  0  0  0
 12 30  1  0  0  0  0
 13 14  2  0  0  0  0
 13 15  1  0  0  0  0
 13 26  1  0  0  0  0
 14 24  1  0  0  0  0
 14 27  1  0  0  0  0
 15 16  2  0  0  0  0
 16 17  1  0  0  0  0
 17 18  2  0  0  0  0
 18 26  1  0  0  0  0
 19 23  1  0  0  0  0
 19 27  1  0  0  0  0
 19 29  2  0  0  0  0
 20 28  1  0  0  0  0
 21 28  1  0  0  0  0
 22 23  1  1  0  0  0
 24 25  2  0  0  0  0
 25 26  1  0  0  0  0
  1 31  1  0  0  0  0
  2 32  1  0  0  0  0
  3 33  1  0  0  0  0
  4 34  1  0  0  0  0
  5 35  1  0  0  0  0
  6 36  1  0  0  0  0
  7 37  1  0  0  0  0
  8 38  1  0  0  0  0
 15 39  1  0  0  0  0
 16 40  1  0  0  0  0
 17 41  1  0  0  0  0
 18 42  1  0  0  0  0
 20 43  1  0  0  0  0
 20 44  1  0  0  0  0
 20 45  1  0  0  0  0
 21 46  1  0  0  0  0
 21 47  1  0  0  0  0
 21 48  1  0  0  0  0
 22 49  1  0  0  0  0
 22 50  1  0  0  0  0
 23 51  1  0  0  0  0
 27 52  1  0  0  0  0
M  END
> <clash_score>
0

> <docking_score>
-11.695479393005371

> <overlap_score>
0.9294800162315369

$$$$
BENZO_254_2
  -OEChem-08232013453D

 52 55  0     1  0  0  0  0  0999 V2000
    8.4741    5.0874   23.4171 C   0  0  0  0  0  0  0  0  0  0  0  0
    8.2342    3.7639   23.7862 C   0  0  0  0  0  0  0  0  0  0  0  0
    9.0720   -1.1280   24.8640 C   0  0  0  0  0  0  0  0  0  0  0  0
    9.7200   -2.2600   22.8630 C   0  0  0  0  0  0  0  0  0  0  0  0
    8.9960   -2.3380   25.5320 C   0  0  0  0  0  0  0  0  0  0  0  0
    9.6730   -3.4710   23.5300 C   0  0  0  0  0  0  0  0  0  0  0  0
    9.6155    5.4109   22.6835 C   0  0  0  0  0  0  0  0  0  0  0  0
   10.2772    3.0873   22.6883 C   0  0  0  0  0  0  0  0  0  0  0  0
    9.3350   -1.0880   23.5010 C   0  0  0  0  0  0  0  0  0  0  0  0
    9.1357    2.7638   23.4219 C   0  0  0  0  0  0  0  0  0  0  0  0
    9.3070   -3.5340   24.8780 C   0  0  0  0  0  0  0  0  0  0  0  0
   10.5171    4.4109   22.3191 C   0  0  0  0  0  0  0  0  0  0  0  0
    6.1790    0.5730   19.9990 C   0  0  0  0  0  0  0  0  0  0  0  0
    7.3170   -0.1610   19.8550 C   0  0  0  0  0  0  0  0  0  0  0  0
    5.4210    0.9600   21.0930 C   0  0  0  0  0  0  0  0  0  0  0  0
    4.2750    1.7050   20.8490 C   0  0  0  0  0  0  0  0  0  0  0  0
    3.9160    2.0630   19.5520 C   0  0  0  0  0  0  0  0  0  0  0  0
    4.6890    1.6810   18.4640 C   0  0  0  0  0  0  0  0  0  0  0  0
    9.0420    0.3700   21.5280 C   0  0  0  0  0  0  0  0  0  0  0  0
    8.8766   -4.8076   26.9494 C   0  0  0  0  0  0  0  0  0  0  0  0
    9.5670   -5.9896   24.8578 C   0  0  0  0  0  0  0  0  0  0  0  0
    8.8757    1.3301   23.8233 C   0  0  0  0  0  0  0  0  0  0  0  0
    9.4560    0.1560   22.8130 C   0  0  2  0  0  0  0  0  0  0  0  0
    7.6390   -0.2680   18.5410 N   0  0  0  0  0  0  0  0  0  0  0  0
    6.7580    0.3810   17.8350 N   0  0  0  0  0  0  0  0  0  0  0  0
    5.8300    0.9190   18.6970 N   0  0  0  0  0  0  0  0  0  0  0  0
    8.1890   -0.7180   20.8700 N   0  0  0  0  0  0  0  0  0  0  0  0
    9.2556   -4.7554   25.5513 N   0  0  0  0  0  0  0  0  0  0  0  0
    9.2690    1.4140   20.9380 O   0  0  0  0  0  0  0  0  0  0  0  0
   11.9257    4.8108   21.4150 Cl  0  0  0  0  0  0  0  0  0  0  0  0
    7.7719    5.8659   23.7012 H   0  0  0  0  0  0  0  0  0  0  0  0
    7.3423    3.5209   24.3579 H   0  0  0  0  0  0  0  0  0  0  0  0
    8.9214   -0.1986   25.4206 H   0  0  0  0  0  0  0  0  0  0  0  0
   10.0622   -2.2326   21.8251 H   0  0  0  0  0  0  0  0  0  0  0  0
    8.6882   -2.3542   26.5803 H   0  0  0  0  0  0  0  0  0  0  0  0
    9.9258   -4.3896   22.9914 H   0  0  0  0  0  0  0  0  0  0  0  0
    9.7898    6.4468   22.4029 H   0  0  0  0  0  0  0  0  0  0  0  0
   10.9768    2.3039   22.4061 H   0  0  0  0  0  0  0  0  0  0  0  0
    5.6855    0.7074   22.1002 H   0  0  0  0  0  0  0  0  0  0  0  0
    3.6634    2.0034   21.6926 H   0  0  0  0  0  0  0  0  0  0  0  0
    3.0111    2.6563   19.3629 H   0  0  0  0  0  0  0  0  0  0  0  0
    4.4370    1.9522   17.4626 H   0  0  0  0  0  0  0  0  0  0  0  0
    8.8956   -5.8513   27.2963 H   0  0  0  0  0  0  0  0  0  0  0  0
    9.5845   -4.2109   27.5435 H   0  0  0  0  0  0  0  0  0  0  0  0
    7.8621   -4.3997   27.0696 H   0  0  0  0  0  0  0  0  0  0  0  0
    9.4708   -6.8361   25.5536 H   0  0  0  0  0  0  0  0  0  0  0  0
    8.8693   -6.1242   24.0180 H   0  0  0  0  0  0  0  0  0  0  0  0
   10.5973   -5.9450   24.4750 H   0  0  0  0  0  0  0  0  0  0  0  0
    9.2390    1.1684   24.8466 H   0  0  0  0  0  0  0  0  0  0  0  0
    7.7875    1.1860   23.8742 H   0  0  0  0  0  0  0  0  0  0  0  0
   10.6103    0.4565   22.8881 H   0  0  0  0  0  0  0  0  0  0  0  0
    8.2392   -1.5641   21.0954 H   0  0  0  0  0  0  0  0  0  0  0  0
  1  2  2  0  0  0  0
  1  7  1  0  0  0  0
  2 10  1  0  0  0  0
  3  5  2  0  0  0  0
  3  9  1  0  0  0  0
  4  6  1  0  0  0  0
  4  9  2  0  0  0  0
  5 11  1  0  0  0  0
  6 11  2  0  0  0  0
  7 12  2  0  0  0  0
  8 10  2  0  0  0  0
  8 12  1  0  0  0  0
  9 23  1  0  0  0  0
 10 22  1  0  0  0  0
 11 28  1  0  0  0  0
 12 30  1  0  0  0  0
 13 14  2  0  0  0  0
 13 15  1  0  0  0  0
 13 26  1  0  0  0  0
 14 24  1  0  0  0  0
 14 27  1  0  0  0  0
 15 16  2  0  0  0  0
 16 17  1  0  0  0  0
 17 18  2  0  0  0  0
 18 26  1  0  0  0  0
 19 23  1  0  0  0  0
 19 27  1  0  0  0  0
 19 29  2  0  0  0  0
 20 28  1  0  0  0  0
 21 28  1  0  0  0  0
 22 23  1  6  0  0  0
 24 25  2  0  0  0  0
 25 26  1  0  0  0  0
  1 31  1  0  0  0  0
  2 32  1  0  0  0  0
  3 33  1  0  0  0  0
  4 34  1  0  0  0  0
  5 35  1  0  0  0  0
  6 36  1  0  0  0  0
  7 37  1  0  0  0  0
  8 38  1  0  0  0  0
 15 39  1  0  0  0  0
 16 40  1  0  0  0  0
 17 41  1  0  0  0  0
 18 42  1  0  0  0  0
 20 43  1  0  0  0  0
 20 44  1  0  0  0  0
 20 45  1  0  0  0  0
 21 46  1  0  0  0  0
 21 47  1  0  0  0  0
 21 48  1  0  0  0  0
 22 49  1  0  0  0  0
 22 50  1  0  0  0  0
 23 51  1  0  0  0  0
 27 52  1  0  0  0  0
M  END
> <clash_score>
0

> <docking_score>
-6.819638252258301

> <overlap_score>
0.8466973304748535

$$$$
BENZO_257_2
  -OEChem-08232013453D

 54 57  0     1  0  0  0  0  0999 V2000
    9.6170    5.4099   22.6808 C   0  0  0  0  0  0  0  0  0  0  0  0
    8.4752    5.0878   23.4143 C   0  0  0  0  0  0  0  0  0  0  0  0
   10.5182    4.4090   22.3177 C   0  0  0  0  0  0  0  0  0  0  0  0
    8.2345    3.7648   23.7849 C   0  0  0  0  0  0  0  0  0  0  0  0
   10.2775    3.0860   22.6883 C   0  0  0  0  0  0  0  0  0  0  0  0
    9.0720   -1.1280   24.8640 C   0  0  0  0  0  0  0  0  0  0  0  0
    9.7200   -2.2600   22.8630 C   0  0  0  0  0  0  0  0  0  0  0  0
    8.9960   -2.3380   25.5320 C   0  0  0  0  0  0  0  0  0  0  0  0
    9.6730   -3.4710   23.5300 C   0  0  0  0  0  0  0  0  0  0  0  0
    9.1357    2.7638   23.4219 C   0  0  0  0  0  0  0  0  0  0  0  0
    9.3350   -1.0880   23.5010 C   0  0  0  0  0  0  0  0  0  0  0  0
    9.3070   -3.5340   24.8780 C   0  0  0  0  0  0  0  0  0  0  0  0
    6.1790    0.5730   19.9990 C   0  0  0  0  0  0  0  0  0  0  0  0
    7.3170   -0.1610   19.8550 C   0  0  0  0  0  0  0  0  0  0  0  0
    5.4210    0.9600   21.0930 C   0  0  0  0  0  0  0  0  0  0  0  0
    4.2750    1.7050   20.8490 C   0  0  0  0  0  0  0  0  0  0  0  0
    3.9160    2.0630   19.5520 C   0  0  0  0  0  0  0  0  0  0  0  0
    4.6890    1.6810   18.4640 C   0  0  0  0  0  0  0  0  0  0  0  0
    8.4227   -5.1089   26.6141 C   0  0  0  0  0  0  0  0  0  0  0  0
    9.0420    0.3700   21.5280 C   0  0  0  0  0  0  0  0  0  0  0  0
    8.4173   -7.5520   25.9532 C   0  0  0  0  0  0  0  0  0  0  0  0
    8.8757    1.3301   23.8233 C   0  0  0  0  0  0  0  0  0  0  0  0
    8.6899   -6.5411   27.0525 C   0  0  0  0  0  0  0  0  0  0  0  0
    9.4560    0.1560   22.8130 C   0  0  2  0  0  0  0  0  0  0  0  0
    7.6390   -0.2680   18.5410 N   0  0  0  0  0  0  0  0  0  0  0  0
    6.7580    0.3810   17.8350 N   0  0  0  0  0  0  0  0  0  0  0  0
    5.8300    0.9190   18.6970 N   0  0  0  0  0  0  0  0  0  0  0  0
    9.2546   -4.7423   25.5437 N   0  0  0  0  0  0  0  0  0  0  0  0
    8.1890   -0.7180   20.8700 N   0  0  0  0  0  0  0  0  0  0  0  0
    7.5768   -4.4084   27.1602 O   0  0  0  0  0  0  0  0  0  0  0  0
    9.2690    1.4140   20.9380 O   0  0  0  0  0  0  0  0  0  0  0  0
    9.8035    6.4400   22.3912 H   0  0  0  0  0  0  0  0  0  0  0  0
    7.7728    5.8668   23.6961 H   0  0  0  0  0  0  0  0  0  0  0  0
   11.4067    4.6593   21.7457 H   0  0  0  0  0  0  0  0  0  0  0  0
    7.3424    3.5231   24.3565 H   0  0  0  0  0  0  0  0  0  0  0  0
   10.9853    2.3128   22.4011 H   0  0  0  0  0  0  0  0  0  0  0  0
    8.9202   -0.1986   25.4206 H   0  0  0  0  0  0  0  0  0  0  0  0
   10.0631   -2.2319   21.8252 H   0  0  0  0  0  0  0  0  0  0  0  0
    8.6898   -2.3534   26.5810 H   0  0  0  0  0  0  0  0  0  0  0  0
    9.9254   -4.3899   22.9914 H   0  0  0  0  0  0  0  0  0  0  0  0
    5.6855    0.7074   22.1002 H   0  0  0  0  0  0  0  0  0  0  0  0
    3.6634    2.0034   21.6926 H   0  0  0  0  0  0  0  0  0  0  0  0
    3.0111    2.6563   19.3629 H   0  0  0  0  0  0  0  0  0  0  0  0
    4.4370    1.9522   17.4626 H   0  0  0  0  0  0  0  0  0  0  0  0
    7.3765   -7.4970   25.6177 H   0  0  0  0  0  0  0  0  0  0  0  0
    8.6071   -8.5677   26.3139 H   0  0  0  0  0  0  0  0  0  0  0  0
    9.0598   -7.3717   25.0851 H   0  0  0  0  0  0  0  0  0  0  0  0
    9.2390    1.1684   24.8466 H   0  0  0  0  0  0  0  0  0  0  0  0
    7.7875    1.1860   23.8742 H   0  0  0  0  0  0  0  0  0  0  0  0
    9.7367   -6.6182   27.3685 H   0  0  0  0  0  0  0  0  0  0  0  0
    8.0564   -6.7633   27.9189 H   0  0  0  0  0  0  0  0  0  0  0  0
   10.6103    0.4565   22.8881 H   0  0  0  0  0  0  0  0  0  0  0  0
    9.9034   -5.4689   25.2194 H   0  0  0  0  0  0  0  0  0  0  0  0
    8.2392   -1.5641   21.0954 H   0  0  0  0  0  0  0  0  0  0  0  0
  1  2  1  0  0  0  0
  1  3  2  0  0  0  0
  2  4  2  0  0  0  0
  3  5  1  0  0  0  0
  4 10  1  0  0  0  0
  5 10  2  0  0  0  0
  6  8  2  0  0  0  0
  6 11  1  0  0  0  0
  7  9  1  0  0  0  0
  7 11  2  0  0  0  0
  8 12  1  0  0  0  0
  9 12  2  0  0  0  0
 10 22  1  0  0  0  0
 11 24  1  0  0  0  0
 12 28  1  0  0  0  0
 13 14  2  0  0  0  0
 13 15  1  0  0  0  0
 13 27  1  0  0  0  0
 14 25  1  0  0  0  0
 14 29  1  0  0  0  0
 15 16  2  0  0  0  0
 16 17  1  0  0  0  0
 17 18  2  0  0  0  0
 18 27  1  0  0  0  0
 19 23  1  0  0  0  0
 19 28  1  0  0  0  0
 19 30  2  0  0  0  0
 20 24  1  0  0  0  0
 20 29  1  0  0  0  0
 20 31  2  0  0  0  0
 21 23  1  0  0  0  0
 22 24  1  6  0  0  0
 25 26  2  0  0  0  0
 26 27  1  0  0  0  0
  1 32  1  0  0  0  0
  2 33  1  0  0  0  0
  3 34  1  0  0  0  0
  4 35  1  0  0  0  0
  5 36  1  0  0  0  0
  6 37  1  0  0  0  0
  7 38  1  0  0  0  0
  8 39  1  0  0  0  0
  9 40  1  0  0  0  0
 15 41  1  0  0  0  0
 16 42  1  0  0  0  0
 17 43  1  0  0  0  0
 18 44  1  0  0  0  0
 21 45  1  0  0  0  0
 21 46  1  0  0  0  0
 21 47  1  0  0  0  0
 22 48  1  0  0  0  0
 22 49  1  0  0  0  0
 23 50  1  0  0  0  0
 23 51  1  0  0  0  0
 24 52  1  0  0  0  0
 28 53  1  0  0  0  0
 29 54  1  0  0  0  0
M  END
> <clash_score>
0.6426271293922312

> <docking_score>
-6.111440658569336

> <overlap_score>
0.8434734344482422

$$$$
BENZO_257_1
  -OEChem-08232013453D

 54 57  0     1  0  0  0  0  0999 V2000
   11.4726    4.9577   23.1210 C   0  0  0  0  0  0  0  0  0  0  0  0
   12.5103    4.1537   22.6496 C   0  0  0  0  0  0  0  0  0  0  0  0
   10.2847    4.3752   23.5633 C   0  0  0  0  0  0  0  0  0  0  0  0
   12.3602    2.7672   22.6203 C   0  0  0  0  0  0  0  0  0  0  0  0
   10.1346    2.9888   23.5339 C   0  0  0  0  0  0  0  0  0  0  0  0
    9.0720   -1.1280   24.8640 C   0  0  0  0  0  0  0  0  0  0  0  0
    9.7200   -2.2600   22.8630 C   0  0  0  0  0  0  0  0  0  0  0  0
    8.9960   -2.3380   25.5320 C   0  0  0  0  0  0  0  0  0  0  0  0
    9.6730   -3.4710   23.5300 C   0  0  0  0  0  0  0  0  0  0  0  0
   11.1723    2.1848   23.0624 C   0  0  0  0  0  0  0  0  0  0  0  0
    9.3350   -1.0880   23.5010 C   0  0  0  0  0  0  0  0  0  0  0  0
    9.3070   -3.5340   24.8780 C   0  0  0  0  0  0  0  0  0  0  0  0
    6.1790    0.5730   19.9990 C   0  0  0  0  0  0  0  0  0  0  0  0
    7.3170   -0.1610   19.8550 C   0  0  0  0  0  0  0  0  0  0  0  0
    5.4210    0.9600   21.0930 C   0  0  0  0  0  0  0  0  0  0  0  0
    4.2750    1.7050   20.8490 C   0  0  0  0  0  0  0  0  0  0  0  0
    3.9160    2.0630   19.5520 C   0  0  0  0  0  0  0  0  0  0  0  0
    4.6890    1.6810   18.4640 C   0  0  0  0  0  0  0  0  0  0  0  0
    8.4227   -5.1089   26.6141 C   0  0  0  0  0  0  0  0  0  0  0  0
    9.0420    0.3700   21.5280 C   0  0  0  0  0  0  0  0  0  0  0  0
    8.4173   -7.5520   25.9532 C   0  0  0  0  0  0  0  0  0  0  0  0
   11.0089    0.6825   23.0307 C   0  0  0  0  0  0  0  0  0  0  0  0
    8.6899   -6.5411   27.0525 C   0  0  0  0  0  0  0  0  0  0  0  0
    9.4560    0.1560   22.8130 C   0  0  1  0  0  0  0  0  0  0  0  0
    7.6390   -0.2680   18.5410 N   0  0  0  0  0  0  0  0  0  0  0  0
    6.7580    0.3810   17.8350 N   0  0  0  0  0  0  0  0  0  0  0  0
    5.8300    0.9190   18.6970 N   0  0  0  0  0  0  0  0  0  0  0  0
    9.2546   -4.7423   25.5437 N   0  0  0  0  0  0  0  0  0  0  0  0
    8.1890   -0.7180   20.8700 N   0  0  0  0  0  0  0  0  0  0  0  0
    7.5768   -4.4084   27.1602 O   0  0  0  0  0  0  0  0  0  0  0  0
    9.2690    1.4140   20.9380 O   0  0  0  0  0  0  0  0  0  0  0  0
   11.5901    6.0371   23.1451 H   0  0  0  0  0  0  0  0  0  0  0  0
   13.4357    4.6069   22.3063 H   0  0  0  0  0  0  0  0  0  0  0  0
    9.4770    5.0009   23.9314 H   0  0  0  0  0  0  0  0  0  0  0  0
   13.1740    2.1486   22.2511 H   0  0  0  0  0  0  0  0  0  0  0  0
    9.2056    2.5438   23.8803 H   0  0  0  0  0  0  0  0  0  0  0  0
    8.9202   -0.1986   25.4206 H   0  0  0  0  0  0  0  0  0  0  0  0
   10.0631   -2.2319   21.8252 H   0  0  0  0  0  0  0  0  0  0  0  0
    8.6898   -2.3534   26.5810 H   0  0  0  0  0  0  0  0  0  0  0  0
    9.9254   -4.3899   22.9914 H   0  0  0  0  0  0  0  0  0  0  0  0
    5.6855    0.7074   22.1002 H   0  0  0  0  0  0  0  0  0  0  0  0
    3.6634    2.0034   21.6926 H   0  0  0  0  0  0  0  0  0  0  0  0
    3.0111    2.6563   19.3629 H   0  0  0  0  0  0  0  0  0  0  0  0
    4.4370    1.9522   17.4626 H   0  0  0  0  0  0  0  0  0  0  0  0
    7.3765   -7.4970   25.6177 H   0  0  0  0  0  0  0  0  0  0  0  0
    8.6071   -8.5677   26.3139 H   0  0  0  0  0  0  0  0  0  0  0  0
    9.0598   -7.3717   25.0851 H   0  0  0  0  0  0  0  0  0  0  0  0
   11.6011    0.2707   22.2030 H   0  0  0  0  0  0  0  0  0  0  0  0
   11.4624    0.2744   23.9446 H   0  0  0  0  0  0  0  0  0  0  0  0
    9.7367   -6.6182   27.3685 H   0  0  0  0  0  0  0  0  0  0  0  0
    8.0564   -6.7633   27.9189 H   0  0  0  0  0  0  0  0  0  0  0  0
    8.9284    0.9668   23.5149 H   0  0  0  0  0  0  0  0  0  0  0  0
    9.9034   -5.4689   25.2194 H   0  0  0  0  0  0  0  0  0  0  0  0
    8.2392   -1.5641   21.0954 H   0  0  0  0  0  0  0  0  0  0  0  0
  1  2  1  0  0  0  0
  1  3  2  0  0  0  0
  2  4  2  0  0  0  0
  3  5  1  0  0  0  0
  4 10  1  0  0  0  0
  5 10  2  0  0  0  0
  6  8  2  0  0  0  0
  6 11  1  0  0  0  0
  7  9  1  0  0  0  0
  7 11  2  0  0  0  0
  8 12  1  0  0  0  0
  9 12  2  0  0  0  0
 10 22  1  0  0  0  0
 11 24  1  0  0  0  0
 12 28  1  0  0  0  0
 13 14  2  0  0  0  0
 13 15  1  0  0  0  0
 13 27  1  0  0  0  0
 14 25  1  0  0  0  0
 14 29  1  0  0  0  0
 15 16  2  0  0  0  0
 16 17  1  0  0  0  0
 17 18  2  0  0  0  0
 18 27  1  0  0  0  0
 19 23  1  0  0  0  0
 19 28  1  0  0  0  0
 19 30  2  0  0  0  0
 20 24  1  0  0  0  0
 20 29  1  0  0  0  0
 20 31  2  0  0  0  0
 21 23  1  0  0  0  0
 22 24  1  1  0  0  0
 25 26  2  0  0  0  0
 26 27  1  0  0  0  0
  1 32  1  0  0  0  0
  2 33  1  0  0  0  0
  3 34  1  0  0  0  0
  4 35  1  0  0  0  0
  5 36  1  0  0  0  0
  6 37  1  0  0  0  0
  7 38  1  0  0  0  0
  8 39  1  0  0  0  0
  9 40  1  0  0  0  0
 15 41  1  0  0  0  0
 16 42  1  0  0  0  0
 17 43  1  0  0  0  0
 18 44  1  0  0  0  0
 21 45  1  0  0  0  0
 21 46  1  0  0  0  0
 21 47  1  0  0  0  0
 22 48  1  0  0  0  0
 22 49  1  0  0  0  0
 23 50  1  0  0  0  0
 23 51  1  0  0  0  0
 24 52  1  0  0  0  0
 28 53  1  0  0  0  0
 29 54  1  0  0  0  0
M  END
> <clash_score>
0.6426271293922312

> <docking_score>
-9.57579517364502

> <overlap_score>
0.9320542216300964

$$$$
BENZO_256_2
  -OEChem-08232013453D

 51 54  0     1  0  0  0  0  0999 V2000
    9.0720   -1.1280   24.8640 C   0  0  0  0  0  0  0  0  0  0  0  0
    9.7200   -2.2600   22.8630 C   0  0  0  0  0  0  0  0  0  0  0  0
    8.9960   -2.3380   25.5320 C   0  0  0  0  0  0  0  0  0  0  0  0
    9.6730   -3.4710   23.5300 C   0  0  0  0  0  0  0  0  0  0  0  0
   10.3314    3.2065   22.7858 C   0  0  0  0  0  0  0  0  0  0  0  0
   10.3108    4.5599   22.5298 C   0  0  0  0  0  0  0  0  0  0  0  0
    8.2468    3.7959   23.6280 C   0  0  0  0  0  0  0  0  0  0  0  0
    9.3350   -1.0880   23.5010 C   0  0  0  0  0  0  0  0  0  0  0  0
    9.1357    2.7638   23.4219 C   0  0  0  0  0  0  0  0  0  0  0  0
    9.3070   -3.5340   24.8780 C   0  0  0  0  0  0  0  0  0  0  0  0
    6.1790    0.5730   19.9990 C   0  0  0  0  0  0  0  0  0  0  0  0
    7.3170   -0.1610   19.8550 C   0  0  0  0  0  0  0  0  0  0  0  0
    5.4210    0.9600   21.0930 C   0  0  0  0  0  0  0  0  0  0  0  0
    4.2750    1.7050   20.8490 C   0  0  0  0  0  0  0  0  0  0  0  0
    3.9160    2.0630   19.5520 C   0  0  0  0  0  0  0  0  0  0  0  0
    4.6890    1.6810   18.4640 C   0  0  0  0  0  0  0  0  0  0  0  0
    8.4227   -5.1089   26.6141 C   0  0  0  0  0  0  0  0  0  0  0  0
    9.0420    0.3700   21.5280 C   0  0  0  0  0  0  0  0  0  0  0  0
    8.4173   -7.5520   25.9532 C   0  0  0  0  0  0  0  0  0  0  0  0
    8.8757    1.3301   23.8233 C   0  0  0  0  0  0  0  0  0  0  0  0
    8.6899   -6.5411   27.0525 C   0  0  0  0  0  0  0  0  0  0  0  0
    9.4560    0.1560   22.8130 C   0  0  2  0  0  0  0  0  0  0  0  0
    7.6390   -0.2680   18.5410 N   0  0  0  0  0  0  0  0  0  0  0  0
    6.7580    0.3810   17.8350 N   0  0  0  0  0  0  0  0  0  0  0  0
    5.8300    0.9190   18.6970 N   0  0  0  0  0  0  0  0  0  0  0  0
    9.2546   -4.7423   25.5437 N   0  0  0  0  0  0  0  0  0  0  0  0
    8.1890   -0.7180   20.8700 N   0  0  0  0  0  0  0  0  0  0  0  0
    7.5768   -4.4084   27.1602 O   0  0  0  0  0  0  0  0  0  0  0  0
    9.2690    1.4140   20.9380 O   0  0  0  0  0  0  0  0  0  0  0  0
    8.8543    5.2911   23.0556 S   0  0  0  0  0  0  0  0  0  0  0  0
    8.9202   -0.1986   25.4206 H   0  0  0  0  0  0  0  0  0  0  0  0
   10.0631   -2.2319   21.8252 H   0  0  0  0  0  0  0  0  0  0  0  0
    8.6898   -2.3534   26.5810 H   0  0  0  0  0  0  0  0  0  0  0  0
    9.9254   -4.3899   22.9914 H   0  0  0  0  0  0  0  0  0  0  0  0
   11.1669    2.5681   22.5277 H   0  0  0  0  0  0  0  0  0  0  0  0
   11.0815    5.1544   22.0599 H   0  0  0  0  0  0  0  0  0  0  0  0
    7.2694    3.7480   24.0879 H   0  0  0  0  0  0  0  0  0  0  0  0
    5.6855    0.7074   22.1002 H   0  0  0  0  0  0  0  0  0  0  0  0
    3.6634    2.0034   21.6926 H   0  0  0  0  0  0  0  0  0  0  0  0
    3.0111    2.6563   19.3629 H   0  0  0  0  0  0  0  0  0  0  0  0
    4.4370    1.9522   17.4626 H   0  0  0  0  0  0  0  0  0  0  0  0
    7.3765   -7.4970   25.6177 H   0  0  0  0  0  0  0  0  0  0  0  0
    8.6071   -8.5677   26.3139 H   0  0  0  0  0  0  0  0  0  0  0  0
    9.0598   -7.3717   25.0851 H   0  0  0  0  0  0  0  0  0  0  0  0
    9.2390    1.1684   24.8466 H   0  0  0  0  0  0  0  0  0  0  0  0
    7.7875    1.1860   23.8742 H   0  0  0  0  0  0  0  0  0  0  0  0
    9.7367   -6.6182   27.3685 H   0  0  0  0  0  0  0  0  0  0  0  0
    8.0564   -6.7633   27.9189 H   0  0  0  0  0  0  0  0  0  0  0  0
   10.6103    0.4565   22.8881 H   0  0  0  0  0  0  0  0  0  0  0  0
    9.9034   -5.4689   25.2194 H   0  0  0  0  0  0  0  0  0  0  0  0
    8.2392   -1.5641   21.0954 H   0  0  0  0  0  0  0  0  0  0  0  0
  1  3  2  0  0  0  0
  1  8  1  0  0  0  0
  2  4  1  0  0  0  0
  2  8  2  0  0  0  0
  3 10  1  0  0  0  0
  4 10  2  0  0  0  0
  5  6  2  0  0  0  0
  5  9  1  0  0  0  0
  6 30  1  0  0  0  0
  7  9  2  0  0  0  0
  7 30  1  0  0  0  0
  8 22  1  0  0  0  0
  9 20  1  0  0  0  0
 10 26  1  0  0  0  0
 11 12  2  0  0  0  0
 11 13  1  0  0  0  0
 11 25  1  0  0  0  0
 12 23  1  0  0  0  0
 12 27  1  0  0  0  0
 13 14  2  0  0  0  0
 14 15  1  0  0  0  0
 15 16  2  0  0  0  0
 16 25  1  0  0  0  0
 17 21  1  0  0  0  0
 17 26  1  0  0  0  0
 17 28  2  0  0  0  0
 18 22  1  0  0  0  0
 18 27  1  0  0  0  0
 18 29  2  0  0  0  0
 19 21  1  0  0  0  0
 20 22  1  6  0  0  0
 23 24  2  0  0  0  0
 24 25  1  0  0  0  0
  1 31  1  0  0  0  0
  2 32  1  0  0  0  0
  3 33  1  0  0  0  0
  4 34  1  0  0  0  0
  5 35  1  0  0  0  0
  6 36  1  0  0  0  0
  7 37  1  0  0  0  0
 13 38  1  0  0  0  0
 14 39  1  0  0  0  0
 15 40  1  0  0  0  0
 16 41  1  0  0  0  0
 19 42  1  0  0  0  0
 19 43  1  0  0  0  0
 19 44  1  0  0  0  0
 20 45  1  0  0  0  0
 20 46  1  0  0  0  0
 21 47  1  0  0  0  0
 21 48  1  0  0  0  0
 22 49  1  0  0  0  0
 26 50  1  0  0  0  0
 27 51  1  0  0  0  0
M  END
> <clash_score>
0.6426271293922312

> <docking_score>
-6.498560905456543

> <overlap_score>
0.8437493443489075

$$$$
BENZO_256_1
  -OEChem-08232013453D

 51 54  0     1  0  0  0  0  0999 V2000
    9.0720   -1.1280   24.8640 C   0  0  0  0  0  0  0  0  0  0  0  0
    9.7200   -2.2600   22.8630 C   0  0  0  0  0  0  0  0  0  0  0  0
    8.9960   -2.3380   25.5320 C   0  0  0  0  0  0  0  0  0  0  0  0
    9.6730   -3.4710   23.5300 C   0  0  0  0  0  0  0  0  0  0  0  0
   11.9789    2.9159   22.1431 C   0  0  0  0  0  0  0  0  0  0  0  0
   11.9531    4.2698   22.3953 C   0  0  0  0  0  0  0  0  0  0  0  0
   10.5610    3.0079   23.9825 C   0  0  0  0  0  0  0  0  0  0  0  0
    9.3350   -1.0880   23.5010 C   0  0  0  0  0  0  0  0  0  0  0  0
   11.1723    2.1848   23.0624 C   0  0  0  0  0  0  0  0  0  0  0  0
    9.3070   -3.5340   24.8780 C   0  0  0  0  0  0  0  0  0  0  0  0
    6.1790    0.5730   19.9990 C   0  0  0  0  0  0  0  0  0  0  0  0
    7.3170   -0.1610   19.8550 C   0  0  0  0  0  0  0  0  0  0  0  0
    5.4210    0.9600   21.0930 C   0  0  0  0  0  0  0  0  0  0  0  0
    4.2750    1.7050   20.8490 C   0  0  0  0  0  0  0  0  0  0  0  0
    3.9160    2.0630   19.5520 C   0  0  0  0  0  0  0  0  0  0  0  0
    4.6890    1.6810   18.4640 C   0  0  0  0  0  0  0  0  0  0  0  0
    8.4227   -5.1089   26.6141 C   0  0  0  0  0  0  0  0  0  0  0  0
    9.0420    0.3700   21.5280 C   0  0  0  0  0  0  0  0  0  0  0  0
    8.4173   -7.5520   25.9532 C   0  0  0  0  0  0  0  0  0  0  0  0
   11.0089    0.6825   23.0307 C   0  0  0  0  0  0  0  0  0  0  0  0
    8.6899   -6.5411   27.0525 C   0  0  0  0  0  0  0  0  0  0  0  0
    9.4560    0.1560   22.8130 C   0  0  1  0  0  0  0  0  0  0  0  0
    7.6390   -0.2680   18.5410 N   0  0  0  0  0  0  0  0  0  0  0  0
    6.7580    0.3810   17.8350 N   0  0  0  0  0  0  0  0  0  0  0  0
    5.8300    0.9190   18.6970 N   0  0  0  0  0  0  0  0  0  0  0  0
    9.2546   -4.7423   25.5437 N   0  0  0  0  0  0  0  0  0  0  0  0
    8.1890   -0.7180   20.8700 N   0  0  0  0  0  0  0  0  0  0  0  0
    7.5768   -4.4084   27.1602 O   0  0  0  0  0  0  0  0  0  0  0  0
    9.2690    1.4140   20.9380 O   0  0  0  0  0  0  0  0  0  0  0  0
   10.9597    4.6549   23.7359 S   0  0  0  0  0  0  0  0  0  0  0  0
    8.9202   -0.1986   25.4206 H   0  0  0  0  0  0  0  0  0  0  0  0
   10.0631   -2.2319   21.8252 H   0  0  0  0  0  0  0  0  0  0  0  0
    8.6898   -2.3534   26.5810 H   0  0  0  0  0  0  0  0  0  0  0  0
    9.9254   -4.3899   22.9914 H   0  0  0  0  0  0  0  0  0  0  0  0
   12.5509    2.4750   21.3365 H   0  0  0  0  0  0  0  0  0  0  0  0
   12.4707    5.0513   21.8570 H   0  0  0  0  0  0  0  0  0  0  0  0
    9.8997    2.7250   24.7898 H   0  0  0  0  0  0  0  0  0  0  0  0
    5.6855    0.7074   22.1002 H   0  0  0  0  0  0  0  0  0  0  0  0
    3.6634    2.0034   21.6926 H   0  0  0  0  0  0  0  0  0  0  0  0
    3.0111    2.6563   19.3629 H   0  0  0  0  0  0  0  0  0  0  0  0
    4.4370    1.9522   17.4626 H   0  0  0  0  0  0  0  0  0  0  0  0
    7.3765   -7.4970   25.6177 H   0  0  0  0  0  0  0  0  0  0  0  0
    8.6071   -8.5677   26.3139 H   0  0  0  0  0  0  0  0  0  0  0  0
    9.0598   -7.3717   25.0851 H   0  0  0  0  0  0  0  0  0  0  0  0
   11.6011    0.2707   22.2030 H   0  0  0  0  0  0  0  0  0  0  0  0
   11.4624    0.2744   23.9446 H   0  0  0  0  0  0  0  0  0  0  0  0
    9.7367   -6.6182   27.3685 H   0  0  0  0  0  0  0  0  0  0  0  0
    8.0564   -6.7633   27.9189 H   0  0  0  0  0  0  0  0  0  0  0  0
    8.9284    0.9668   23.5149 H   0  0  0  0  0  0  0  0  0  0  0  0
    9.9034   -5.4689   25.2194 H   0  0  0  0  0  0  0  0  0  0  0  0
    8.2392   -1.5641   21.0954 H   0  0  0  0  0  0  0  0  0  0  0  0
  1  3  2  0  0  0  0
  1  8  1  0  0  0  0
  2  4  1  0  0  0  0
  2  8  2  0  0  0  0
  3 10  1  0  0  0  0
  4 10  2  0  0  0  0
  5  6  2  0  0  0  0
  5  9  1  0  0  0  0
  6 30  1  0  0  0  0
  7  9  2  0  0  0  0
  7 30  1  0  0  0  0
  8 22  1  0  0  0  0
  9 20  1  0  0  0  0
 10 26  1  0  0  0  0
 11 12  2  0  0  0  0
 11 13  1  0  0  0  0
 11 25  1  0  0  0  0
 12 23  1  0  0  0  0
 12 27  1  0  0  0  0
 13 14  2  0  0  0  0
 14 15  1  0  0  0  0
 15 16  2  0  0  0  0
 16 25  1  0  0  0  0
 17 21  1  0  0  0  0
 17 26  1  0  0  0  0
 17 28  2  0  0  0  0
 18 22  1  0  0  0  0
 18 27  1  0  0  0  0
 18 29  2  0  0  0  0
 19 21  1  0  0  0  0
 20 22  1  1  0  0  0
 23 24  2  0  0  0  0
 24 25  1  0  0  0  0
  1 31  1  0  0  0  0
  2 32  1  0  0  0  0
  3 33  1  0  0  0  0
  4 34  1  0  0  0  0
  5 35  1  0  0  0  0
  6 36  1  0  0  0  0
  7 37  1  0  0  0  0
 13 38  1  0  0  0  0
 14 39  1  0  0  0  0
 15 40  1  0  0  0  0
 16 41  1  0  0  0  0
 19 42  1  0  0  0  0
 19 43  1  0  0  0  0
 19 44  1  0  0  0  0
 20 45  1  0  0  0  0
 20 46  1  0  0  0  0
 21 47  1  0  0  0  0
 21 48  1  0  0  0  0
 22 49  1  0  0  0  0
 26 50  1  0  0  0  0
 27 51  1  0  0  0  0
M  END
> <clash_score>
0.6426271293922312

> <docking_score>
-8.617491722106934

> <overlap_score>
0.919459879398346

$$$$
BENZO_261_1
  -OEChem-08232013453D

 59 63  0     1  0  0  0  0  0999 V2000
    9.5866    5.4188   22.6537 C   0  0  0  0  0  0  0  0  0  0  0  0
    8.4493    5.0927   23.3925 C   0  0  0  0  0  0  0  0  0  0  0  0
   10.4927    4.4220   22.2918 C   0  0  0  0  0  0  0  0  0  0  0  0
    8.2182    3.7698   23.7695 C   0  0  0  0  0  0  0  0  0  0  0  0
   10.2616    3.0991   22.6687 C   0  0  0  0  0  0  0  0  0  0  0  0
    9.0720   -1.1280   24.8640 C   0  0  0  0  0  0  0  0  0  0  0  0
    9.7200   -2.2600   22.8630 C   0  0  0  0  0  0  0  0  0  0  0  0
    8.9960   -2.3380   25.5320 C   0  0  0  0  0  0  0  0  0  0  0  0
    9.6730   -3.4710   23.5300 C   0  0  0  0  0  0  0  0  0  0  0  0
    9.1243    2.7729   23.4075 C   0  0  0  0  0  0  0  0  0  0  0  0
    9.3350   -1.0880   23.5010 C   0  0  0  0  0  0  0  0  0  0  0  0
    9.3070   -3.5340   24.8780 C   0  0  0  0  0  0  0  0  0  0  0  0
    6.1790    0.5730   19.9990 C   0  0  0  0  0  0  0  0  0  0  0  0
    7.3170   -0.1610   19.8550 C   0  0  0  0  0  0  0  0  0  0  0  0
    5.4210    0.9600   21.0930 C   0  0  0  0  0  0  0  0  0  0  0  0
    4.2750    1.7050   20.8490 C   0  0  0  0  0  0  0  0  0  0  0  0
    3.9160    2.0630   19.5520 C   0  0  0  0  0  0  0  0  0  0  0  0
    4.6890    1.6810   18.4640 C   0  0  0  0  0  0  0  0  0  0  0  0
    9.0420    0.3700   21.5280 C   0  0  0  0  0  0  0  0  0  0  0  0
    8.0667   -7.3160   25.1085 C   0  0  0  0  0  0  0  0  0  0  0  0
    9.3319   -6.8814   24.3649 C   0  0  0  0  0  0  0  0  0  0  0  0
    7.2362   -6.1096   25.5522 C   0  0  0  0  0  0  0  0  0  0  0  0
   10.1245   -5.8640   25.1853 C   0  0  0  0  0  0  0  0  0  0  0  0
    8.0817   -5.1052   26.3413 C   0  0  0  0  0  0  0  0  0  0  0  0
    8.8746    1.3393   23.8158 C   0  0  0  0  0  0  0  0  0  0  0  0
    9.4560    0.1560   22.8130 C   0  0  1  0  0  0  0  0  0  0  0  0
    7.6390   -0.2680   18.5410 N   0  0  0  0  0  0  0  0  0  0  0  0
    6.7580    0.3810   17.8350 N   0  0  0  0  0  0  0  0  0  0  0  0
    5.8300    0.9190   18.6970 N   0  0  0  0  0  0  0  0  0  0  0  0
    9.2563   -4.7384   25.5420 N   0  0  0  0  0  0  0  0  0  0  0  0
    8.1890   -0.7180   20.8700 N   0  0  0  0  0  0  0  0  0  0  0  0
    9.2690    1.4140   20.9380 O   0  0  0  0  0  0  0  0  0  0  0  0
    9.7657    6.4488   22.3592 H   0  0  0  0  0  0  0  0  0  0  0  0
    7.7431    5.8686   23.6735 H   0  0  0  0  0  0  0  0  0  0  0  0
   11.3777    4.6754   21.7156 H   0  0  0  0  0  0  0  0  0  0  0  0
    7.3295    3.5250   24.3452 H   0  0  0  0  0  0  0  0  0  0  0  0
   10.9731    2.3291   22.3823 H   0  0  0  0  0  0  0  0  0  0  0  0
    8.9214   -0.1986   25.4206 H   0  0  0  0  0  0  0  0  0  0  0  0
   10.0622   -2.2326   21.8251 H   0  0  0  0  0  0  0  0  0  0  0  0
    8.6882   -2.3542   26.5803 H   0  0  0  0  0  0  0  0  0  0  0  0
    9.9258   -4.3896   22.9914 H   0  0  0  0  0  0  0  0  0  0  0  0
    5.6855    0.7074   22.1002 H   0  0  0  0  0  0  0  0  0  0  0  0
    3.6634    2.0034   21.6926 H   0  0  0  0  0  0  0  0  0  0  0  0
    3.0111    2.6563   19.3629 H   0  0  0  0  0  0  0  0  0  0  0  0
    4.4370    1.9522   17.4626 H   0  0  0  0  0  0  0  0  0  0  0  0
    7.4598   -7.9634   24.4571 H   0  0  0  0  0  0  0  0  0  0  0  0
    8.3410   -7.9201   25.9853 H   0  0  0  0  0  0  0  0  0  0  0  0
    9.9559   -7.7558   24.1617 H   0  0  0  0  0  0  0  0  0  0  0  0
    9.0580   -6.4449   23.4022 H   0  0  0  0  0  0  0  0  0  0  0  0
    6.8081   -5.6166   24.6732 H   0  0  0  0  0  0  0  0  0  0  0  0
    6.3966   -6.4479   26.1707 H   0  0  0  0  0  0  0  0  0  0  0  0
   10.5035   -6.3556   26.0849 H   0  0  0  0  0  0  0  0  0  0  0  0
   10.9797   -5.5057   24.6053 H   0  0  0  0  0  0  0  0  0  0  0  0
    7.4889   -4.2178   26.5663 H   0  0  0  0  0  0  0  0  0  0  0  0
    8.3867   -5.5668   27.2810 H   0  0  0  0  0  0  0  0  0  0  0  0
    9.2322    1.1871   24.8426 H   0  0  0  0  0  0  0  0  0  0  0  0
    7.7874    1.1856   23.8601 H   0  0  0  0  0  0  0  0  0  0  0  0
   10.6111    0.4645   22.8838 H   0  0  0  0  0  0  0  0  0  0  0  0
    8.2585   -1.5522   21.1129 H   0  0  0  0  0  0  0  0  0  0  0  0
  1  2  1  0  0  0  0
  1  3  2  0  0  0  0
  2  4  2  0  0  0  0
  3  5  1  0  0  0  0
  4 10  1  0  0  0  0
  5 10  2  0  0  0  0
  6  8  2  0  0  0  0
  6 11  1  0  0  0  0
  7  9  1  0  0  0  0
  7 11  2  0  0  0  0
  8 12  1  0  0  0  0
  9 12  2  0  0  0  0
 10 25  1  0  0  0  0
 11 26  1  0  0  0  0
 12 30  1  0  0  0  0
 13 14  2  0  0  0  0
 13 15  1  0  0  0  0
 13 29  1  0  0  0  0
 14 27  1  0  0  0  0
 14 31  1  0  0  0  0
 15 16  2  0  0  0  0
 16 17  1  0  0  0  0
 17 18  2  0  0  0  0
 18 29  1  0  0  0  0
 19 26  1  1  0  0  0
 19 31  1  0  0  0  0
 19 32  2  0  0  0  0
 20 21  1  0  0  0  0
 20 22  1  0  0  0  0
 21 23  1  0  0  0  0
 22 24  1  0  0  0  0
 23 30  1  0  0  0  0
 24 30  1  0  0  0  0
 25 26  1  0  0  0  0
 27 28  2  0  0  0  0
 28 29  1  0  0  0  0
  1 33  1  0  0  0  0
  2 34  1  0  0  0  0
  3 35  1  0  0  0  0
  4 36  1  0  0  0  0
  5 37  1  0  0  0  0
  6 38  1  0  0  0  0
  7 39  1  0  0  0  0
  8 40  1  0  0  0  0
  9 41  1  0  0  0  0
 15 42  1  0  0  0  0
 16 43  1  0  0  0  0
 17 44  1  0  0  0  0
 18 45  1  0  0  0  0
 20 46  1  0  0  0  0
 20 47  1  0  0  0  0
 21 48  1  0  0  0  0
 21 49  1  0  0  0  0
 22 50  1  0  0  0  0
 22 51  1  0  0  0  0
 23 52  1  0  0  0  0
 23 53  1  0  0  0  0
 24 54  1  0  0  0  0
 24 55  1  0  0  0  0
 25 56  1  0  0  0  0
 25 57  1  0  0  0  0
 26 58  1  0  0  0  0
 31 59  1  0  0  0  0
M  END
> <clash_score>
0.6917505343088597

> <docking_score>
-5.6794915199279785

> <overlap_score>
0.8603013157844543

$$$$
BENZO_258_2
  -OEChem-08232013453D

 54 57  0     1  0  0  0  0  0999 V2000
   10.5170    4.4086   22.3156 C   0  0  0  0  0  0  0  0  0  0  0  0
   10.2770    3.0858   22.6874 C   0  0  0  0  0  0  0  0  0  0  0  0
    9.0720   -1.1280   24.8640 C   0  0  0  0  0  0  0  0  0  0  0  0
    9.7200   -2.2600   22.8630 C   0  0  0  0  0  0  0  0  0  0  0  0
    8.9960   -2.3380   25.5320 C   0  0  0  0  0  0  0  0  0  0  0  0
    9.6730   -3.4710   23.5300 C   0  0  0  0  0  0  0  0  0  0  0  0
    9.6157    5.4095   22.6784 C   0  0  0  0  0  0  0  0  0  0  0  0
    8.2344    3.7647   23.7847 C   0  0  0  0  0  0  0  0  0  0  0  0
    9.3350   -1.0880   23.5010 C   0  0  0  0  0  0  0  0  0  0  0  0
    9.1357    2.7638   23.4219 C   0  0  0  0  0  0  0  0  0  0  0  0
    9.3070   -3.5340   24.8780 C   0  0  0  0  0  0  0  0  0  0  0  0
    8.4744    5.0875   23.4129 C   0  0  0  0  0  0  0  0  0  0  0  0
    6.1790    0.5730   19.9990 C   0  0  0  0  0  0  0  0  0  0  0  0
    7.3170   -0.1610   19.8550 C   0  0  0  0  0  0  0  0  0  0  0  0
    5.4210    0.9600   21.0930 C   0  0  0  0  0  0  0  0  0  0  0  0
    4.2750    1.7050   20.8490 C   0  0  0  0  0  0  0  0  0  0  0  0
    3.9160    2.0630   19.5520 C   0  0  0  0  0  0  0  0  0  0  0  0
    4.6890    1.6810   18.4640 C   0  0  0  0  0  0  0  0  0  0  0  0
    8.4227   -5.1089   26.6141 C   0  0  0  0  0  0  0  0  0  0  0  0
    9.0420    0.3700   21.5280 C   0  0  0  0  0  0  0  0  0  0  0  0
    8.4173   -7.5520   25.9532 C   0  0  0  0  0  0  0  0  0  0  0  0
    8.8757    1.3301   23.8233 C   0  0  0  0  0  0  0  0  0  0  0  0
    8.6899   -6.5411   27.0525 C   0  0  0  0  0  0  0  0  0  0  0  0
    9.4560    0.1560   22.8130 C   0  0  2  0  0  0  0  0  0  0  0  0
    7.6390   -0.2680   18.5410 N   0  0  0  0  0  0  0  0  0  0  0  0
    6.7580    0.3810   17.8350 N   0  0  0  0  0  0  0  0  0  0  0  0
    5.8300    0.9190   18.6970 N   0  0  0  0  0  0  0  0  0  0  0  0
    9.2546   -4.7423   25.5437 N   0  0  0  0  0  0  0  0  0  0  0  0
    8.1890   -0.7180   20.8700 N   0  0  0  0  0  0  0  0  0  0  0  0
    7.5768   -4.4084   27.1602 O   0  0  0  0  0  0  0  0  0  0  0  0
    9.2690    1.4140   20.9380 O   0  0  0  0  0  0  0  0  0  0  0  0
    7.3623    6.3227   23.8593 Cl  0  0  0  0  0  0  0  0  0  0  0  0
   11.4057    4.6588   21.7435 H   0  0  0  0  0  0  0  0  0  0  0  0
   10.9846    2.3124   22.4002 H   0  0  0  0  0  0  0  0  0  0  0  0
    8.9202   -0.1986   25.4206 H   0  0  0  0  0  0  0  0  0  0  0  0
   10.0631   -2.2319   21.8252 H   0  0  0  0  0  0  0  0  0  0  0  0
    8.6898   -2.3534   26.5810 H   0  0  0  0  0  0  0  0  0  0  0  0
    9.9254   -4.3899   22.9914 H   0  0  0  0  0  0  0  0  0  0  0  0
    9.8155    6.4361   22.3815 H   0  0  0  0  0  0  0  0  0  0  0  0
    7.3463    3.5086   24.3578 H   0  0  0  0  0  0  0  0  0  0  0  0
    5.6855    0.7074   22.1002 H   0  0  0  0  0  0  0  0  0  0  0  0
    3.6634    2.0034   21.6926 H   0  0  0  0  0  0  0  0  0  0  0  0
    3.0111    2.6563   19.3629 H   0  0  0  0  0  0  0  0  0  0  0  0
    4.4370    1.9522   17.4626 H   0  0  0  0  0  0  0  0  0  0  0  0
    7.3765   -7.4970   25.6177 H   0  0  0  0  0  0  0  0  0  0  0  0
    8.6071   -8.5677   26.3139 H   0  0  0  0  0  0  0  0  0  0  0  0
    9.0598   -7.3717   25.0851 H   0  0  0  0  0  0  0  0  0  0  0  0
    9.2390    1.1684   24.8466 H   0  0  0  0  0  0  0  0  0  0  0  0
    7.7875    1.1860   23.8742 H   0  0  0  0  0  0  0  0  0  0  0  0
    9.7367   -6.6182   27.3685 H   0  0  0  0  0  0  0  0  0  0  0  0
    8.0564   -6.7633   27.9189 H   0  0  0  0  0  0  0  0  0  0  0  0
   10.6103    0.4565   22.8881 H   0  0  0  0  0  0  0  0  0  0  0  0
    9.9034   -5.4689   25.2194 H   0  0  0  0  0  0  0  0  0  0  0  0
    8.2392   -1.5641   21.0954 H   0  0  0  0  0  0  0  0  0  0  0  0
  1  2  2  0  0  0  0
  1  7  1  0  0  0  0
  2 10  1  0  0  0  0
  3  5  2  0  0  0  0
  3  9  1  0  0  0  0
  4  6  1  0  0  0  0
  4  9  2  0  0  0  0
  5 11  1  0  0  0  0
  6 11  2  0  0  0  0
  7 12  2  0  0  0  0
  8 10  2  0  0  0  0
  8 12  1  0  0  0  0
  9 24  1  0  0  0  0
 10 22  1  0  0  0  0
 11 28  1  0  0  0  0
 12 32  1  0  0  0  0
 13 14  2  0  0  0  0
 13 15  1  0  0  0  0
 13 27  1  0  0  0  0
 14 25  1  0  0  0  0
 14 29  1  0  0  0  0
 15 16  2  0  0  0  0
 16 17  1  0  0  0  0
 17 18  2  0  0  0  0
 18 27  1  0  0  0  0
 19 23  1  0  0  0  0
 19 28  1  0  0  0  0
 19 30  2  0  0  0  0
 20 24  1  0  0  0  0
 20 29  1  0  0  0  0
 20 31  2  0  0  0  0
 21 23  1  0  0  0  0
 22 24  1  6  0  0  0
 25 26  2  0  0  0  0
 26 27  1  0  0  0  0
  1 33  1  0  0  0  0
  2 34  1  0  0  0  0
  3 35  1  0  0  0  0
  4 36  1  0  0  0  0
  5 37  1  0  0  0  0
  6 38  1  0  0  0  0
  7 39  1  0  0  0  0
  8 40  1  0  0  0  0
 15 41  1  0  0  0  0
 16 42  1  0  0  0  0
 17 43  1  0  0  0  0
 18 44  1  0  0  0  0
 21 45  1  0  0  0  0
 21 46  1  0  0  0  0
 21 47  1  0  0  0  0
 22 48  1  0  0  0  0
 22 49  1  0  0  0  0
 23 50  1  0  0  0  0
 23 51  1  0  0  0  0
 24 52  1  0  0  0  0
 28 53  1  0  0  0  0
 29 54  1  0  0  0  0
M  END
> <clash_score>
0.6426271293922312

> <docking_score>
-6.013628005981445

> <overlap_score>
0.8423012495040894

$$$$
BENZO_260_1
  -OEChem-08232013453D

 56 60  0     1  0  0  0  0  0999 V2000
    9.0720   -1.1280   24.8640 C   0  0  0  0  0  0  0  0  0  0  0  0
    9.7200   -2.2600   22.8630 C   0  0  0  0  0  0  0  0  0  0  0  0
    8.9960   -2.3380   25.5320 C   0  0  0  0  0  0  0  0  0  0  0  0
    9.6730   -3.4710   23.5300 C   0  0  0  0  0  0  0  0  0  0  0  0
   10.3203    3.2228   22.7771 C   0  0  0  0  0  0  0  0  0  0  0  0
   10.2891    4.5743   22.5128 C   0  0  0  0  0  0  0  0  0  0  0  0
    8.2246    3.7981   23.6013 C   0  0  0  0  0  0  0  0  0  0  0  0
    9.3350   -1.0880   23.5010 C   0  0  0  0  0  0  0  0  0  0  0  0
    9.1243    2.7729   23.4075 C   0  0  0  0  0  0  0  0  0  0  0  0
    9.3070   -3.5340   24.8780 C   0  0  0  0  0  0  0  0  0  0  0  0
    6.1790    0.5730   19.9990 C   0  0  0  0  0  0  0  0  0  0  0  0
    7.3170   -0.1610   19.8550 C   0  0  0  0  0  0  0  0  0  0  0  0
    5.4210    0.9600   21.0930 C   0  0  0  0  0  0  0  0  0  0  0  0
    4.2750    1.7050   20.8490 C   0  0  0  0  0  0  0  0  0  0  0  0
    3.9160    2.0630   19.5520 C   0  0  0  0  0  0  0  0  0  0  0  0
    4.6890    1.6810   18.4640 C   0  0  0  0  0  0  0  0  0  0  0  0
    9.0420    0.3700   21.5280 C   0  0  0  0  0  0  0  0  0  0  0  0
    8.0667   -7.3160   25.1085 C   0  0  0  0  0  0  0  0  0  0  0  0
    9.3319   -6.8814   24.3649 C   0  0  0  0  0  0  0  0  0  0  0  0
    7.2362   -6.1096   25.5522 C   0  0  0  0  0  0  0  0  0  0  0  0
   10.1245   -5.8640   25.1853 C   0  0  0  0  0  0  0  0  0  0  0  0
    8.0817   -5.1052   26.3413 C   0  0  0  0  0  0  0  0  0  0  0  0
    8.8746    1.3393   23.8158 C   0  0  0  0  0  0  0  0  0  0  0  0
    9.4560    0.1560   22.8130 C   0  0  1  0  0  0  0  0  0  0  0  0
    7.6390   -0.2680   18.5410 N   0  0  0  0  0  0  0  0  0  0  0  0
    6.7580    0.3810   17.8350 N   0  0  0  0  0  0  0  0  0  0  0  0
    5.8300    0.9190   18.6970 N   0  0  0  0  0  0  0  0  0  0  0  0
    9.2563   -4.7384   25.5420 N   0  0  0  0  0  0  0  0  0  0  0  0
    8.1890   -0.7180   20.8700 N   0  0  0  0  0  0  0  0  0  0  0  0
    9.2690    1.4140   20.9380 O   0  0  0  0  0  0  0  0  0  0  0  0
    8.8224    5.2953   23.0240 S   0  0  0  0  0  0  0  0  0  0  0  0
    8.9214   -0.1986   25.4206 H   0  0  0  0  0  0  0  0  0  0  0  0
   10.0622   -2.2326   21.8251 H   0  0  0  0  0  0  0  0  0  0  0  0
    8.6882   -2.3542   26.5803 H   0  0  0  0  0  0  0  0  0  0  0  0
    9.9258   -4.3896   22.9914 H   0  0  0  0  0  0  0  0  0  0  0  0
   11.1634    2.5905   22.5286 H   0  0  0  0  0  0  0  0  0  0  0  0
   11.0576    5.1730   22.0446 H   0  0  0  0  0  0  0  0  0  0  0  0
    7.2445    3.7440   24.0547 H   0  0  0  0  0  0  0  0  0  0  0  0
    5.6855    0.7074   22.1002 H   0  0  0  0  0  0  0  0  0  0  0  0
    3.6634    2.0034   21.6926 H   0  0  0  0  0  0  0  0  0  0  0  0
    3.0111    2.6563   19.3629 H   0  0  0  0  0  0  0  0  0  0  0  0
    4.4370    1.9522   17.4626 H   0  0  0  0  0  0  0  0  0  0  0  0
    7.4598   -7.9634   24.4571 H   0  0  0  0  0  0  0  0  0  0  0  0
    8.3410   -7.9201   25.9853 H   0  0  0  0  0  0  0  0  0  0  0  0
    9.9559   -7.7558   24.1617 H   0  0  0  0  0  0  0  0  0  0  0  0
    9.0580   -6.4449   23.4022 H   0  0  0  0  0  0  0  0  0  0  0  0
    6.8081   -5.6166   24.6732 H   0  0  0  0  0  0  0  0  0  0  0  0
    6.3966   -6.4479   26.1707 H   0  0  0  0  0  0  0  0  0  0  0  0
   10.5035   -6.3556   26.0849 H   0  0  0  0  0  0  0  0  0  0  0  0
   10.9797   -5.5057   24.6053 H   0  0  0  0  0  0  0  0  0  0  0  0
    7.4889   -4.2178   26.5663 H   0  0  0  0  0  0  0  0  0  0  0  0
    8.3867   -5.5668   27.2810 H   0  0  0  0  0  0  0  0  0  0  0  0
    9.2322    1.1871   24.8426 H   0  0  0  0  0  0  0  0  0  0  0  0
    7.7874    1.1856   23.8601 H   0  0  0  0  0  0  0  0  0  0  0  0
   10.6111    0.4645   22.8838 H   0  0  0  0  0  0  0  0  0  0  0  0
    8.2585   -1.5522   21.1129 H   0  0  0  0  0  0  0  0  0  0  0  0
  1  3  2  0  0  0  0
  1  8  1  0  0  0  0
  2  4  1  0  0  0  0
  2  8  2  0  0  0  0
  3 10  1  0  0  0  0
  4 10  2  0  0  0  0
  5  6  2  0  0  0  0
  5  9  1  0  0  0  0
  6 31  1  0  0  0  0
  7  9  2  0  0  0  0
  7 31  1  0  0  0  0
  8 24  1  0  0  0  0
  9 23  1  0  0  0  0
 10 28  1  0  0  0  0
 11 12  2  0  0  0  0
 11 13  1  0  0  0  0
 11 27  1  0  0  0  0
 12 25  1  0  0  0  0
 12 29  1  0  0  0  0
 13 14  2  0  0  0  0
 14 15  1  0  0  0  0
 15 16  2  0  0  0  0
 16 27  1  0  0  0  0
 17 24  1  1  0  0  0
 17 29  1  0  0  0  0
 17 30  2  0  0  0  0
 18 19  1  0  0  0  0
 18 20  1  0  0  0  0
 19 21  1  0  0  0  0
 20 22  1  0  0  0  0
 21 28  1  0  0  0  0
 22 28  1  0  0  0  0
 23 24  1  0  0  0  0
 25 26  2  0  0  0  0
 26 27  1  0  0  0  0
  1 32  1  0  0  0  0
  2 33  1  0  0  0  0
  3 34  1  0  0  0  0
  4 35  1  0  0  0  0
  5 36  1  0  0  0  0
  6 37  1  0  0  0  0
  7 38  1  0  0  0  0
 13 39  1  0  0  0  0
 14 40  1  0  0  0  0
 15 41  1  0  0  0  0
 16 42  1  0  0  0  0
 18 43  1  0  0  0  0
 18 44  1  0  0  0  0
 19 45  1  0  0  0  0
 19 46  1  0  0  0  0
 20 47  1  0  0  0  0
 20 48  1  0  0  0  0
 21 49  1  0  0  0  0
 21 50  1  0  0  0  0
 22 51  1  0  0  0  0
 22 52  1  0  0  0  0
 23 53  1  0  0  0  0
 23 54  1  0  0  0  0
 24 55  1  0  0  0  0
 29 56  1  0  0  0  0
M  END
> <clash_score>
0.6917505343088597

> <docking_score>
-6.070578575134277

> <overlap_score>
0.8607398867607117

$$$$
BENZO_259_2
  -OEChem-08232013453D

 54 57  0     1  0  0  0  0  0999 V2000
    9.0720   -1.1280   24.8640 C   0  0  0  0  0  0  0  0  0  0  0  0
    9.7200   -2.2600   22.8630 C   0  0  0  0  0  0  0  0  0  0  0  0
    8.9960   -2.3380   25.5320 C   0  0  0  0  0  0  0  0  0  0  0  0
    9.6730   -3.4710   23.5300 C   0  0  0  0  0  0  0  0  0  0  0  0
   10.2230    3.2711   22.6855 C   0  0  0  0  0  0  0  0  0  0  0  0
    8.3607    3.8650   23.6924 C   0  0  0  0  0  0  0  0  0  0  0  0
    9.3350   -1.0880   23.5010 C   0  0  0  0  0  0  0  0  0  0  0  0
    9.1357    2.7638   23.4219 C   0  0  0  0  0  0  0  0  0  0  0  0
    9.3070   -3.5340   24.8780 C   0  0  0  0  0  0  0  0  0  0  0  0
    6.1790    0.5730   19.9990 C   0  0  0  0  0  0  0  0  0  0  0  0
    7.3170   -0.1610   19.8550 C   0  0  0  0  0  0  0  0  0  0  0  0
    5.4210    0.9600   21.0930 C   0  0  0  0  0  0  0  0  0  0  0  0
    4.2750    1.7050   20.8490 C   0  0  0  0  0  0  0  0  0  0  0  0
    3.9160    2.0630   19.5520 C   0  0  0  0  0  0  0  0  0  0  0  0
    4.6890    1.6810   18.4640 C   0  0  0  0  0  0  0  0  0  0  0  0
    8.4227   -5.1089   26.6141 C   0  0  0  0  0  0  0  0  0  0  0  0
    9.0420    0.3700   21.5280 C   0  0  0  0  0  0  0  0  0  0  0  0
    8.4173   -7.5520   25.9532 C   0  0  0  0  0  0  0  0  0  0  0  0
    8.5727    6.3003   23.1419 C   0  0  0  0  0  0  0  0  0  0  0  0
    8.8757    1.3301   23.8233 C   0  0  0  0  0  0  0  0  0  0  0  0
    8.6899   -6.5411   27.0525 C   0  0  0  0  0  0  0  0  0  0  0  0
    9.4560    0.1560   22.8130 C   0  0  2  0  0  0  0  0  0  0  0  0
   10.1488    4.5917   22.4999 N   0  0  0  0  0  0  0  0  0  0  0  0
    7.6390   -0.2680   18.5410 N   0  0  0  0  0  0  0  0  0  0  0  0
    6.7580    0.3810   17.8350 N   0  0  0  0  0  0  0  0  0  0  0  0
    9.0056    4.9236   23.1235 N   0  0  0  0  0  0  0  0  0  0  0  0
    5.8300    0.9190   18.6970 N   0  0  0  0  0  0  0  0  0  0  0  0
    9.2546   -4.7423   25.5437 N   0  0  0  0  0  0  0  0  0  0  0  0
    8.1890   -0.7180   20.8700 N   0  0  0  0  0  0  0  0  0  0  0  0
    7.5768   -4.4084   27.1602 O   0  0  0  0  0  0  0  0  0  0  0  0
    9.2690    1.4140   20.9380 O   0  0  0  0  0  0  0  0  0  0  0  0
    8.9202   -0.1986   25.4206 H   0  0  0  0  0  0  0  0  0  0  0  0
   10.0631   -2.2319   21.8252 H   0  0  0  0  0  0  0  0  0  0  0  0
    8.6898   -2.3534   26.5810 H   0  0  0  0  0  0  0  0  0  0  0  0
    9.9254   -4.3899   22.9914 H   0  0  0  0  0  0  0  0  0  0  0  0
   11.0671    2.7354   22.2746 H   0  0  0  0  0  0  0  0  0  0  0  0
    7.4277    3.9824   24.2269 H   0  0  0  0  0  0  0  0  0  0  0  0
    5.6855    0.7074   22.1002 H   0  0  0  0  0  0  0  0  0  0  0  0
    3.6634    2.0034   21.6926 H   0  0  0  0  0  0  0  0  0  0  0  0
    3.0111    2.6563   19.3629 H   0  0  0  0  0  0  0  0  0  0  0  0
    4.4370    1.9522   17.4626 H   0  0  0  0  0  0  0  0  0  0  0  0
    7.3765   -7.4970   25.6177 H   0  0  0  0  0  0  0  0  0  0  0  0
    8.6071   -8.5677   26.3139 H   0  0  0  0  0  0  0  0  0  0  0  0
    9.0598   -7.3717   25.0851 H   0  0  0  0  0  0  0  0  0  0  0  0
    8.9983    6.7758   24.0295 H   0  0  0  0  0  0  0  0  0  0  0  0
    8.9199    6.8033   22.2351 H   0  0  0  0  0  0  0  0  0  0  0  0
    7.4802    6.3352   23.1748 H   0  0  0  0  0  0  0  0  0  0  0  0
    9.2390    1.1684   24.8466 H   0  0  0  0  0  0  0  0  0  0  0  0
    7.7875    1.1860   23.8742 H   0  0  0  0  0  0  0  0  0  0  0  0
    9.7367   -6.6182   27.3685 H   0  0  0  0  0  0  0  0  0  0  0  0
    8.0564   -6.7633   27.9189 H   0  0  0  0  0  0  0  0  0  0  0  0
   10.6103    0.4565   22.8881 H   0  0  0  0  0  0  0  0  0  0  0  0
    9.9034   -5.4689   25.2194 H   0  0  0  0  0  0  0  0  0  0  0  0
    8.2392   -1.5641   21.0954 H   0  0  0  0  0  0  0  0  0  0  0  0
  1  3  2  0  0  0  0
  1  7  1  0  0  0  0
  2  4  1  0  0  0  0
  2  7  2  0  0  0  0
  3  9  1  0  0  0  0
  4  9  2  0  0  0  0
  5  8  1  0  0  0  0
  5 23  2  0  0  0  0
  6  8  2  0  0  0  0
  6 26  1  0  0  0  0
  7 22  1  0  0  0  0
  8 20  1  0  0  0  0
  9 28  1  0  0  0  0
 10 11  2  0  0  0  0
 10 12  1  0  0  0  0
 10 27  1  0  0  0  0
 11 24  1  0  0  0  0
 11 29  1  0  0  0  0
 12 13  2  0  0  0  0
 13 14  1  0  0  0  0
 14 15  2  0  0  0  0
 15 27  1  0  0  0  0
 16 21  1  0  0  0  0
 16 28  1  0  0  0  0
 16 30  2  0  0  0  0
 17 22  1  0  0  0  0
 17 29  1  0  0  0  0
 17 31  2  0  0  0  0
 18 21  1  0  0  0  0
 19 26  1  0  0  0  0
 20 22  1  6  0  0  0
 23 26  1  0  0  0  0
 24 25  2  0  0  0  0
 25 27  1  0  0  0  0
  1 32  1  0  0  0  0
  2 33  1  0  0  0  0
  3 34  1  0  0  0  0
  4 35  1  0  0  0  0
  5 36  1  0  0  0  0
  6 37  1  0  0  0  0
 12 38  1  0  0  0  0
 13 39  1  0  0  0  0
 14 40  1  0  0  0  0
 15 41  1  0  0  0  0
 18 42  1  0  0  0  0
 18 43  1  0  0  0  0
 18 44  1  0  0  0  0
 19 45  1  0  0  0  0
 19 46  1  0  0  0  0
 19 47  1  0  0  0  0
 20 48  1  0  0  0  0
 20 49  1  0  0  0  0
 21 50  1  0  0  0  0
 21 51  1  0  0  0  0
 22 52  1  0  0  0  0
 28 53  1  0  0  0  0
 29 54  1  0  0  0  0
M  END
> <clash_score>
0.6426271293922312

> <docking_score>
-5.839859962463379

> <overlap_score>
0.8392736911773682

$$$$
BENZO_258_1
  -OEChem-08232013453D

 54 57  0     1  0  0  0  0  0999 V2000
   10.2856    4.3750   23.5656 C   0  0  0  0  0  0  0  0  0  0  0  0
   10.1350    2.9887   23.5349 C   0  0  0  0  0  0  0  0  0  0  0  0
    9.0720   -1.1280   24.8640 C   0  0  0  0  0  0  0  0  0  0  0  0
    9.7200   -2.2600   22.8630 C   0  0  0  0  0  0  0  0  0  0  0  0
    8.9960   -2.3380   25.5320 C   0  0  0  0  0  0  0  0  0  0  0  0
    9.6730   -3.4710   23.5300 C   0  0  0  0  0  0  0  0  0  0  0  0
   11.4735    4.9575   23.1236 C   0  0  0  0  0  0  0  0  0  0  0  0
   12.3603    2.7672   22.6205 C   0  0  0  0  0  0  0  0  0  0  0  0
    9.3350   -1.0880   23.5010 C   0  0  0  0  0  0  0  0  0  0  0  0
   11.1723    2.1848   23.0624 C   0  0  0  0  0  0  0  0  0  0  0  0
    9.3070   -3.5340   24.8780 C   0  0  0  0  0  0  0  0  0  0  0  0
   12.5108    4.1536   22.6511 C   0  0  0  0  0  0  0  0  0  0  0  0
    6.1790    0.5730   19.9990 C   0  0  0  0  0  0  0  0  0  0  0  0
    7.3170   -0.1610   19.8550 C   0  0  0  0  0  0  0  0  0  0  0  0
    5.4210    0.9600   21.0930 C   0  0  0  0  0  0  0  0  0  0  0  0
    4.2750    1.7050   20.8490 C   0  0  0  0  0  0  0  0  0  0  0  0
    3.9160    2.0630   19.5520 C   0  0  0  0  0  0  0  0  0  0  0  0
    4.6890    1.6810   18.4640 C   0  0  0  0  0  0  0  0  0  0  0  0
    8.4227   -5.1089   26.6141 C   0  0  0  0  0  0  0  0  0  0  0  0
    9.0420    0.3700   21.5280 C   0  0  0  0  0  0  0  0  0  0  0  0
    8.4173   -7.5520   25.9532 C   0  0  0  0  0  0  0  0  0  0  0  0
   11.0089    0.6825   23.0307 C   0  0  0  0  0  0  0  0  0  0  0  0
    8.6899   -6.5411   27.0525 C   0  0  0  0  0  0  0  0  0  0  0  0
    9.4560    0.1560   22.8130 C   0  0  1  0  0  0  0  0  0  0  0  0
    7.6390   -0.2680   18.5410 N   0  0  0  0  0  0  0  0  0  0  0  0
    6.7580    0.3810   17.8350 N   0  0  0  0  0  0  0  0  0  0  0  0
    5.8300    0.9190   18.6970 N   0  0  0  0  0  0  0  0  0  0  0  0
    9.2546   -4.7423   25.5437 N   0  0  0  0  0  0  0  0  0  0  0  0
    8.1890   -0.7180   20.8700 N   0  0  0  0  0  0  0  0  0  0  0  0
    7.5768   -4.4084   27.1602 O   0  0  0  0  0  0  0  0  0  0  0  0
    9.2690    1.4140   20.9380 O   0  0  0  0  0  0  0  0  0  0  0  0
   13.9766    4.8727   22.1070 Cl  0  0  0  0  0  0  0  0  0  0  0  0
    9.4776    5.0007   23.9337 H   0  0  0  0  0  0  0  0  0  0  0  0
    9.2060    2.5434   23.8814 H   0  0  0  0  0  0  0  0  0  0  0  0
    8.9202   -0.1986   25.4206 H   0  0  0  0  0  0  0  0  0  0  0  0
   10.0631   -2.2319   21.8252 H   0  0  0  0  0  0  0  0  0  0  0  0
    8.6898   -2.3534   26.5810 H   0  0  0  0  0  0  0  0  0  0  0  0
    9.9254   -4.3899   22.9914 H   0  0  0  0  0  0  0  0  0  0  0  0
   11.5769    6.0394   23.1535 H   0  0  0  0  0  0  0  0  0  0  0  0
   13.1659    2.1361   22.2525 H   0  0  0  0  0  0  0  0  0  0  0  0
    5.6855    0.7074   22.1002 H   0  0  0  0  0  0  0  0  0  0  0  0
    3.6634    2.0034   21.6926 H   0  0  0  0  0  0  0  0  0  0  0  0
    3.0111    2.6563   19.3629 H   0  0  0  0  0  0  0  0  0  0  0  0
    4.4370    1.9522   17.4626 H   0  0  0  0  0  0  0  0  0  0  0  0
    7.3765   -7.4970   25.6177 H   0  0  0  0  0  0  0  0  0  0  0  0
    8.6071   -8.5677   26.3139 H   0  0  0  0  0  0  0  0  0  0  0  0
    9.0598   -7.3717   25.0851 H   0  0  0  0  0  0  0  0  0  0  0  0
   11.6011    0.2707   22.2030 H   0  0  0  0  0  0  0  0  0  0  0  0
   11.4624    0.2744   23.9446 H   0  0  0  0  0  0  0  0  0  0  0  0
    9.7367   -6.6182   27.3685 H   0  0  0  0  0  0  0  0  0  0  0  0
    8.0564   -6.7633   27.9189 H   0  0  0  0  0  0  0  0  0  0  0  0
    8.9284    0.9668   23.5149 H   0  0  0  0  0  0  0  0  0  0  0  0
    9.9034   -5.4689   25.2194 H   0  0  0  0  0  0  0  0  0  0  0  0
    8.2392   -1.5641   21.0954 H   0  0  0  0  0  0  0  0  0  0  0  0
  1  2  2  0  0  0  0
  1  7  1  0  0  0  0
  2 10  1  0  0  0  0
  3  5  2  0  0  0  0
  3  9  1  0  0  0  0
  4  6  1  0  0  0  0
  4  9  2  0  0  0  0
  5 11  1  0  0  0  0
  6 11  2  0  0  0  0
  7 12  2  0  0  0  0
  8 10  2  0  0  0  0
  8 12  1  0  0  0  0
  9 24  1  0  0  0  0
 10 22  1  0  0  0  0
 11 28  1  0  0  0  0
 12 32  1  0  0  0  0
 13 14  2  0  0  0  0
 13 15  1  0  0  0  0
 13 27  1  0  0  0  0
 14 25  1  0  0  0  0
 14 29  1  0  0  0  0
 15 16  2  0  0  0  0
 16 17  1  0  0  0  0
 17 18  2  0  0  0  0
 18 27  1  0  0  0  0
 19 23  1  0  0  0  0
 19 28  1  0  0  0  0
 19 30  2  0  0  0  0
 20 24  1  0  0  0  0
 20 29  1  0  0  0  0
 20 31  2  0  0  0  0
 21 23  1  0  0  0  0
 22 24  1  1  0  0  0
 25 26  2  0  0  0  0
 26 27  1  0  0  0  0
  1 33  1  0  0  0  0
  2 34  1  0  0  0  0
  3 35  1  0  0  0  0
  4 36  1  0  0  0  0
  5 37  1  0  0  0  0
  6 38  1  0  0  0  0
  7 39  1  0  0  0  0
  8 40  1  0  0  0  0
 15 41  1  0  0  0  0
 16 42  1  0  0  0  0
 17 43  1  0  0  0  0
 18 44  1  0  0  0  0
 21 45  1  0  0  0  0
 21 46  1  0  0  0  0
 21 47  1  0  0  0  0
 22 48  1  0  0  0  0
 22 49  1  0  0  0  0
 23 50  1  0  0  0  0
 23 51  1  0  0  0  0
 24 52  1  0  0  0  0
 28 53  1  0  0  0  0
 29 54  1  0  0  0  0
M  END
> <clash_score>
0.6426271293922312

> <docking_score>
-10.019259452819824

> <overlap_score>
0.9330191016197205

$$$$
BENZO_259_1
  -OEChem-08232013453D

 54 57  0     1  0  0  0  0  0999 V2000
    9.0720   -1.1280   24.8640 C   0  0  0  0  0  0  0  0  0  0  0  0
    9.7200   -2.2600   22.8630 C   0  0  0  0  0  0  0  0  0  0  0  0
    8.9960   -2.3380   25.5320 C   0  0  0  0  0  0  0  0  0  0  0  0
    9.6730   -3.4710   23.5300 C   0  0  0  0  0  0  0  0  0  0  0  0
   10.2428    3.1457   23.5034 C   0  0  0  0  0  0  0  0  0  0  0  0
   12.2645    2.9188   22.6690 C   0  0  0  0  0  0  0  0  0  0  0  0
    9.3350   -1.0880   23.5010 C   0  0  0  0  0  0  0  0  0  0  0  0
   11.1723    2.1848   23.0624 C   0  0  0  0  0  0  0  0  0  0  0  0
    9.3070   -3.5340   24.8780 C   0  0  0  0  0  0  0  0  0  0  0  0
    6.1790    0.5730   19.9990 C   0  0  0  0  0  0  0  0  0  0  0  0
    7.3170   -0.1610   19.8550 C   0  0  0  0  0  0  0  0  0  0  0  0
    5.4210    0.9600   21.0930 C   0  0  0  0  0  0  0  0  0  0  0  0
    4.2750    1.7050   20.8490 C   0  0  0  0  0  0  0  0  0  0  0  0
    3.9160    2.0630   19.5520 C   0  0  0  0  0  0  0  0  0  0  0  0
    4.6890    1.6810   18.4640 C   0  0  0  0  0  0  0  0  0  0  0  0
    8.4227   -5.1089   26.6141 C   0  0  0  0  0  0  0  0  0  0  0  0
    9.0420    0.3700   21.5280 C   0  0  0  0  0  0  0  0  0  0  0  0
    8.4173   -7.5520   25.9532 C   0  0  0  0  0  0  0  0  0  0  0  0
   12.7694    5.3728   22.6293 C   0  0  0  0  0  0  0  0  0  0  0  0
   11.0089    0.6825   23.0307 C   0  0  0  0  0  0  0  0  0  0  0  0
    8.6899   -6.5411   27.0525 C   0  0  0  0  0  0  0  0  0  0  0  0
    9.4560    0.1560   22.8130 C   0  0  1  0  0  0  0  0  0  0  0  0
   10.7043    4.3948   23.4002 N   0  0  0  0  0  0  0  0  0  0  0  0
    7.6390   -0.2680   18.5410 N   0  0  0  0  0  0  0  0  0  0  0  0
    6.7580    0.3810   17.8350 N   0  0  0  0  0  0  0  0  0  0  0  0
   11.9358    4.2239   22.8900 N   0  0  0  0  0  0  0  0  0  0  0  0
    5.8300    0.9190   18.6970 N   0  0  0  0  0  0  0  0  0  0  0  0
    9.2546   -4.7423   25.5437 N   0  0  0  0  0  0  0  0  0  0  0  0
    8.1890   -0.7180   20.8700 N   0  0  0  0  0  0  0  0  0  0  0  0
    7.5768   -4.4084   27.1602 O   0  0  0  0  0  0  0  0  0  0  0  0
    9.2690    1.4140   20.9380 O   0  0  0  0  0  0  0  0  0  0  0  0
    8.9202   -0.1986   25.4206 H   0  0  0  0  0  0  0  0  0  0  0  0
   10.0631   -2.2319   21.8252 H   0  0  0  0  0  0  0  0  0  0  0  0
    8.6898   -2.3534   26.5810 H   0  0  0  0  0  0  0  0  0  0  0  0
    9.9254   -4.3899   22.9914 H   0  0  0  0  0  0  0  0  0  0  0  0
    9.2482    2.9901   23.8969 H   0  0  0  0  0  0  0  0  0  0  0  0
   13.2243    2.6307   22.2620 H   0  0  0  0  0  0  0  0  0  0  0  0
    5.6855    0.7074   22.1002 H   0  0  0  0  0  0  0  0  0  0  0  0
    3.6634    2.0034   21.6926 H   0  0  0  0  0  0  0  0  0  0  0  0
    3.0111    2.6563   19.3629 H   0  0  0  0  0  0  0  0  0  0  0  0
    4.4370    1.9522   17.4626 H   0  0  0  0  0  0  0  0  0  0  0  0
    7.3765   -7.4970   25.6177 H   0  0  0  0  0  0  0  0  0  0  0  0
    8.6071   -8.5677   26.3139 H   0  0  0  0  0  0  0  0  0  0  0  0
    9.0598   -7.3717   25.0851 H   0  0  0  0  0  0  0  0  0  0  0  0
   12.5744    5.7060   21.6066 H   0  0  0  0  0  0  0  0  0  0  0  0
   12.5290    6.1664   23.3423 H   0  0  0  0  0  0  0  0  0  0  0  0
   13.8196    5.0915   22.7473 H   0  0  0  0  0  0  0  0  0  0  0  0
   11.6011    0.2707   22.2030 H   0  0  0  0  0  0  0  0  0  0  0  0
   11.4624    0.2744   23.9446 H   0  0  0  0  0  0  0  0  0  0  0  0
    9.7367   -6.6182   27.3685 H   0  0  0  0  0  0  0  0  0  0  0  0
    8.0564   -6.7633   27.9189 H   0  0  0  0  0  0  0  0  0  0  0  0
    8.9284    0.9668   23.5149 H   0  0  0  0  0  0  0  0  0  0  0  0
    9.9034   -5.4689   25.2194 H   0  0  0  0  0  0  0  0  0  0  0  0
    8.2392   -1.5641   21.0954 H   0  0  0  0  0  0  0  0  0  0  0  0
  1  3  2  0  0  0  0
  1  7  1  0  0  0  0
  2  4  1  0  0  0  0
  2  7  2  0  0  0  0
  3  9  1  0  0  0  0
  4  9  2  0  0  0  0
  5  8  1  0  0  0  0
  5 23  2  0  0  0  0
  6  8  2  0  0  0  0
  6 26  1  0  0  0  0
  7 22  1  0  0  0  0
  8 20  1  0  0  0  0
  9 28  1  0  0  0  0
 10 11  2  0  0  0  0
 10 12  1  0  0  0  0
 10 27  1  0  0  0  0
 11 24  1  0  0  0  0
 11 29  1  0  0  0  0
 12 13  2  0  0  0  0
 13 14  1  0  0  0  0
 14 15  2  0  0  0  0
 15 27  1  0  0  0  0
 16 21  1  0  0  0  0
 16 28  1  0  0  0  0
 16 30  2  0  0  0  0
 17 22  1  0  0  0  0
 17 29  1  0  0  0  0
 17 31  2  0  0  0  0
 18 21  1  0  0  0  0
 19 26  1  0  0  0  0
 20 22  1  1  0  0  0
 23 26  1  0  0  0  0
 24 25  2  0  0  0  0
 25 27  1  0  0  0  0
  1 32  1  0  0  0  0
  2 33  1  0  0  0  0
  3 34  1  0  0  0  0
  4 35  1  0  0  0  0
  5 36  1  0  0  0  0
  6 37  1  0  0  0  0
 12 38  1  0  0  0  0
 13 39  1  0  0  0  0
 14 40  1  0  0  0  0
 15 41  1  0  0  0  0
 18 42  1  0  0  0  0
 18 43  1  0  0  0  0
 18 44  1  0  0  0  0
 19 45  1  0  0  0  0
 19 46  1  0  0  0  0
 19 47  1  0  0  0  0
 20 48  1  0  0  0  0
 20 49  1  0  0  0  0
 21 50  1  0  0  0  0
 21 51  1  0  0  0  0
 22 52  1  0  0  0  0
 28 53  1  0  0  0  0
 29 54  1  0  0  0  0
M  END
> <clash_score>
0.6426271293922312

> <docking_score>
-9.481927871704102

> <overlap_score>
0.9281452298164368

$$$$
BENZO_260_2
  -OEChem-08232013453D

 56 60  0     1  0  0  0  0  0999 V2000
    9.0720   -1.1280   24.8640 C   0  0  0  0  0  0  0  0  0  0  0  0
    9.7200   -2.2600   22.8630 C   0  0  0  0  0  0  0  0  0  0  0  0
    8.9960   -2.3380   25.5320 C   0  0  0  0  0  0  0  0  0  0  0  0
    9.6730   -3.4710   23.5300 C   0  0  0  0  0  0  0  0  0  0  0  0
   11.9814    2.9163   22.1204 C   0  0  0  0  0  0  0  0  0  0  0  0
   11.9562    4.2724   22.3613 C   0  0  0  0  0  0  0  0  0  0  0  0
   10.5621    3.0244   23.9578 C   0  0  0  0  0  0  0  0  0  0  0  0
    9.3350   -1.0880   23.5010 C   0  0  0  0  0  0  0  0  0  0  0  0
   11.1738    2.1933   23.0450 C   0  0  0  0  0  0  0  0  0  0  0  0
    9.3070   -3.5340   24.8780 C   0  0  0  0  0  0  0  0  0  0  0  0
    6.1790    0.5730   19.9990 C   0  0  0  0  0  0  0  0  0  0  0  0
    7.3170   -0.1610   19.8550 C   0  0  0  0  0  0  0  0  0  0  0  0
    5.4210    0.9600   21.0930 C   0  0  0  0  0  0  0  0  0  0  0  0
    4.2750    1.7050   20.8490 C   0  0  0  0  0  0  0  0  0  0  0  0
    3.9160    2.0630   19.5520 C   0  0  0  0  0  0  0  0  0  0  0  0
    4.6890    1.6810   18.4640 C   0  0  0  0  0  0  0  0  0  0  0  0
    9.0420    0.3700   21.5280 C   0  0  0  0  0  0  0  0  0  0  0  0
    7.3637   -6.1365   27.1885 C   0  0  0  0  0  0  0  0  0  0  0  0
    8.1962   -4.9739   27.7340 C   0  0  0  0  0  0  0  0  0  0  0  0
    7.1943   -6.0395   25.6706 C   0  0  0  0  0  0  0  0  0  0  0  0
    9.5197   -4.8493   26.9795 C   0  0  0  0  0  0  0  0  0  0  0  0
    8.5443   -5.8838   24.9636 C   0  0  0  0  0  0  0  0  0  0  0  0
   11.0096    0.6909   23.0256 C   0  0  0  0  0  0  0  0  0  0  0  0
    9.4560    0.1560   22.8130 C   0  0  2  0  0  0  0  0  0  0  0  0
    7.6390   -0.2680   18.5410 N   0  0  0  0  0  0  0  0  0  0  0  0
    6.7580    0.3810   17.8350 N   0  0  0  0  0  0  0  0  0  0  0  0
    5.8300    0.9190   18.6970 N   0  0  0  0  0  0  0  0  0  0  0  0
    9.2563   -4.7385   25.5420 N   0  0  0  0  0  0  0  0  0  0  0  0
    8.1890   -0.7180   20.8700 N   0  0  0  0  0  0  0  0  0  0  0  0
    9.2690    1.4140   20.9380 O   0  0  0  0  0  0  0  0  0  0  0  0
   10.9619    4.6690   23.6979 S   0  0  0  0  0  0  0  0  0  0  0  0
    8.9214   -0.1986   25.4206 H   0  0  0  0  0  0  0  0  0  0  0  0
   10.0622   -2.2326   21.8251 H   0  0  0  0  0  0  0  0  0  0  0  0
    8.6882   -2.3542   26.5803 H   0  0  0  0  0  0  0  0  0  0  0  0
    9.9258   -4.3896   22.9914 H   0  0  0  0  0  0  0  0  0  0  0  0
   12.5539    2.4685   21.3179 H   0  0  0  0  0  0  0  0  0  0  0  0
   12.4745    5.0491   21.8170 H   0  0  0  0  0  0  0  0  0  0  0  0
    9.9000    2.7485   24.7669 H   0  0  0  0  0  0  0  0  0  0  0  0
    5.6855    0.7074   22.1002 H   0  0  0  0  0  0  0  0  0  0  0  0
    3.6634    2.0034   21.6926 H   0  0  0  0  0  0  0  0  0  0  0  0
    3.0111    2.6563   19.3629 H   0  0  0  0  0  0  0  0  0  0  0  0
    4.4370    1.9522   17.4626 H   0  0  0  0  0  0  0  0  0  0  0  0
    7.8484   -7.0905   27.4464 H   0  0  0  0  0  0  0  0  0  0  0  0
    6.3761   -6.1442   27.6721 H   0  0  0  0  0  0  0  0  0  0  0  0
    7.6308   -4.0428   27.6404 H   0  0  0  0  0  0  0  0  0  0  0  0
    8.3917   -5.1316   28.7967 H   0  0  0  0  0  0  0  0  0  0  0  0
    6.6889   -6.9376   25.3006 H   0  0  0  0  0  0  0  0  0  0  0  0
    6.5516   -5.1860   25.4256 H   0  0  0  0  0  0  0  0  0  0  0  0
   10.0494   -3.9643   27.3413 H   0  0  0  0  0  0  0  0  0  0  0  0
   10.1432   -5.7258   27.1775 H   0  0  0  0  0  0  0  0  0  0  0  0
    9.1338   -6.7931   25.0863 H   0  0  0  0  0  0  0  0  0  0  0  0
    8.3657   -5.7262   23.8995 H   0  0  0  0  0  0  0  0  0  0  0  0
   11.6022    0.2720   22.2019 H   0  0  0  0  0  0  0  0  0  0  0  0
   11.4622    0.2902   23.9433 H   0  0  0  0  0  0  0  0  0  0  0  0
    8.9292    0.9747   23.5105 H   0  0  0  0  0  0  0  0  0  0  0  0
    8.2585   -1.5522   21.1129 H   0  0  0  0  0  0  0  0  0  0  0  0
  1  3  2  0  0  0  0
  1  8  1  0  0  0  0
  2  4  1  0  0  0  0
  2  8  2  0  0  0  0
  3 10  1  0  0  0  0
  4 10  2  0  0  0  0
  5  6  2  0  0  0  0
  5  9  1  0  0  0  0
  6 31  1  0  0  0  0
  7  9  2  0  0  0  0
  7 31  1  0  0  0  0
  8 24  1  0  0  0  0
  9 23  1  0  0  0  0
 10 28  1  0  0  0  0
 11 12  2  0  0  0  0
 11 13  1  0  0  0  0
 11 27  1  0  0  0  0
 12 25  1  0  0  0  0
 12 29  1  0  0  0  0
 13 14  2  0  0  0  0
 14 15  1  0  0  0  0
 15 16  2  0  0  0  0
 16 27  1  0  0  0  0
 17 24  1  6  0  0  0
 17 29  1  0  0  0  0
 17 30  2  0  0  0  0
 18 19  1  0  0  0  0
 18 20  1  0  0  0  0
 19 21  1  0  0  0  0
 20 22  1  0  0  0  0
 21 28  1  0  0  0  0
 22 28  1  0  0  0  0
 23 24  1  0  0  0  0
 25 26  2  0  0  0  0
 26 27  1  0  0  0  0
  1 32  1  0  0  0  0
  2 33  1  0  0  0  0
  3 34  1  0  0  0  0
  4 35  1  0  0  0  0
  5 36  1  0  0  0  0
  6 37  1  0  0  0  0
  7 38  1  0  0  0  0
 13 39  1  0  0  0  0
 14 40  1  0  0  0  0
 15 41  1  0  0  0  0
 16 42  1  0  0  0  0
 18 43  1  0  0  0  0
 18 44  1  0  0  0  0
 19 45  1  0  0  0  0
 19 46  1  0  0  0  0
 20 47  1  0  0  0  0
 20 48  1  0  0  0  0
 21 49  1  0  0  0  0
 21 50  1  0  0  0  0
 22 51  1  0  0  0  0
 22 52  1  0  0  0  0
 23 53  1  0  0  0  0
 23 54  1  0  0  0  0
 24 55  1  0  0  0  0
 29 56  1  0  0  0  0
M  END
> <clash_score>
0

> <docking_score>
-9.345861434936523

> <overlap_score>
0.930773138999939

$$$$
BENZO_261_2
  -OEChem-08232013453D

 59 63  0     1  0  0  0  0  0999 V2000
   11.4754    4.9665   23.0809 C   0  0  0  0  0  0  0  0  0  0  0  0
   12.5125    4.1581   22.6155 C   0  0  0  0  0  0  0  0  0  0  0  0
   10.2875    4.3882   23.5284 C   0  0  0  0  0  0  0  0  0  0  0  0
   12.3617    2.7716   22.5975 C   0  0  0  0  0  0  0  0  0  0  0  0
   10.1367    3.0017   23.5105 C   0  0  0  0  0  0  0  0  0  0  0  0
    9.0720   -1.1280   24.8640 C   0  0  0  0  0  0  0  0  0  0  0  0
    9.7200   -2.2600   22.8630 C   0  0  0  0  0  0  0  0  0  0  0  0
    8.9960   -2.3380   25.5320 C   0  0  0  0  0  0  0  0  0  0  0  0
    9.6730   -3.4710   23.5300 C   0  0  0  0  0  0  0  0  0  0  0  0
   11.1738    2.1933   23.0450 C   0  0  0  0  0  0  0  0  0  0  0  0
    9.3350   -1.0880   23.5010 C   0  0  0  0  0  0  0  0  0  0  0  0
    9.3070   -3.5340   24.8780 C   0  0  0  0  0  0  0  0  0  0  0  0
    6.1790    0.5730   19.9990 C   0  0  0  0  0  0  0  0  0  0  0  0
    7.3170   -0.1610   19.8550 C   0  0  0  0  0  0  0  0  0  0  0  0
    5.4210    0.9600   21.0930 C   0  0  0  0  0  0  0  0  0  0  0  0
    4.2750    1.7050   20.8490 C   0  0  0  0  0  0  0  0  0  0  0  0
    3.9160    2.0630   19.5520 C   0  0  0  0  0  0  0  0  0  0  0  0
    4.6890    1.6810   18.4640 C   0  0  0  0  0  0  0  0  0  0  0  0
    9.0420    0.3700   21.5280 C   0  0  0  0  0  0  0  0  0  0  0  0
    7.3637   -6.1365   27.1885 C   0  0  0  0  0  0  0  0  0  0  0  0
    8.1962   -4.9739   27.7340 C   0  0  0  0  0  0  0  0  0  0  0  0
    7.1943   -6.0395   25.6706 C   0  0  0  0  0  0  0  0  0  0  0  0
    9.5197   -4.8493   26.9795 C   0  0  0  0  0  0  0  0  0  0  0  0
    8.5443   -5.8838   24.9636 C   0  0  0  0  0  0  0  0  0  0  0  0
   11.0096    0.6909   23.0256 C   0  0  0  0  0  0  0  0  0  0  0  0
    9.4560    0.1560   22.8130 C   0  0  2  0  0  0  0  0  0  0  0  0
    7.6390   -0.2680   18.5410 N   0  0  0  0  0  0  0  0  0  0  0  0
    6.7580    0.3810   17.8350 N   0  0  0  0  0  0  0  0  0  0  0  0
    5.8300    0.9190   18.6970 N   0  0  0  0  0  0  0  0  0  0  0  0
    9.2563   -4.7385   25.5420 N   0  0  0  0  0  0  0  0  0  0  0  0
    8.1890   -0.7180   20.8700 N   0  0  0  0  0  0  0  0  0  0  0  0
    9.2690    1.4140   20.9380 O   0  0  0  0  0  0  0  0  0  0  0  0
   11.5935    6.0460   23.0961 H   0  0  0  0  0  0  0  0  0  0  0  0
   13.4379    4.6081   22.2680 H   0  0  0  0  0  0  0  0  0  0  0  0
    9.4802    5.0172   23.8919 H   0  0  0  0  0  0  0  0  0  0  0  0
   13.1750    2.1496   22.2330 H   0  0  0  0  0  0  0  0  0  0  0  0
    9.2076    2.5600   23.8610 H   0  0  0  0  0  0  0  0  0  0  0  0
    8.9214   -0.1986   25.4206 H   0  0  0  0  0  0  0  0  0  0  0  0
   10.0622   -2.2326   21.8251 H   0  0  0  0  0  0  0  0  0  0  0  0
    8.6882   -2.3542   26.5803 H   0  0  0  0  0  0  0  0  0  0  0  0
    9.9258   -4.3896   22.9914 H   0  0  0  0  0  0  0  0  0  0  0  0
    5.6855    0.7074   22.1002 H   0  0  0  0  0  0  0  0  0  0  0  0
    3.6634    2.0034   21.6926 H   0  0  0  0  0  0  0  0  0  0  0  0
    3.0111    2.6563   19.3629 H   0  0  0  0  0  0  0  0  0  0  0  0
    4.4370    1.9522   17.4626 H   0  0  0  0  0  0  0  0  0  0  0  0
    7.8484   -7.0905   27.4464 H   0  0  0  0  0  0  0  0  0  0  0  0
    6.3761   -6.1442   27.6721 H   0  0  0  0  0  0  0  0  0  0  0  0
    7.6308   -4.0428   27.6404 H   0  0  0  0  0  0  0  0  0  0  0  0
    8.3917   -5.1316   28.7967 H   0  0  0  0  0  0  0  0  0  0  0  0
    6.6889   -6.9376   25.3006 H   0  0  0  0  0  0  0  0  0  0  0  0
    6.5516   -5.1860   25.4256 H   0  0  0  0  0  0  0  0  0  0  0  0
   10.0494   -3.9643   27.3413 H   0  0  0  0  0  0  0  0  0  0  0  0
   10.1432   -5.7258   27.1775 H   0  0  0  0  0  0  0  0  0  0  0  0
    9.1338   -6.7931   25.0863 H   0  0  0  0  0  0  0  0  0  0  0  0
    8.3657   -5.7262   23.8995 H   0  0  0  0  0  0  0  0  0  0  0  0
   11.6022    0.2720   22.2019 H   0  0  0  0  0  0  0  0  0  0  0  0
   11.4622    0.2902   23.9433 H   0  0  0  0  0  0  0  0  0  0  0  0
    8.9292    0.9747   23.5105 H   0  0  0  0  0  0  0  0  0  0  0  0
    8.2585   -1.5522   21.1129 H   0  0  0  0  0  0  0  0  0  0  0  0
  1  2  1  0  0  0  0
  1  3  2  0  0  0  0
  2  4  2  0  0  0  0
  3  5  1  0  0  0  0
  4 10  1  0  0  0  0
  5 10  2  0  0  0  0
  6  8  2  0  0  0  0
  6 11  1  0  0  0  0
  7  9  1  0  0  0  0
  7 11  2  0  0  0  0
  8 12  1  0  0  0  0
  9 12  2  0  0  0  0
 10 25  1  0  0  0  0
 11 26  1  0  0  0  0
 12 30  1  0  0  0  0
 13 14  2  0  0  0  0
 13 15  1  0  0  0  0
 13 29  1  0  0  0  0
 14 27  1  0  0  0  0
 14 31  1  0  0  0  0
 15 16  2  0  0  0  0
 16 17  1  0  0  0  0
 17 18  2  0  0  0  0
 18 29  1  0  0  0  0
 19 26  1  6  0  0  0
 19 31  1  0  0  0  0
 19 32  2  0  0  0  0
 20 21  1  0  0  0  0
 20 22  1  0  0  0  0
 21 23  1  0  0  0  0
 22 24  1  0  0  0  0
 23 30  1  0  0  0  0
 24 30  1  0  0  0  0
 25 26  1  0  0  0  0
 27 28  2  0  0  0  0
 28 29  1  0  0  0  0
  1 33  1  0  0  0  0
  2 34  1  0  0  0  0
  3 35  1  0  0  0  0
  4 36  1  0  0  0  0
  5 37  1  0  0  0  0
  6 38  1  0  0  0  0
  7 39  1  0  0  0  0
  8 40  1  0  0  0  0
  9 41  1  0  0  0  0
 15 42  1  0  0  0  0
 16 43  1  0  0  0  0
 17 44  1  0  0  0  0
 18 45  1  0  0  0  0
 20 46  1  0  0  0  0
 20 47  1  0  0  0  0
 21 48  1  0  0  0  0
 21 49  1  0  0  0  0
 22 50  1  0  0  0  0
 22 51  1  0  0  0  0
 23 52  1  0  0  0  0
 23 53  1  0  0  0  0
 24 54  1  0  0  0  0
 24 55  1  0  0  0  0
 25 56  1  0  0  0  0
 25 57  1  0  0  0  0
 26 58  1  0  0  0  0
 31 59  1  0  0  0  0
M  END
> <clash_score>
0

> <docking_score>
-10.287853240966797

> <overlap_score>
0.9432650208473206

$$$$
BENZO_265_2
  -OEChem-08232013453D

 47 50  0     1  0  0  0  0  0999 V2000
    9.6170    5.4099   22.6808 C   0  0  0  0  0  0  0  0  0  0  0  0
    8.4752    5.0878   23.4143 C   0  0  0  0  0  0  0  0  0  0  0  0
   10.5182    4.4090   22.3177 C   0  0  0  0  0  0  0  0  0  0  0  0
    8.2345    3.7648   23.7849 C   0  0  0  0  0  0  0  0  0  0  0  0
   10.2775    3.0860   22.6883 C   0  0  0  0  0  0  0  0  0  0  0  0
    8.9960   -2.3380   25.5320 C   0  0  0  0  0  0  0  0  0  0  0  0
    9.6730   -3.4710   23.5300 C   0  0  0  0  0  0  0  0  0  0  0  0
    9.0720   -1.1280   24.8640 C   0  0  0  0  0  0  0  0  0  0  0  0
    9.7200   -2.2600   22.8630 C   0  0  0  0  0  0  0  0  0  0  0  0
    9.3070   -3.5340   24.8780 C   0  0  0  0  0  0  0  0  0  0  0  0
    9.1357    2.7638   23.4219 C   0  0  0  0  0  0  0  0  0  0  0  0
    9.3350   -1.0880   23.5010 C   0  0  0  0  0  0  0  0  0  0  0  0
    6.1790    0.5730   19.9990 C   0  0  0  0  0  0  0  0  0  0  0  0
    7.3170   -0.1610   19.8550 C   0  0  0  0  0  0  0  0  0  0  0  0
    5.4210    0.9600   21.0930 C   0  0  0  0  0  0  0  0  0  0  0  0
    4.2750    1.7050   20.8490 C   0  0  0  0  0  0  0  0  0  0  0  0
    3.9160    2.0630   19.5520 C   0  0  0  0  0  0  0  0  0  0  0  0
    4.6890    1.6810   18.4640 C   0  0  0  0  0  0  0  0  0  0  0  0
    9.0420    0.3700   21.5280 C   0  0  0  0  0  0  0  0  0  0  0  0
    9.2507   -4.8268   25.5895 C   0  0  0  0  0  0  0  0  0  0  0  0
    8.8757    1.3301   23.8233 C   0  0  0  0  0  0  0  0  0  0  0  0
    9.4560    0.1560   22.8130 C   0  0  2  0  0  0  0  0  0  0  0  0
    7.6390   -0.2680   18.5410 N   0  0  0  0  0  0  0  0  0  0  0  0
    6.7580    0.3810   17.8350 N   0  0  0  0  0  0  0  0  0  0  0  0
    5.8300    0.9190   18.6970 N   0  0  0  0  0  0  0  0  0  0  0  0
    8.1890   -0.7180   20.8700 N   0  0  0  0  0  0  0  0  0  0  0  0
    9.2690    1.4140   20.9380 O   0  0  0  0  0  0  0  0  0  0  0  0
    9.8035    6.4400   22.3912 H   0  0  0  0  0  0  0  0  0  0  0  0
    7.7728    5.8668   23.6961 H   0  0  0  0  0  0  0  0  0  0  0  0
   11.4067    4.6593   21.7457 H   0  0  0  0  0  0  0  0  0  0  0  0
    7.3424    3.5231   24.3565 H   0  0  0  0  0  0  0  0  0  0  0  0
   10.9853    2.3128   22.4011 H   0  0  0  0  0  0  0  0  0  0  0  0
    8.6904   -2.3557   26.5808 H   0  0  0  0  0  0  0  0  0  0  0  0
    9.9249   -4.3911   22.9935 H   0  0  0  0  0  0  0  0  0  0  0  0
    8.9209   -0.1987   25.4207 H   0  0  0  0  0  0  0  0  0  0  0  0
   10.0640   -2.2315   21.8255 H   0  0  0  0  0  0  0  0  0  0  0  0
    5.6855    0.7074   22.1002 H   0  0  0  0  0  0  0  0  0  0  0  0
    3.6634    2.0034   21.6926 H   0  0  0  0  0  0  0  0  0  0  0  0
    3.0111    2.6563   19.3629 H   0  0  0  0  0  0  0  0  0  0  0  0
    4.4370    1.9522   17.4626 H   0  0  0  0  0  0  0  0  0  0  0  0
    8.2506   -5.2684   25.5009 H   0  0  0  0  0  0  0  0  0  0  0  0
    9.9820   -5.5375   25.1832 H   0  0  0  0  0  0  0  0  0  0  0  0
    9.4843   -4.7055   26.6554 H   0  0  0  0  0  0  0  0  0  0  0  0
    9.2390    1.1684   24.8466 H   0  0  0  0  0  0  0  0  0  0  0  0
    7.7875    1.1860   23.8742 H   0  0  0  0  0  0  0  0  0  0  0  0
   10.6103    0.4565   22.8881 H   0  0  0  0  0  0  0  0  0  0  0  0
    8.2392   -1.5641   21.0954 H   0  0  0  0  0  0  0  0  0  0  0  0
  1  2  1  0  0  0  0
  1  3  2  0  0  0  0
  2  4  2  0  0  0  0
  3  5  1  0  0  0  0
  4 11  1  0  0  0  0
  5 11  2  0  0  0  0
  6  8  2  0  0  0  0
  6 10  1  0  0  0  0
  7  9  1  0  0  0  0
  7 10  2  0  0  0  0
  8 12  1  0  0  0  0
  9 12  2  0  0  0  0
 10 20  1  0  0  0  0
 11 21  1  0  0  0  0
 12 22  1  0  0  0  0
 13 14  2  0  0  0  0
 13 15  1  0  0  0  0
 13 25  1  0  0  0  0
 14 23  1  0  0  0  0
 14 26  1  0  0  0  0
 15 16  2  0  0  0  0
 16 17  1  0  0  0  0
 17 18  2  0  0  0  0
 18 25  1  0  0  0  0
 19 22  1  0  0  0  0
 19 26  1  0  0  0  0
 19 27  2  0  0  0  0
 21 22  1  6  0  0  0
 23 24  2  0  0  0  0
 24 25  1  0  0  0  0
  1 28  1  0  0  0  0
  2 29  1  0  0  0  0
  3 30  1  0  0  0  0
  4 31  1  0  0  0  0
  5 32  1  0  0  0  0
  6 33  1  0  0  0  0
  7 34  1  0  0  0  0
  8 35  1  0  0  0  0
  9 36  1  0  0  0  0
 15 37  1  0  0  0  0
 16 38  1  0  0  0  0
 17 39  1  0  0  0  0
 18 40  1  0  0  0  0
 20 41  1  0  0  0  0
 20 42  1  0  0  0  0
 20 43  1  0  0  0  0
 21 44  1  0  0  0  0
 21 45  1  0  0  0  0
 22 46  1  0  0  0  0
 26 47  1  0  0  0  0
M  END
> <clash_score>
0

> <docking_score>
-7.129365921020508

> <overlap_score>
0.8005932569503784

$$$$
BENZO_265_1
  -OEChem-08232013453D

 47 50  0     1  0  0  0  0  0999 V2000
   11.4726    4.9577   23.1210 C   0  0  0  0  0  0  0  0  0  0  0  0
   12.5103    4.1537   22.6496 C   0  0  0  0  0  0  0  0  0  0  0  0
   10.2847    4.3752   23.5633 C   0  0  0  0  0  0  0  0  0  0  0  0
   12.3602    2.7672   22.6203 C   0  0  0  0  0  0  0  0  0  0  0  0
   10.1346    2.9888   23.5339 C   0  0  0  0  0  0  0  0  0  0  0  0
    8.9960   -2.3380   25.5320 C   0  0  0  0  0  0  0  0  0  0  0  0
    9.6730   -3.4710   23.5300 C   0  0  0  0  0  0  0  0  0  0  0  0
    9.0720   -1.1280   24.8640 C   0  0  0  0  0  0  0  0  0  0  0  0
    9.7200   -2.2600   22.8630 C   0  0  0  0  0  0  0  0  0  0  0  0
    9.3070   -3.5340   24.8780 C   0  0  0  0  0  0  0  0  0  0  0  0
   11.1723    2.1848   23.0624 C   0  0  0  0  0  0  0  0  0  0  0  0
    9.3350   -1.0880   23.5010 C   0  0  0  0  0  0  0  0  0  0  0  0
    6.1790    0.5730   19.9990 C   0  0  0  0  0  0  0  0  0  0  0  0
    7.3170   -0.1610   19.8550 C   0  0  0  0  0  0  0  0  0  0  0  0
    5.4210    0.9600   21.0930 C   0  0  0  0  0  0  0  0  0  0  0  0
    4.2750    1.7050   20.8490 C   0  0  0  0  0  0  0  0  0  0  0  0
    3.9160    2.0630   19.5520 C   0  0  0  0  0  0  0  0  0  0  0  0
    4.6890    1.6810   18.4640 C   0  0  0  0  0  0  0  0  0  0  0  0
    9.0420    0.3700   21.5280 C   0  0  0  0  0  0  0  0  0  0  0  0
    9.2507   -4.8268   25.5895 C   0  0  0  0  0  0  0  0  0  0  0  0
   11.0089    0.6825   23.0307 C   0  0  0  0  0  0  0  0  0  0  0  0
    9.4560    0.1560   22.8130 C   0  0  1  0  0  0  0  0  0  0  0  0
    7.6390   -0.2680   18.5410 N   0  0  0  0  0  0  0  0  0  0  0  0
    6.7580    0.3810   17.8350 N   0  0  0  0  0  0  0  0  0  0  0  0
    5.8300    0.9190   18.6970 N   0  0  0  0  0  0  0  0  0  0  0  0
    8.1890   -0.7180   20.8700 N   0  0  0  0  0  0  0  0  0  0  0  0
    9.2690    1.4140   20.9380 O   0  0  0  0  0  0  0  0  0  0  0  0
   11.5901    6.0371   23.1451 H   0  0  0  0  0  0  0  0  0  0  0  0
   13.4357    4.6069   22.3063 H   0  0  0  0  0  0  0  0  0  0  0  0
    9.4770    5.0009   23.9314 H   0  0  0  0  0  0  0  0  0  0  0  0
   13.1740    2.1486   22.2511 H   0  0  0  0  0  0  0  0  0  0  0  0
    9.2056    2.5438   23.8803 H   0  0  0  0  0  0  0  0  0  0  0  0
    8.6904   -2.3557   26.5808 H   0  0  0  0  0  0  0  0  0  0  0  0
    9.9249   -4.3911   22.9935 H   0  0  0  0  0  0  0  0  0  0  0  0
    8.9209   -0.1987   25.4207 H   0  0  0  0  0  0  0  0  0  0  0  0
   10.0640   -2.2315   21.8255 H   0  0  0  0  0  0  0  0  0  0  0  0
    5.6855    0.7074   22.1002 H   0  0  0  0  0  0  0  0  0  0  0  0
    3.6634    2.0034   21.6926 H   0  0  0  0  0  0  0  0  0  0  0  0
    3.0111    2.6563   19.3629 H   0  0  0  0  0  0  0  0  0  0  0  0
    4.4370    1.9522   17.4626 H   0  0  0  0  0  0  0  0  0  0  0  0
    8.2506   -5.2684   25.5009 H   0  0  0  0  0  0  0  0  0  0  0  0
    9.9820   -5.5375   25.1832 H   0  0  0  0  0  0  0  0  0  0  0  0
    9.4843   -4.7055   26.6554 H   0  0  0  0  0  0  0  0  0  0  0  0
   11.6011    0.2707   22.2030 H   0  0  0  0  0  0  0  0  0  0  0  0
   11.4624    0.2744   23.9446 H   0  0  0  0  0  0  0  0  0  0  0  0
    8.9284    0.9668   23.5149 H   0  0  0  0  0  0  0  0  0  0  0  0
    8.2392   -1.5641   21.0954 H   0  0  0  0  0  0  0  0  0  0  0  0
  1  2  1  0  0  0  0
  1  3  2  0  0  0  0
  2  4  2  0  0  0  0
  3  5  1  0  0  0  0
  4 11  1  0  0  0  0
  5 11  2  0  0  0  0
  6  8  2  0  0  0  0
  6 10  1  0  0  0  0
  7  9  1  0  0  0  0
  7 10  2  0  0  0  0
  8 12  1  0  0  0  0
  9 12  2  0  0  0  0
 10 20  1  0  0  0  0
 11 21  1  0  0  0  0
 12 22  1  0  0  0  0
 13 14  2  0  0  0  0
 13 15  1  0  0  0  0
 13 25  1  0  0  0  0
 14 23  1  0  0  0  0
 14 26  1  0  0  0  0
 15 16  2  0  0  0  0
 16 17  1  0  0  0  0
 17 18  2  0  0  0  0
 18 25  1  0  0  0  0
 19 22  1  0  0  0  0
 19 26  1  0  0  0  0
 19 27  2  0  0  0  0
 21 22  1  1  0  0  0
 23 24  2  0  0  0  0
 24 25  1  0  0  0  0
  1 28  1  0  0  0  0
  2 29  1  0  0  0  0
  3 30  1  0  0  0  0
  4 31  1  0  0  0  0
  5 32  1  0  0  0  0
  6 33  1  0  0  0  0
  7 34  1  0  0  0  0
  8 35  1  0  0  0  0
  9 36  1  0  0  0  0
 15 37  1  0  0  0  0
 16 38  1  0  0  0  0
 17 39  1  0  0  0  0
 18 40  1  0  0  0  0
 20 41  1  0  0  0  0
 20 42  1  0  0  0  0
 20 43  1  0  0  0  0
 21 44  1  0  0  0  0
 21 45  1  0  0  0  0
 22 46  1  0  0  0  0
 26 47  1  0  0  0  0
M  END
> <clash_score>
0

> <docking_score>
-10.593718528747559

> <overlap_score>
0.8897681832313538

$$$$
BENZO_264_1
  -OEChem-08232013453D

 44 47  0     1  0  0  0  0  0999 V2000
    8.9960   -2.3380   25.5320 C   0  0  0  0  0  0  0  0  0  0  0  0
    9.6730   -3.4710   23.5300 C   0  0  0  0  0  0  0  0  0  0  0  0
    9.0720   -1.1280   24.8640 C   0  0  0  0  0  0  0  0  0  0  0  0
    9.7200   -2.2600   22.8630 C   0  0  0  0  0  0  0  0  0  0  0  0
   11.9789    2.9159   22.1431 C   0  0  0  0  0  0  0  0  0  0  0  0
   11.9531    4.2698   22.3953 C   0  0  0  0  0  0  0  0  0  0  0  0
   10.5610    3.0079   23.9825 C   0  0  0  0  0  0  0  0  0  0  0  0
    9.3070   -3.5340   24.8780 C   0  0  0  0  0  0  0  0  0  0  0  0
    9.3350   -1.0880   23.5010 C   0  0  0  0  0  0  0  0  0  0  0  0
   11.1723    2.1848   23.0624 C   0  0  0  0  0  0  0  0  0  0  0  0
    6.1790    0.5730   19.9990 C   0  0  0  0  0  0  0  0  0  0  0  0
    7.3170   -0.1610   19.8550 C   0  0  0  0  0  0  0  0  0  0  0  0
    5.4210    0.9600   21.0930 C   0  0  0  0  0  0  0  0  0  0  0  0
    4.2750    1.7050   20.8490 C   0  0  0  0  0  0  0  0  0  0  0  0
    3.9160    2.0630   19.5520 C   0  0  0  0  0  0  0  0  0  0  0  0
    4.6890    1.6810   18.4640 C   0  0  0  0  0  0  0  0  0  0  0  0
    9.0420    0.3700   21.5280 C   0  0  0  0  0  0  0  0  0  0  0  0
    9.2507   -4.8268   25.5895 C   0  0  0  0  0  0  0  0  0  0  0  0
   11.0089    0.6825   23.0307 C   0  0  0  0  0  0  0  0  0  0  0  0
    9.4560    0.1560   22.8130 C   0  0  1  0  0  0  0  0  0  0  0  0
    7.6390   -0.2680   18.5410 N   0  0  0  0  0  0  0  0  0  0  0  0
    6.7580    0.3810   17.8350 N   0  0  0  0  0  0  0  0  0  0  0  0
    5.8300    0.9190   18.6970 N   0  0  0  0  0  0  0  0  0  0  0  0
    8.1890   -0.7180   20.8700 N   0  0  0  0  0  0  0  0  0  0  0  0
    9.2690    1.4140   20.9380 O   0  0  0  0  0  0  0  0  0  0  0  0
   10.9597    4.6549   23.7359 S   0  0  0  0  0  0  0  0  0  0  0  0
    8.6904   -2.3557   26.5808 H   0  0  0  0  0  0  0  0  0  0  0  0
    9.9249   -4.3911   22.9935 H   0  0  0  0  0  0  0  0  0  0  0  0
    8.9209   -0.1987   25.4207 H   0  0  0  0  0  0  0  0  0  0  0  0
   10.0640   -2.2315   21.8255 H   0  0  0  0  0  0  0  0  0  0  0  0
   12.5509    2.4750   21.3365 H   0  0  0  0  0  0  0  0  0  0  0  0
   12.4707    5.0513   21.8570 H   0  0  0  0  0  0  0  0  0  0  0  0
    9.8997    2.7250   24.7898 H   0  0  0  0  0  0  0  0  0  0  0  0
    5.6855    0.7074   22.1002 H   0  0  0  0  0  0  0  0  0  0  0  0
    3.6634    2.0034   21.6926 H   0  0  0  0  0  0  0  0  0  0  0  0
    3.0111    2.6563   19.3629 H   0  0  0  0  0  0  0  0  0  0  0  0
    4.4370    1.9522   17.4626 H   0  0  0  0  0  0  0  0  0  0  0  0
    8.2506   -5.2684   25.5009 H   0  0  0  0  0  0  0  0  0  0  0  0
    9.9820   -5.5375   25.1832 H   0  0  0  0  0  0  0  0  0  0  0  0
    9.4843   -4.7055   26.6554 H   0  0  0  0  0  0  0  0  0  0  0  0
   11.6011    0.2707   22.2030 H   0  0  0  0  0  0  0  0  0  0  0  0
   11.4624    0.2744   23.9446 H   0  0  0  0  0  0  0  0  0  0  0  0
    8.9284    0.9668   23.5149 H   0  0  0  0  0  0  0  0  0  0  0  0
    8.2392   -1.5641   21.0954 H   0  0  0  0  0  0  0  0  0  0  0  0
  1  3  2  0  0  0  0
  1  8  1  0  0  0  0
  2  4  1  0  0  0  0
  2  8  2  0  0  0  0
  3  9  1  0  0  0  0
  4  9  2  0  0  0  0
  5  6  2  0  0  0  0
  5 10  1  0  0  0  0
  6 26  1  0  0  0  0
  7 10  2  0  0  0  0
  7 26  1  0  0  0  0
  8 18  1  0  0  0  0
  9 20  1  0  0  0  0
 10 19  1  0  0  0  0
 11 12  2  0  0  0  0
 11 13  1  0  0  0  0
 11 23  1  0  0  0  0
 12 21  1  0  0  0  0
 12 24  1  0  0  0  0
 13 14  2  0  0  0  0
 14 15  1  0  0  0  0
 15 16  2  0  0  0  0
 16 23  1  0  0  0  0
 17 20  1  0  0  0  0
 17 24  1  0  0  0  0
 17 25  2  0  0  0  0
 19 20  1  1  0  0  0
 21 22  2  0  0  0  0
 22 23  1  0  0  0  0
  1 27  1  0  0  0  0
  2 28  1  0  0  0  0
  3 29  1  0  0  0  0
  4 30  1  0  0  0  0
  5 31  1  0  0  0  0
  6 32  1  0  0  0  0
  7 33  1  0  0  0  0
 13 34  1  0  0  0  0
 14 35  1  0  0  0  0
 15 36  1  0  0  0  0
 16 37  1  0  0  0  0
 18 38  1  0  0  0  0
 18 39  1  0  0  0  0
 18 40  1  0  0  0  0
 19 41  1  0  0  0  0
 19 42  1  0  0  0  0
 20 43  1  0  0  0  0
 24 44  1  0  0  0  0
M  END
> <clash_score>
0

> <docking_score>
-9.635416030883789

> <overlap_score>
0.8769888281822205

$$$$
BENZO_264_2
  -OEChem-08232013453D

 44 47  0     1  0  0  0  0  0999 V2000
    8.9960   -2.3380   25.5320 C   0  0  0  0  0  0  0  0  0  0  0  0
    9.6730   -3.4710   23.5300 C   0  0  0  0  0  0  0  0  0  0  0  0
    9.0720   -1.1280   24.8640 C   0  0  0  0  0  0  0  0  0  0  0  0
    9.7200   -2.2600   22.8630 C   0  0  0  0  0  0  0  0  0  0  0  0
   10.3314    3.2065   22.7858 C   0  0  0  0  0  0  0  0  0  0  0  0
   10.3108    4.5599   22.5298 C   0  0  0  0  0  0  0  0  0  0  0  0
    8.2468    3.7959   23.6280 C   0  0  0  0  0  0  0  0  0  0  0  0
    9.3070   -3.5340   24.8780 C   0  0  0  0  0  0  0  0  0  0  0  0
    9.3350   -1.0880   23.5010 C   0  0  0  0  0  0  0  0  0  0  0  0
    9.1357    2.7638   23.4219 C   0  0  0  0  0  0  0  0  0  0  0  0
    6.1790    0.5730   19.9990 C   0  0  0  0  0  0  0  0  0  0  0  0
    7.3170   -0.1610   19.8550 C   0  0  0  0  0  0  0  0  0  0  0  0
    5.4210    0.9600   21.0930 C   0  0  0  0  0  0  0  0  0  0  0  0
    4.2750    1.7050   20.8490 C   0  0  0  0  0  0  0  0  0  0  0  0
    3.9160    2.0630   19.5520 C   0  0  0  0  0  0  0  0  0  0  0  0
    4.6890    1.6810   18.4640 C   0  0  0  0  0  0  0  0  0  0  0  0
    9.0420    0.3700   21.5280 C   0  0  0  0  0  0  0  0  0  0  0  0
    9.2507   -4.8268   25.5895 C   0  0  0  0  0  0  0  0  0  0  0  0
    8.8757    1.3301   23.8233 C   0  0  0  0  0  0  0  0  0  0  0  0
    9.4560    0.1560   22.8130 C   0  0  2  0  0  0  0  0  0  0  0  0
    7.6390   -0.2680   18.5410 N   0  0  0  0  0  0  0  0  0  0  0  0
    6.7580    0.3810   17.8350 N   0  0  0  0  0  0  0  0  0  0  0  0
    5.8300    0.9190   18.6970 N   0  0  0  0  0  0  0  0  0  0  0  0
    8.1890   -0.7180   20.8700 N   0  0  0  0  0  0  0  0  0  0  0  0
    9.2690    1.4140   20.9380 O   0  0  0  0  0  0  0  0  0  0  0  0
    8.8543    5.2911   23.0556 S   0  0  0  0  0  0  0  0  0  0  0  0
    8.6904   -2.3557   26.5808 H   0  0  0  0  0  0  0  0  0  0  0  0
    9.9249   -4.3911   22.9935 H   0  0  0  0  0  0  0  0  0  0  0  0
    8.9209   -0.1987   25.4207 H   0  0  0  0  0  0  0  0  0  0  0  0
   10.0640   -2.2315   21.8255 H   0  0  0  0  0  0  0  0  0  0  0  0
   11.1669    2.5681   22.5277 H   0  0  0  0  0  0  0  0  0  0  0  0
   11.0815    5.1544   22.0599 H   0  0  0  0  0  0  0  0  0  0  0  0
    7.2694    3.7480   24.0879 H   0  0  0  0  0  0  0  0  0  0  0  0
    5.6855    0.7074   22.1002 H   0  0  0  0  0  0  0  0  0  0  0  0
    3.6634    2.0034   21.6926 H   0  0  0  0  0  0  0  0  0  0  0  0
    3.0111    2.6563   19.3629 H   0  0  0  0  0  0  0  0  0  0  0  0
    4.4370    1.9522   17.4626 H   0  0  0  0  0  0  0  0  0  0  0  0
    8.2506   -5.2684   25.5009 H   0  0  0  0  0  0  0  0  0  0  0  0
    9.9820   -5.5375   25.1832 H   0  0  0  0  0  0  0  0  0  0  0  0
    9.4843   -4.7055   26.6554 H   0  0  0  0  0  0  0  0  0  0  0  0
    9.2390    1.1684   24.8466 H   0  0  0  0  0  0  0  0  0  0  0  0
    7.7875    1.1860   23.8742 H   0  0  0  0  0  0  0  0  0  0  0  0
   10.6103    0.4565   22.8881 H   0  0  0  0  0  0  0  0  0  0  0  0
    8.2392   -1.5641   21.0954 H   0  0  0  0  0  0  0  0  0  0  0  0
  1  3  2  0  0  0  0
  1  8  1  0  0  0  0
  2  4  1  0  0  0  0
  2  8  2  0  0  0  0
  3  9  1  0  0  0  0
  4  9  2  0  0  0  0
  5  6  2  0  0  0  0
  5 10  1  0  0  0  0
  6 26  1  0  0  0  0
  7 10  2  0  0  0  0
  7 26  1  0  0  0  0
  8 18  1  0  0  0  0
  9 20  1  0  0  0  0
 10 19  1  0  0  0  0
 11 12  2  0  0  0  0
 11 13  1  0  0  0  0
 11 23  1  0  0  0  0
 12 21  1  0  0  0  0
 12 24  1  0  0  0  0
 13 14  2  0  0  0  0
 14 15  1  0  0  0  0
 15 16  2  0  0  0  0
 16 23  1  0  0  0  0
 17 20  1  0  0  0  0
 17 24  1  0  0  0  0
 17 25  2  0  0  0  0
 19 20  1  6  0  0  0
 21 22  2  0  0  0  0
 22 23  1  0  0  0  0
  1 27  1  0  0  0  0
  2 28  1  0  0  0  0
  3 29  1  0  0  0  0
  4 30  1  0  0  0  0
  5 31  1  0  0  0  0
  6 32  1  0  0  0  0
  7 33  1  0  0  0  0
 13 34  1  0  0  0  0
 14 35  1  0  0  0  0
 15 36  1  0  0  0  0
 16 37  1  0  0  0  0
 18 38  1  0  0  0  0
 18 39  1  0  0  0  0
 18 40  1  0  0  0  0
 19 41  1  0  0  0  0
 19 42  1  0  0  0  0
 20 43  1  0  0  0  0
 24 44  1  0  0  0  0
M  END
> <clash_score>
0

> <docking_score>
-7.516485214233398

> <overlap_score>
0.800769567489624

$$$$
BENZO_263_2
  -OEChem-08232013453D

 59 63  0     1  0  0  0  0  0999 V2000
    9.0720   -1.1280   24.8640 C   0  0  0  0  0  0  0  0  0  0  0  0
    9.7200   -2.2600   22.8630 C   0  0  0  0  0  0  0  0  0  0  0  0
    8.9960   -2.3380   25.5320 C   0  0  0  0  0  0  0  0  0  0  0  0
    9.6730   -3.4710   23.5300 C   0  0  0  0  0  0  0  0  0  0  0  0
   10.2059    3.2838   22.6653 C   0  0  0  0  0  0  0  0  0  0  0  0
    8.3433    3.8704   23.6762 C   0  0  0  0  0  0  0  0  0  0  0  0
    9.3350   -1.0880   23.5010 C   0  0  0  0  0  0  0  0  0  0  0  0
    9.1243    2.7729   23.4075 C   0  0  0  0  0  0  0  0  0  0  0  0
    9.3070   -3.5340   24.8780 C   0  0  0  0  0  0  0  0  0  0  0  0
    6.1790    0.5730   19.9990 C   0  0  0  0  0  0  0  0  0  0  0  0
    7.3170   -0.1610   19.8550 C   0  0  0  0  0  0  0  0  0  0  0  0
    5.4210    0.9600   21.0930 C   0  0  0  0  0  0  0  0  0  0  0  0
    4.2750    1.7050   20.8490 C   0  0  0  0  0  0  0  0  0  0  0  0
    3.9160    2.0630   19.5520 C   0  0  0  0  0  0  0  0  0  0  0  0
    4.6890    1.6810   18.4640 C   0  0  0  0  0  0  0  0  0  0  0  0
    9.0420    0.3700   21.5280 C   0  0  0  0  0  0  0  0  0  0  0  0
    7.2237   -6.6201   26.3005 C   0  0  0  0  0  0  0  0  0  0  0  0
    7.4295   -5.3104   27.0650 C   0  0  0  0  0  0  0  0  0  0  0  0
    7.7218   -6.5099   24.8576 C   0  0  0  0  0  0  0  0  0  0  0  0
    8.8783   -4.8360   26.9547 C   0  0  0  0  0  0  0  0  0  0  0  0
    9.1653   -6.0007   24.7991 C   0  0  0  0  0  0  0  0  0  0  0  0
    8.5383    6.3046   23.1148 C   0  0  0  0  0  0  0  0  0  0  0  0
    8.8746    1.3393   23.8158 C   0  0  0  0  0  0  0  0  0  0  0  0
    9.4560    0.1560   22.8130 C   0  0  2  0  0  0  0  0  0  0  0  0
   10.1229    4.6032   22.4745 N   0  0  0  0  0  0  0  0  0  0  0  0
    7.6390   -0.2680   18.5410 N   0  0  0  0  0  0  0  0  0  0  0  0
    6.7580    0.3810   17.8350 N   0  0  0  0  0  0  0  0  0  0  0  0
    8.9797    4.9306   23.1006 N   0  0  0  0  0  0  0  0  0  0  0  0
    5.8300    0.9190   18.6970 N   0  0  0  0  0  0  0  0  0  0  0  0
    9.2563   -4.7385   25.5420 N   0  0  0  0  0  0  0  0  0  0  0  0
    8.1890   -0.7180   20.8700 N   0  0  0  0  0  0  0  0  0  0  0  0
    9.2690    1.4140   20.9380 O   0  0  0  0  0  0  0  0  0  0  0  0
    8.9214   -0.1986   25.4206 H   0  0  0  0  0  0  0  0  0  0  0  0
   10.0622   -2.2326   21.8251 H   0  0  0  0  0  0  0  0  0  0  0  0
    8.6882   -2.3542   26.5803 H   0  0  0  0  0  0  0  0  0  0  0  0
    9.9258   -4.3896   22.9914 H   0  0  0  0  0  0  0  0  0  0  0  0
   11.0518    2.7517   22.2537 H   0  0  0  0  0  0  0  0  0  0  0  0
    7.4115    3.9842   24.2133 H   0  0  0  0  0  0  0  0  0  0  0  0
    5.6855    0.7074   22.1002 H   0  0  0  0  0  0  0  0  0  0  0  0
    3.6634    2.0034   21.6926 H   0  0  0  0  0  0  0  0  0  0  0  0
    3.0111    2.6563   19.3629 H   0  0  0  0  0  0  0  0  0  0  0  0
    4.4370    1.9522   17.4626 H   0  0  0  0  0  0  0  0  0  0  0  0
    7.7561   -7.4351   26.8143 H   0  0  0  0  0  0  0  0  0  0  0  0
    6.1574   -6.8886   26.3051 H   0  0  0  0  0  0  0  0  0  0  0  0
    6.7603   -4.5438   26.6651 H   0  0  0  0  0  0  0  0  0  0  0  0
    7.1686   -5.4557   28.1153 H   0  0  0  0  0  0  0  0  0  0  0  0
    7.6596   -7.4899   24.3731 H   0  0  0  0  0  0  0  0  0  0  0  0
    7.0707   -5.8316   24.2940 H   0  0  0  0  0  0  0  0  0  0  0  0
    8.9682   -3.8625   27.4435 H   0  0  0  0  0  0  0  0  0  0  0  0
    9.5389   -5.5394   27.4694 H   0  0  0  0  0  0  0  0  0  0  0  0
    9.8375   -6.7414   25.2339 H   0  0  0  0  0  0  0  0  0  0  0  0
    9.4414   -5.8513   23.7549 H   0  0  0  0  0  0  0  0  0  0  0  0
    8.9640    6.7865   23.9989 H   0  0  0  0  0  0  0  0  0  0  0  0
    8.8793    6.8060   22.2046 H   0  0  0  0  0  0  0  0  0  0  0  0
    7.4457    6.3329   23.1513 H   0  0  0  0  0  0  0  0  0  0  0  0
    9.2322    1.1871   24.8426 H   0  0  0  0  0  0  0  0  0  0  0  0
    7.7874    1.1856   23.8601 H   0  0  0  0  0  0  0  0  0  0  0  0
   10.6111    0.4645   22.8838 H   0  0  0  0  0  0  0  0  0  0  0  0
    8.2585   -1.5522   21.1129 H   0  0  0  0  0  0  0  0  0  0  0  0
  1  3  2  0  0  0  0
  1  7  1  0  0  0  0
  2  4  1  0  0  0  0
  2  7  2  0  0  0  0
  3  9  1  0  0  0  0
  4  9  2  0  0  0  0
  5  8  1  0  0  0  0
  5 25  2  0  0  0  0
  6  8  2  0  0  0  0
  6 28  1  0  0  0  0
  7 24  1  0  0  0  0
  8 23  1  0  0  0  0
  9 30  1  0  0  0  0
 10 11  2  0  0  0  0
 10 12  1  0  0  0  0
 10 29  1  0  0  0  0
 11 26  1  0  0  0  0
 11 31  1  0  0  0  0
 12 13  2  0  0  0  0
 13 14  1  0  0  0  0
 14 15  2  0  0  0  0
 15 29  1  0  0  0  0
 16 24  1  0  0  0  0
 16 31  1  0  0  0  0
 16 32  2  0  0  0  0
 17 18  1  0  0  0  0
 17 19  1  0  0  0  0
 18 20  1  0  0  0  0
 19 21  1  0  0  0  0
 20 30  1  0  0  0  0
 21 30  1  0  0  0  0
 22 28  1  0  0  0  0
 23 24  1  6  0  0  0
 25 28  1  0  0  0  0
 26 27  2  0  0  0  0
 27 29  1  0  0  0  0
  1 33  1  0  0  0  0
  2 34  1  0  0  0  0
  3 35  1  0  0  0  0
  4 36  1  0  0  0  0
  5 37  1  0  0  0  0
  6 38  1  0  0  0  0
 12 39  1  0  0  0  0
 13 40  1  0  0  0  0
 14 41  1  0  0  0  0
 15 42  1  0  0  0  0
 17 43  1  0  0  0  0
 17 44  1  0  0  0  0
 18 45  1  0  0  0  0
 18 46  1  0  0  0  0
 19 47  1  0  0  0  0
 19 48  1  0  0  0  0
 20 49  1  0  0  0  0
 20 50  1  0  0  0  0
 21 51  1  0  0  0  0
 21 52  1  0  0  0  0
 22 53  1  0  0  0  0
 22 54  1  0  0  0  0
 22 55  1  0  0  0  0
 23 56  1  0  0  0  0
 23 57  1  0  0  0  0
 24 58  1  0  0  0  0
 31 59  1  0  0  0  0
M  END
> <clash_score>
0

> <docking_score>
-6.386719703674316

> <overlap_score>
0.8560754656791687

$$$$
BENZO_262_1
  -OEChem-08232013453D

 59 63  0     1  0  0  0  0  0999 V2000
    8.4482    5.0923   23.3954 C   0  0  0  0  0  0  0  0  0  0  0  0
    8.2178    3.7689   23.7708 C   0  0  0  0  0  0  0  0  0  0  0  0
    9.0720   -1.1280   24.8640 C   0  0  0  0  0  0  0  0  0  0  0  0
    9.7200   -2.2600   22.8630 C   0  0  0  0  0  0  0  0  0  0  0  0
    8.9960   -2.3380   25.5320 C   0  0  0  0  0  0  0  0  0  0  0  0
    9.6730   -3.4710   23.5300 C   0  0  0  0  0  0  0  0  0  0  0  0
    9.5851    5.4198   22.6564 C   0  0  0  0  0  0  0  0  0  0  0  0
   10.2612    3.1004   22.6687 C   0  0  0  0  0  0  0  0  0  0  0  0
    9.3350   -1.0880   23.5010 C   0  0  0  0  0  0  0  0  0  0  0  0
    9.1243    2.7729   23.4075 C   0  0  0  0  0  0  0  0  0  0  0  0
    9.3070   -3.5340   24.8780 C   0  0  0  0  0  0  0  0  0  0  0  0
   10.4916    4.4239   22.2931 C   0  0  0  0  0  0  0  0  0  0  0  0
    6.1790    0.5730   19.9990 C   0  0  0  0  0  0  0  0  0  0  0  0
    7.3170   -0.1610   19.8550 C   0  0  0  0  0  0  0  0  0  0  0  0
    5.4210    0.9600   21.0930 C   0  0  0  0  0  0  0  0  0  0  0  0
    4.2750    1.7050   20.8490 C   0  0  0  0  0  0  0  0  0  0  0  0
    3.9160    2.0630   19.5520 C   0  0  0  0  0  0  0  0  0  0  0  0
    4.6890    1.6810   18.4640 C   0  0  0  0  0  0  0  0  0  0  0  0
    9.0420    0.3700   21.5280 C   0  0  0  0  0  0  0  0  0  0  0  0
    7.2237   -6.6201   26.3005 C   0  0  0  0  0  0  0  0  0  0  0  0
    7.4295   -5.3104   27.0650 C   0  0  0  0  0  0  0  0  0  0  0  0
    7.7218   -6.5099   24.8576 C   0  0  0  0  0  0  0  0  0  0  0  0
    8.8783   -4.8360   26.9547 C   0  0  0  0  0  0  0  0  0  0  0  0
    9.1653   -6.0007   24.7991 C   0  0  0  0  0  0  0  0  0  0  0  0
    8.8746    1.3393   23.8158 C   0  0  0  0  0  0  0  0  0  0  0  0
    9.4560    0.1560   22.8130 C   0  0  1  0  0  0  0  0  0  0  0  0
    7.6390   -0.2680   18.5410 N   0  0  0  0  0  0  0  0  0  0  0  0
    6.7580    0.3810   17.8350 N   0  0  0  0  0  0  0  0  0  0  0  0
    5.8300    0.9190   18.6970 N   0  0  0  0  0  0  0  0  0  0  0  0
    9.2563   -4.7385   25.5420 N   0  0  0  0  0  0  0  0  0  0  0  0
    8.1890   -0.7180   20.8700 N   0  0  0  0  0  0  0  0  0  0  0  0
    9.2690    1.4140   20.9380 O   0  0  0  0  0  0  0  0  0  0  0  0
   11.8946    4.8288   21.3825 Cl  0  0  0  0  0  0  0  0  0  0  0  0
    7.7422    5.8676   23.6786 H   0  0  0  0  0  0  0  0  0  0  0  0
    7.3294    3.5228   24.3466 H   0  0  0  0  0  0  0  0  0  0  0  0
    8.9214   -0.1986   25.4206 H   0  0  0  0  0  0  0  0  0  0  0  0
   10.0622   -2.2326   21.8251 H   0  0  0  0  0  0  0  0  0  0  0  0
    8.6882   -2.3542   26.5803 H   0  0  0  0  0  0  0  0  0  0  0  0
    9.9258   -4.3896   22.9914 H   0  0  0  0  0  0  0  0  0  0  0  0
    9.7519    6.4556   22.3710 H   0  0  0  0  0  0  0  0  0  0  0  0
   10.9647    2.3202   22.3874 H   0  0  0  0  0  0  0  0  0  0  0  0
    5.6855    0.7074   22.1002 H   0  0  0  0  0  0  0  0  0  0  0  0
    3.6634    2.0034   21.6926 H   0  0  0  0  0  0  0  0  0  0  0  0
    3.0111    2.6563   19.3629 H   0  0  0  0  0  0  0  0  0  0  0  0
    4.4370    1.9522   17.4626 H   0  0  0  0  0  0  0  0  0  0  0  0
    7.7561   -7.4351   26.8143 H   0  0  0  0  0  0  0  0  0  0  0  0
    6.1574   -6.8886   26.3051 H   0  0  0  0  0  0  0  0  0  0  0  0
    6.7603   -4.5438   26.6651 H   0  0  0  0  0  0  0  0  0  0  0  0
    7.1686   -5.4557   28.1153 H   0  0  0  0  0  0  0  0  0  0  0  0
    7.6596   -7.4899   24.3731 H   0  0  0  0  0  0  0  0  0  0  0  0
    7.0707   -5.8316   24.2940 H   0  0  0  0  0  0  0  0  0  0  0  0
    8.9682   -3.8625   27.4435 H   0  0  0  0  0  0  0  0  0  0  0  0
    9.5389   -5.5394   27.4694 H   0  0  0  0  0  0  0  0  0  0  0  0
    9.8375   -6.7414   25.2339 H   0  0  0  0  0  0  0  0  0  0  0  0
    9.4414   -5.8513   23.7549 H   0  0  0  0  0  0  0  0  0  0  0  0
    9.2322    1.1871   24.8426 H   0  0  0  0  0  0  0  0  0  0  0  0
    7.7874    1.1856   23.8601 H   0  0  0  0  0  0  0  0  0  0  0  0
   10.6111    0.4645   22.8838 H   0  0  0  0  0  0  0  0  0  0  0  0
    8.2585   -1.5522   21.1129 H   0  0  0  0  0  0  0  0  0  0  0  0
  1  2  2  0  0  0  0
  1  7  1  0  0  0  0
  2 10  1  0  0  0  0
  3  5  2  0  0  0  0
  3  9  1  0  0  0  0
  4  6  1  0  0  0  0
  4  9  2  0  0  0  0
  5 11  1  0  0  0  0
  6 11  2  0  0  0  0
  7 12  2  0  0  0  0
  8 10  2  0  0  0  0
  8 12  1  0  0  0  0
  9 26  1  0  0  0  0
 10 25  1  0  0  0  0
 11 30  1  0  0  0  0
 12 33  1  0  0  0  0
 13 14  2  0  0  0  0
 13 15  1  0  0  0  0
 13 29  1  0  0  0  0
 14 27  1  0  0  0  0
 14 31  1  0  0  0  0
 15 16  2  0  0  0  0
 16 17  1  0  0  0  0
 17 18  2  0  0  0  0
 18 29  1  0  0  0  0
 19 26  1  1  0  0  0
 19 31  1  0  0  0  0
 19 32  2  0  0  0  0
 20 21  1  0  0  0  0
 20 22  1  0  0  0  0
 21 23  1  0  0  0  0
 22 24  1  0  0  0  0
 23 30  1  0  0  0  0
 24 30  1  0  0  0  0
 25 26  1  0  0  0  0
 27 28  2  0  0  0  0
 28 29  1  0  0  0  0
  1 34  1  0  0  0  0
  2 35  1  0  0  0  0
  3 36  1  0  0  0  0
  4 37  1  0  0  0  0
  5 38  1  0  0  0  0
  6 39  1  0  0  0  0
  7 40  1  0  0  0  0
  8 41  1  0  0  0  0
 15 42  1  0  0  0  0
 16 43  1  0  0  0  0
 17 44  1  0  0  0  0
 18 45  1  0  0  0  0
 20 46  1  0  0  0  0
 20 47  1  0  0  0  0
 21 48  1  0  0  0  0
 21 49  1  0  0  0  0
 22 50  1  0  0  0  0
 22 51  1  0  0  0  0
 23 52  1  0  0  0  0
 23 53  1  0  0  0  0
 24 54  1  0  0  0  0
 24 55  1  0  0  0  0
 25 56  1  0  0  0  0
 25 57  1  0  0  0  0
 26 58  1  0  0  0  0
 31 59  1  0  0  0  0
M  END
> <clash_score>
0

> <docking_score>
-6.0046586990356445

> <overlap_score>
0.8607004880905151

$$$$
BENZO_263_1
  -OEChem-08232013453D

 59 63  0     1  0  0  0  0  0999 V2000
    9.0720   -1.1280   24.8640 C   0  0  0  0  0  0  0  0  0  0  0  0
    9.7200   -2.2600   22.8630 C   0  0  0  0  0  0  0  0  0  0  0  0
    8.9960   -2.3380   25.5320 C   0  0  0  0  0  0  0  0  0  0  0  0
    9.6730   -3.4710   23.5300 C   0  0  0  0  0  0  0  0  0  0  0  0
   10.2449    3.1582   23.4786 C   0  0  0  0  0  0  0  0  0  0  0  0
   12.2661    2.9236   22.6451 C   0  0  0  0  0  0  0  0  0  0  0  0
    9.3350   -1.0880   23.5010 C   0  0  0  0  0  0  0  0  0  0  0  0
   11.1738    2.1933   23.0450 C   0  0  0  0  0  0  0  0  0  0  0  0
    9.3070   -3.5340   24.8780 C   0  0  0  0  0  0  0  0  0  0  0  0
    6.1790    0.5730   19.9990 C   0  0  0  0  0  0  0  0  0  0  0  0
    7.3170   -0.1610   19.8550 C   0  0  0  0  0  0  0  0  0  0  0  0
    5.4210    0.9600   21.0930 C   0  0  0  0  0  0  0  0  0  0  0  0
    4.2750    1.7050   20.8490 C   0  0  0  0  0  0  0  0  0  0  0  0
    3.9160    2.0630   19.5520 C   0  0  0  0  0  0  0  0  0  0  0  0
    4.6890    1.6810   18.4640 C   0  0  0  0  0  0  0  0  0  0  0  0
    9.0420    0.3700   21.5280 C   0  0  0  0  0  0  0  0  0  0  0  0
    7.3637   -6.1365   27.1885 C   0  0  0  0  0  0  0  0  0  0  0  0
    8.1962   -4.9739   27.7340 C   0  0  0  0  0  0  0  0  0  0  0  0
    7.1943   -6.0395   25.6706 C   0  0  0  0  0  0  0  0  0  0  0  0
    9.5197   -4.8493   26.9795 C   0  0  0  0  0  0  0  0  0  0  0  0
    8.5443   -5.8838   24.9636 C   0  0  0  0  0  0  0  0  0  0  0  0
   12.7722    5.3769   22.5852 C   0  0  0  0  0  0  0  0  0  0  0  0
   11.0096    0.6909   23.0256 C   0  0  0  0  0  0  0  0  0  0  0  0
    9.4560    0.1560   22.8130 C   0  0  1  0  0  0  0  0  0  0  0  0
   10.7069    4.4063   23.3651 N   0  0  0  0  0  0  0  0  0  0  0  0
    7.6390   -0.2680   18.5410 N   0  0  0  0  0  0  0  0  0  0  0  0
    6.7580    0.3810   17.8350 N   0  0  0  0  0  0  0  0  0  0  0  0
   11.9381    4.2306   22.8556 N   0  0  0  0  0  0  0  0  0  0  0  0
    5.8300    0.9190   18.6970 N   0  0  0  0  0  0  0  0  0  0  0  0
    9.2563   -4.7385   25.5420 N   0  0  0  0  0  0  0  0  0  0  0  0
    8.1890   -0.7180   20.8700 N   0  0  0  0  0  0  0  0  0  0  0  0
    9.2690    1.4140   20.9380 O   0  0  0  0  0  0  0  0  0  0  0  0
    8.9214   -0.1986   25.4206 H   0  0  0  0  0  0  0  0  0  0  0  0
   10.0622   -2.2326   21.8251 H   0  0  0  0  0  0  0  0  0  0  0  0
    8.6882   -2.3542   26.5803 H   0  0  0  0  0  0  0  0  0  0  0  0
    9.9258   -4.3896   22.9914 H   0  0  0  0  0  0  0  0  0  0  0  0
    9.2505    3.0064   23.8739 H   0  0  0  0  0  0  0  0  0  0  0  0
   13.2256    2.6317   22.2400 H   0  0  0  0  0  0  0  0  0  0  0  0
    5.6855    0.7074   22.1002 H   0  0  0  0  0  0  0  0  0  0  0  0
    3.6634    2.0034   21.6926 H   0  0  0  0  0  0  0  0  0  0  0  0
    3.0111    2.6563   19.3629 H   0  0  0  0  0  0  0  0  0  0  0  0
    4.4370    1.9522   17.4626 H   0  0  0  0  0  0  0  0  0  0  0  0
    7.8484   -7.0905   27.4464 H   0  0  0  0  0  0  0  0  0  0  0  0
    6.3761   -6.1442   27.6721 H   0  0  0  0  0  0  0  0  0  0  0  0
    7.6308   -4.0428   27.6404 H   0  0  0  0  0  0  0  0  0  0  0  0
    8.3917   -5.1316   28.7967 H   0  0  0  0  0  0  0  0  0  0  0  0
    6.6889   -6.9376   25.3006 H   0  0  0  0  0  0  0  0  0  0  0  0
    6.5516   -5.1860   25.4256 H   0  0  0  0  0  0  0  0  0  0  0  0
   10.0494   -3.9643   27.3413 H   0  0  0  0  0  0  0  0  0  0  0  0
   10.1432   -5.7258   27.1775 H   0  0  0  0  0  0  0  0  0  0  0  0
    9.1338   -6.7931   25.0863 H   0  0  0  0  0  0  0  0  0  0  0  0
    8.3657   -5.7262   23.8995 H   0  0  0  0  0  0  0  0  0  0  0  0
   12.5768    5.7019   21.5598 H   0  0  0  0  0  0  0  0  0  0  0  0
   12.5325    6.1764   23.2918 H   0  0  0  0  0  0  0  0  0  0  0  0
   13.8223    5.0961   22.7049 H   0  0  0  0  0  0  0  0  0  0  0  0
   11.6022    0.2720   22.2019 H   0  0  0  0  0  0  0  0  0  0  0  0
   11.4622    0.2902   23.9433 H   0  0  0  0  0  0  0  0  0  0  0  0
    8.9292    0.9747   23.5105 H   0  0  0  0  0  0  0  0  0  0  0  0
    8.2585   -1.5522   21.1129 H   0  0  0  0  0  0  0  0  0  0  0  0
  1  3  2  0  0  0  0
  1  7  1  0  0  0  0
  2  4  1  0  0  0  0
  2  7  2  0  0  0  0
  3  9  1  0  0  0  0
  4  9  2  0  0  0  0
  5  8  1  0  0  0  0
  5 25  2  0  0  0  0
  6  8  2  0  0  0  0
  6 28  1  0  0  0  0
  7 24  1  0  0  0  0
  8 23  1  0  0  0  0
  9 30  1  0  0  0  0
 10 11  2  0  0  0  0
 10 12  1  0  0  0  0
 10 29  1  0  0  0  0
 11 26  1  0  0  0  0
 11 31  1  0  0  0  0
 12 13  2  0  0  0  0
 13 14  1  0  0  0  0
 14 15  2  0  0  0  0
 15 29  1  0  0  0  0
 16 24  1  0  0  0  0
 16 31  1  0  0  0  0
 16 32  2  0  0  0  0
 17 18  1  0  0  0  0
 17 19  1  0  0  0  0
 18 20  1  0  0  0  0
 19 21  1  0  0  0  0
 20 30  1  0  0  0  0
 21 30  1  0  0  0  0
 22 28  1  0  0  0  0
 23 24  1  1  0  0  0
 25 28  1  0  0  0  0
 26 27  2  0  0  0  0
 27 29  1  0  0  0  0
  1 33  1  0  0  0  0
  2 34  1  0  0  0  0
  3 35  1  0  0  0  0
  4 36  1  0  0  0  0
  5 37  1  0  0  0  0
  6 38  1  0  0  0  0
 12 39  1  0  0  0  0
 13 40  1  0  0  0  0
 14 41  1  0  0  0  0
 15 42  1  0  0  0  0
 17 43  1  0  0  0  0
 17 44  1  0  0  0  0
 18 45  1  0  0  0  0
 18 46  1  0  0  0  0
 19 47  1  0  0  0  0
 19 48  1  0  0  0  0
 20 49  1  0  0  0  0
 20 50  1  0  0  0  0
 21 51  1  0  0  0  0
 21 52  1  0  0  0  0
 22 53  1  0  0  0  0
 22 54  1  0  0  0  0
 22 55  1  0  0  0  0
 23 56  1  0  0  0  0
 23 57  1  0  0  0  0
 24 58  1  0  0  0  0
 31 59  1  0  0  0  0
M  END
> <clash_score>
0

> <docking_score>
-10.190938949584961

> <overlap_score>
0.9394319653511047

$$$$
BENZO_262_2
  -OEChem-08232013453D

 59 63  0     1  0  0  0  0  0999 V2000
   10.2883    4.3880   23.5308 C   0  0  0  0  0  0  0  0  0  0  0  0
   10.1370    3.0016   23.5115 C   0  0  0  0  0  0  0  0  0  0  0  0
    9.0720   -1.1280   24.8640 C   0  0  0  0  0  0  0  0  0  0  0  0
    9.7200   -2.2600   22.8630 C   0  0  0  0  0  0  0  0  0  0  0  0
    8.9960   -2.3380   25.5320 C   0  0  0  0  0  0  0  0  0  0  0  0
    9.6730   -3.4710   23.5300 C   0  0  0  0  0  0  0  0  0  0  0  0
   11.4763    4.9663   23.0834 C   0  0  0  0  0  0  0  0  0  0  0  0
   12.3618    2.7715   22.5978 C   0  0  0  0  0  0  0  0  0  0  0  0
    9.3350   -1.0880   23.5010 C   0  0  0  0  0  0  0  0  0  0  0  0
   11.1738    2.1933   23.0450 C   0  0  0  0  0  0  0  0  0  0  0  0
    9.3070   -3.5340   24.8780 C   0  0  0  0  0  0  0  0  0  0  0  0
   12.5130    4.1581   22.6170 C   0  0  0  0  0  0  0  0  0  0  0  0
    6.1790    0.5730   19.9990 C   0  0  0  0  0  0  0  0  0  0  0  0
    7.3170   -0.1610   19.8550 C   0  0  0  0  0  0  0  0  0  0  0  0
    5.4210    0.9600   21.0930 C   0  0  0  0  0  0  0  0  0  0  0  0
    4.2750    1.7050   20.8490 C   0  0  0  0  0  0  0  0  0  0  0  0
    3.9160    2.0630   19.5520 C   0  0  0  0  0  0  0  0  0  0  0  0
    4.6890    1.6810   18.4640 C   0  0  0  0  0  0  0  0  0  0  0  0
    9.0420    0.3700   21.5280 C   0  0  0  0  0  0  0  0  0  0  0  0
    7.3637   -6.1365   27.1885 C   0  0  0  0  0  0  0  0  0  0  0  0
    8.1962   -4.9739   27.7340 C   0  0  0  0  0  0  0  0  0  0  0  0
    7.1943   -6.0395   25.6706 C   0  0  0  0  0  0  0  0  0  0  0  0
    9.5197   -4.8493   26.9795 C   0  0  0  0  0  0  0  0  0  0  0  0
    8.5443   -5.8838   24.9636 C   0  0  0  0  0  0  0  0  0  0  0  0
   11.0096    0.6909   23.0256 C   0  0  0  0  0  0  0  0  0  0  0  0
    9.4560    0.1560   22.8130 C   0  0  2  0  0  0  0  0  0  0  0  0
    7.6390   -0.2680   18.5410 N   0  0  0  0  0  0  0  0  0  0  0  0
    6.7580    0.3810   17.8350 N   0  0  0  0  0  0  0  0  0  0  0  0
    5.8300    0.9190   18.6970 N   0  0  0  0  0  0  0  0  0  0  0  0
    9.2563   -4.7385   25.5420 N   0  0  0  0  0  0  0  0  0  0  0  0
    8.1890   -0.7180   20.8700 N   0  0  0  0  0  0  0  0  0  0  0  0
    9.2690    1.4140   20.9380 O   0  0  0  0  0  0  0  0  0  0  0  0
   13.9789    4.8720   22.0663 Cl  0  0  0  0  0  0  0  0  0  0  0  0
    9.4808    5.0171   23.8942 H   0  0  0  0  0  0  0  0  0  0  0  0
    9.2080    2.5596   23.8620 H   0  0  0  0  0  0  0  0  0  0  0  0
    8.9214   -0.1986   25.4206 H   0  0  0  0  0  0  0  0  0  0  0  0
   10.0622   -2.2326   21.8251 H   0  0  0  0  0  0  0  0  0  0  0  0
    8.6882   -2.3542   26.5803 H   0  0  0  0  0  0  0  0  0  0  0  0
    9.9258   -4.3896   22.9914 H   0  0  0  0  0  0  0  0  0  0  0  0
   11.5802    6.0484   23.1045 H   0  0  0  0  0  0  0  0  0  0  0  0
   13.1669    2.1371   22.2345 H   0  0  0  0  0  0  0  0  0  0  0  0
    5.6855    0.7074   22.1002 H   0  0  0  0  0  0  0  0  0  0  0  0
    3.6634    2.0034   21.6926 H   0  0  0  0  0  0  0  0  0  0  0  0
    3.0111    2.6563   19.3629 H   0  0  0  0  0  0  0  0  0  0  0  0
    4.4370    1.9522   17.4626 H   0  0  0  0  0  0  0  0  0  0  0  0
    7.8484   -7.0905   27.4464 H   0  0  0  0  0  0  0  0  0  0  0  0
    6.3761   -6.1442   27.6721 H   0  0  0  0  0  0  0  0  0  0  0  0
    7.6308   -4.0428   27.6404 H   0  0  0  0  0  0  0  0  0  0  0  0
    8.3917   -5.1316   28.7967 H   0  0  0  0  0  0  0  0  0  0  0  0
    6.6889   -6.9376   25.3006 H   0  0  0  0  0  0  0  0  0  0  0  0
    6.5516   -5.1860   25.4256 H   0  0  0  0  0  0  0  0  0  0  0  0
   10.0494   -3.9643   27.3413 H   0  0  0  0  0  0  0  0  0  0  0  0
   10.1432   -5.7258   27.1775 H   0  0  0  0  0  0  0  0  0  0  0  0
    9.1338   -6.7931   25.0863 H   0  0  0  0  0  0  0  0  0  0  0  0
    8.3657   -5.7262   23.8995 H   0  0  0  0  0  0  0  0  0  0  0  0
   11.6022    0.2720   22.2019 H   0  0  0  0  0  0  0  0  0  0  0  0
   11.4622    0.2902   23.9433 H   0  0  0  0  0  0  0  0  0  0  0  0
    8.9292    0.9747   23.5105 H   0  0  0  0  0  0  0  0  0  0  0  0
    8.2585   -1.5522   21.1129 H   0  0  0  0  0  0  0  0  0  0  0  0
  1  2  2  0  0  0  0
  1  7  1  0  0  0  0
  2 10  1  0  0  0  0
  3  5  2  0  0  0  0
  3  9  1  0  0  0  0
  4  6  1  0  0  0  0
  4  9  2  0  0  0  0
  5 11  1  0  0  0  0
  6 11  2  0  0  0  0
  7 12  2  0  0  0  0
  8 10  2  0  0  0  0
  8 12  1  0  0  0  0
  9 26  1  0  0  0  0
 10 25  1  0  0  0  0
 11 30  1  0  0  0  0
 12 33  1  0  0  0  0
 13 14  2  0  0  0  0
 13 15  1  0  0  0  0
 13 29  1  0  0  0  0
 14 27  1  0  0  0  0
 14 31  1  0  0  0  0
 15 16  2  0  0  0  0
 16 17  1  0  0  0  0
 17 18  2  0  0  0  0
 18 29  1  0  0  0  0
 19 26  1  6  0  0  0
 19 31  1  0  0  0  0
 19 32  2  0  0  0  0
 20 21  1  0  0  0  0
 20 22  1  0  0  0  0
 21 23  1  0  0  0  0
 22 24  1  0  0  0  0
 23 30  1  0  0  0  0
 24 30  1  0  0  0  0
 25 26  1  0  0  0  0
 27 28  2  0  0  0  0
 28 29  1  0  0  0  0
  1 34  1  0  0  0  0
  2 35  1  0  0  0  0
  3 36  1  0  0  0  0
  4 37  1  0  0  0  0
  5 38  1  0  0  0  0
  6 39  1  0  0  0  0
  7 40  1  0  0  0  0
  8 41  1  0  0  0  0
 15 42  1  0  0  0  0
 16 43  1  0  0  0  0
 17 44  1  0  0  0  0
 18 45  1  0  0  0  0
 20 46  1  0  0  0  0
 20 47  1  0  0  0  0
 21 48  1  0  0  0  0
 21 49  1  0  0  0  0
 22 50  1  0  0  0  0
 22 51  1  0  0  0  0
 23 52  1  0  0  0  0
 23 53  1  0  0  0  0
 24 54  1  0  0  0  0
 24 55  1  0  0  0  0
 25 56  1  0  0  0  0
 25 57  1  0  0  0  0
 26 58  1  0  0  0  0
 31 59  1  0  0  0  0
M  END
> <clash_score>
0

> <docking_score>
-10.716784477233887

> <overlap_score>
0.9441561102867126

$$$$
BENZO_267_1
  -OEChem-08232013453D

 47 50  0     1  0  0  0  0  0999 V2000
    8.9960   -2.3380   25.5320 C   0  0  0  0  0  0  0  0  0  0  0  0
    9.6730   -3.4710   23.5300 C   0  0  0  0  0  0  0  0  0  0  0  0
    9.0720   -1.1280   24.8640 C   0  0  0  0  0  0  0  0  0  0  0  0
    9.7200   -2.2600   22.8630 C   0  0  0  0  0  0  0  0  0  0  0  0
   10.2428    3.1457   23.5034 C   0  0  0  0  0  0  0  0  0  0  0  0
   12.2645    2.9188   22.6690 C   0  0  0  0  0  0  0  0  0  0  0  0
    9.3070   -3.5340   24.8780 C   0  0  0  0  0  0  0  0  0  0  0  0
    9.3350   -1.0880   23.5010 C   0  0  0  0  0  0  0  0  0  0  0  0
   11.1723    2.1848   23.0624 C   0  0  0  0  0  0  0  0  0  0  0  0
    6.1790    0.5730   19.9990 C   0  0  0  0  0  0  0  0  0  0  0  0
    7.3170   -0.1610   19.8550 C   0  0  0  0  0  0  0  0  0  0  0  0
    5.4210    0.9600   21.0930 C   0  0  0  0  0  0  0  0  0  0  0  0
    4.2750    1.7050   20.8490 C   0  0  0  0  0  0  0  0  0  0  0  0
    3.9160    2.0630   19.5520 C   0  0  0  0  0  0  0  0  0  0  0  0
    4.6890    1.6810   18.4640 C   0  0  0  0  0  0  0  0  0  0  0  0
    9.0420    0.3700   21.5280 C   0  0  0  0  0  0  0  0  0  0  0  0
    9.2507   -4.8268   25.5895 C   0  0  0  0  0  0  0  0  0  0  0  0
   12.7694    5.3728   22.6293 C   0  0  0  0  0  0  0  0  0  0  0  0
   11.0089    0.6825   23.0307 C   0  0  0  0  0  0  0  0  0  0  0  0
    9.4560    0.1560   22.8130 C   0  0  1  0  0  0  0  0  0  0  0  0
   10.7043    4.3948   23.4002 N   0  0  0  0  0  0  0  0  0  0  0  0
    7.6390   -0.2680   18.5410 N   0  0  0  0  0  0  0  0  0  0  0  0
    6.7580    0.3810   17.8350 N   0  0  0  0  0  0  0  0  0  0  0  0
   11.9358    4.2239   22.8900 N   0  0  0  0  0  0  0  0  0  0  0  0
    5.8300    0.9190   18.6970 N   0  0  0  0  0  0  0  0  0  0  0  0
    8.1890   -0.7180   20.8700 N   0  0  0  0  0  0  0  0  0  0  0  0
    9.2690    1.4140   20.9380 O   0  0  0  0  0  0  0  0  0  0  0  0
    8.6904   -2.3557   26.5808 H   0  0  0  0  0  0  0  0  0  0  0  0
    9.9249   -4.3911   22.9935 H   0  0  0  0  0  0  0  0  0  0  0  0
    8.9209   -0.1987   25.4207 H   0  0  0  0  0  0  0  0  0  0  0  0
   10.0640   -2.2315   21.8255 H   0  0  0  0  0  0  0  0  0  0  0  0
    9.2482    2.9901   23.8969 H   0  0  0  0  0  0  0  0  0  0  0  0
   13.2243    2.6307   22.2620 H   0  0  0  0  0  0  0  0  0  0  0  0
    5.6855    0.7074   22.1002 H   0  0  0  0  0  0  0  0  0  0  0  0
    3.6634    2.0034   21.6926 H   0  0  0  0  0  0  0  0  0  0  0  0
    3.0111    2.6563   19.3629 H   0  0  0  0  0  0  0  0  0  0  0  0
    4.4370    1.9522   17.4626 H   0  0  0  0  0  0  0  0  0  0  0  0
    8.2506   -5.2684   25.5009 H   0  0  0  0  0  0  0  0  0  0  0  0
    9.9820   -5.5375   25.1832 H   0  0  0  0  0  0  0  0  0  0  0  0
    9.4843   -4.7055   26.6554 H   0  0  0  0  0  0  0  0  0  0  0  0
   12.5744    5.7060   21.6066 H   0  0  0  0  0  0  0  0  0  0  0  0
   12.5290    6.1664   23.3423 H   0  0  0  0  0  0  0  0  0  0  0  0
   13.8196    5.0915   22.7473 H   0  0  0  0  0  0  0  0  0  0  0  0
   11.6011    0.2707   22.2030 H   0  0  0  0  0  0  0  0  0  0  0  0
   11.4624    0.2744   23.9446 H   0  0  0  0  0  0  0  0  0  0  0  0
    8.9284    0.9668   23.5149 H   0  0  0  0  0  0  0  0  0  0  0  0
    8.2392   -1.5641   21.0954 H   0  0  0  0  0  0  0  0  0  0  0  0
  1  3  2  0  0  0  0
  1  7  1  0  0  0  0
  2  4  1  0  0  0  0
  2  7  2  0  0  0  0
  3  8  1  0  0  0  0
  4  8  2  0  0  0  0
  5  9  1  0  0  0  0
  5 21  2  0  0  0  0
  6  9  2  0  0  0  0
  6 24  1  0  0  0  0
  7 17  1  0  0  0  0
  8 20  1  0  0  0  0
  9 19  1  0  0  0  0
 10 11  2  0  0  0  0
 10 12  1  0  0  0  0
 10 25  1  0  0  0  0
 11 22  1  0  0  0  0
 11 26  1  0  0  0  0
 12 13  2  0  0  0  0
 13 14  1  0  0  0  0
 14 15  2  0  0  0  0
 15 25  1  0  0  0  0
 16 20  1  0  0  0  0
 16 26  1  0  0  0  0
 16 27  2  0  0  0  0
 18 24  1  0  0  0  0
 19 20  1  1  0  0  0
 21 24  1  0  0  0  0
 22 23  2  0  0  0  0
 23 25  1  0  0  0  0
  1 28  1  0  0  0  0
  2 29  1  0  0  0  0
  3 30  1  0  0  0  0
  4 31  1  0  0  0  0
  5 32  1  0  0  0  0
  6 33  1  0  0  0  0
 12 34  1  0  0  0  0
 13 35  1  0  0  0  0
 14 36  1  0  0  0  0
 15 37  1  0  0  0  0
 17 38  1  0  0  0  0
 17 39  1  0  0  0  0
 17 40  1  0  0  0  0
 18 41  1  0  0  0  0
 18 42  1  0  0  0  0
 18 43  1  0  0  0  0
 19 44  1  0  0  0  0
 19 45  1  0  0  0  0
 20 46  1  0  0  0  0
 26 47  1  0  0  0  0
M  END
> <clash_score>
0

> <docking_score>
-10.49985122680664

> <overlap_score>
0.8858461380004883

$$$$
BENZO_267_2
  -OEChem-08232013453D

 47 50  0     1  0  0  0  0  0999 V2000
    8.9960   -2.3380   25.5320 C   0  0  0  0  0  0  0  0  0  0  0  0
    9.6730   -3.4710   23.5300 C   0  0  0  0  0  0  0  0  0  0  0  0
    9.0720   -1.1280   24.8640 C   0  0  0  0  0  0  0  0  0  0  0  0
    9.7200   -2.2600   22.8630 C   0  0  0  0  0  0  0  0  0  0  0  0
    8.3456    3.8954   23.6994 C   0  0  0  0  0  0  0  0  0  0  0  0
   10.1996    3.2552   22.7054 C   0  0  0  0  0  0  0  0  0  0  0  0
    9.3070   -3.5340   24.8780 C   0  0  0  0  0  0  0  0  0  0  0  0
    9.3350   -1.0880   23.5010 C   0  0  0  0  0  0  0  0  0  0  0  0
    9.1357    2.7638   23.4219 C   0  0  0  0  0  0  0  0  0  0  0  0
    6.1790    0.5730   19.9990 C   0  0  0  0  0  0  0  0  0  0  0  0
    7.3170   -0.1610   19.8550 C   0  0  0  0  0  0  0  0  0  0  0  0
    5.4210    0.9600   21.0930 C   0  0  0  0  0  0  0  0  0  0  0  0
    4.2750    1.7050   20.8490 C   0  0  0  0  0  0  0  0  0  0  0  0
    3.9160    2.0630   19.5520 C   0  0  0  0  0  0  0  0  0  0  0  0
    4.6890    1.6810   18.4640 C   0  0  0  0  0  0  0  0  0  0  0  0
    9.0420    0.3700   21.5280 C   0  0  0  0  0  0  0  0  0  0  0  0
    9.2507   -4.8268   25.5895 C   0  0  0  0  0  0  0  0  0  0  0  0
   10.8452    5.5494   21.9318 C   0  0  0  0  0  0  0  0  0  0  0  0
    8.8757    1.3301   23.8233 C   0  0  0  0  0  0  0  0  0  0  0  0
    9.4560    0.1560   22.8130 C   0  0  2  0  0  0  0  0  0  0  0  0
    8.8634    5.0209   23.2001 N   0  0  0  0  0  0  0  0  0  0  0  0
    7.6390   -0.2680   18.5410 N   0  0  0  0  0  0  0  0  0  0  0  0
    6.7580    0.3810   17.8350 N   0  0  0  0  0  0  0  0  0  0  0  0
    9.9903    4.5990   22.6017 N   0  0  0  0  0  0  0  0  0  0  0  0
    5.8300    0.9190   18.6970 N   0  0  0  0  0  0  0  0  0  0  0  0
    8.1890   -0.7180   20.8700 N   0  0  0  0  0  0  0  0  0  0  0  0
    9.2690    1.4140   20.9380 O   0  0  0  0  0  0  0  0  0  0  0  0
    8.6904   -2.3557   26.5808 H   0  0  0  0  0  0  0  0  0  0  0  0
    9.9249   -4.3911   22.9935 H   0  0  0  0  0  0  0  0  0  0  0  0
    8.9209   -0.1987   25.4207 H   0  0  0  0  0  0  0  0  0  0  0  0
   10.0640   -2.2315   21.8255 H   0  0  0  0  0  0  0  0  0  0  0  0
    7.4142    3.9495   24.2451 H   0  0  0  0  0  0  0  0  0  0  0  0
   11.0668    2.7753   22.2725 H   0  0  0  0  0  0  0  0  0  0  0  0
    5.6855    0.7074   22.1002 H   0  0  0  0  0  0  0  0  0  0  0  0
    3.6634    2.0034   21.6926 H   0  0  0  0  0  0  0  0  0  0  0  0
    3.0111    2.6563   19.3629 H   0  0  0  0  0  0  0  0  0  0  0  0
    4.4370    1.9522   17.4626 H   0  0  0  0  0  0  0  0  0  0  0  0
    8.2506   -5.2684   25.5009 H   0  0  0  0  0  0  0  0  0  0  0  0
    9.9820   -5.5375   25.1832 H   0  0  0  0  0  0  0  0  0  0  0  0
    9.4843   -4.7055   26.6554 H   0  0  0  0  0  0  0  0  0  0  0  0
   10.5189    5.6214   20.8909 H   0  0  0  0  0  0  0  0  0  0  0  0
   10.7656    6.5219   22.4255 H   0  0  0  0  0  0  0  0  0  0  0  0
   11.8814    5.2042   21.9858 H   0  0  0  0  0  0  0  0  0  0  0  0
    9.2390    1.1684   24.8466 H   0  0  0  0  0  0  0  0  0  0  0  0
    7.7875    1.1860   23.8742 H   0  0  0  0  0  0  0  0  0  0  0  0
   10.6103    0.4565   22.8881 H   0  0  0  0  0  0  0  0  0  0  0  0
    8.2392   -1.5641   21.0954 H   0  0  0  0  0  0  0  0  0  0  0  0
  1  3  2  0  0  0  0
  1  7  1  0  0  0  0
  2  4  1  0  0  0  0
  2  7  2  0  0  0  0
  3  8  1  0  0  0  0
  4  8  2  0  0  0  0
  5  9  1  0  0  0  0
  5 21  2  0  0  0  0
  6  9  2  0  0  0  0
  6 24  1  0  0  0  0
  7 17  1  0  0  0  0
  8 20  1  0  0  0  0
  9 19  1  0  0  0  0
 10 11  2  0  0  0  0
 10 12  1  0  0  0  0
 10 25  1  0  0  0  0
 11 22  1  0  0  0  0
 11 26  1  0  0  0  0
 12 13  2  0  0  0  0
 13 14  1  0  0  0  0
 14 15  2  0  0  0  0
 15 25  1  0  0  0  0
 16 20  1  0  0  0  0
 16 26  1  0  0  0  0
 16 27  2  0  0  0  0
 18 24  1  0  0  0  0
 19 20  1  6  0  0  0
 21 24  1  0  0  0  0
 22 23  2  0  0  0  0
 23 25  1  0  0  0  0
  1 28  1  0  0  0  0
  2 29  1  0  0  0  0
  3 30  1  0  0  0  0
  4 31  1  0  0  0  0
  5 32  1  0  0  0  0
  6 33  1  0  0  0  0
 12 34  1  0  0  0  0
 13 35  1  0  0  0  0
 14 36  1  0  0  0  0
 15 37  1  0  0  0  0
 17 38  1  0  0  0  0
 17 39  1  0  0  0  0
 17 40  1  0  0  0  0
 18 41  1  0  0  0  0
 18 42  1  0  0  0  0
 18 43  1  0  0  0  0
 19 44  1  0  0  0  0
 19 45  1  0  0  0  0
 20 46  1  0  0  0  0
 26 47  1  0  0  0  0
M  END
> <clash_score>
0.6141453787965501

> <docking_score>
-6.762791633605957

> <overlap_score>
0.7964432835578918

$$$$
BENZO_266_2
  -OEChem-08232013453D

 47 50  0     1  0  0  0  0  0999 V2000
    8.4741    5.0874   23.4171 C   0  0  0  0  0  0  0  0  0  0  0  0
    8.2342    3.7639   23.7862 C   0  0  0  0  0  0  0  0  0  0  0  0
    8.9960   -2.3380   25.5320 C   0  0  0  0  0  0  0  0  0  0  0  0
    9.6730   -3.4710   23.5300 C   0  0  0  0  0  0  0  0  0  0  0  0
    9.0720   -1.1280   24.8640 C   0  0  0  0  0  0  0  0  0  0  0  0
    9.7200   -2.2600   22.8630 C   0  0  0  0  0  0  0  0  0  0  0  0
    9.6155    5.4109   22.6835 C   0  0  0  0  0  0  0  0  0  0  0  0
   10.2772    3.0873   22.6883 C   0  0  0  0  0  0  0  0  0  0  0  0
    9.3070   -3.5340   24.8780 C   0  0  0  0  0  0  0  0  0  0  0  0
    9.3350   -1.0880   23.5010 C   0  0  0  0  0  0  0  0  0  0  0  0
    9.1357    2.7638   23.4219 C   0  0  0  0  0  0  0  0  0  0  0  0
   10.5171    4.4109   22.3191 C   0  0  0  0  0  0  0  0  0  0  0  0
    6.1790    0.5730   19.9990 C   0  0  0  0  0  0  0  0  0  0  0  0
    7.3170   -0.1610   19.8550 C   0  0  0  0  0  0  0  0  0  0  0  0
    5.4210    0.9600   21.0930 C   0  0  0  0  0  0  0  0  0  0  0  0
    4.2750    1.7050   20.8490 C   0  0  0  0  0  0  0  0  0  0  0  0
    3.9160    2.0630   19.5520 C   0  0  0  0  0  0  0  0  0  0  0  0
    4.6890    1.6810   18.4640 C   0  0  0  0  0  0  0  0  0  0  0  0
    9.0420    0.3700   21.5280 C   0  0  0  0  0  0  0  0  0  0  0  0
    9.2507   -4.8268   25.5895 C   0  0  0  0  0  0  0  0  0  0  0  0
    8.8757    1.3301   23.8233 C   0  0  0  0  0  0  0  0  0  0  0  0
    9.4560    0.1560   22.8130 C   0  0  2  0  0  0  0  0  0  0  0  0
    7.6390   -0.2680   18.5410 N   0  0  0  0  0  0  0  0  0  0  0  0
    6.7580    0.3810   17.8350 N   0  0  0  0  0  0  0  0  0  0  0  0
    5.8300    0.9190   18.6970 N   0  0  0  0  0  0  0  0  0  0  0  0
    8.1890   -0.7180   20.8700 N   0  0  0  0  0  0  0  0  0  0  0  0
    9.2690    1.4140   20.9380 O   0  0  0  0  0  0  0  0  0  0  0  0
   11.9257    4.8108   21.4150 Cl  0  0  0  0  0  0  0  0  0  0  0  0
    7.7719    5.8659   23.7012 H   0  0  0  0  0  0  0  0  0  0  0  0
    7.3423    3.5209   24.3579 H   0  0  0  0  0  0  0  0  0  0  0  0
    8.6904   -2.3557   26.5808 H   0  0  0  0  0  0  0  0  0  0  0  0
    9.9249   -4.3911   22.9935 H   0  0  0  0  0  0  0  0  0  0  0  0
    8.9209   -0.1987   25.4207 H   0  0  0  0  0  0  0  0  0  0  0  0
   10.0640   -2.2315   21.8255 H   0  0  0  0  0  0  0  0  0  0  0  0
    9.7898    6.4468   22.4029 H   0  0  0  0  0  0  0  0  0  0  0  0
   10.9768    2.3039   22.4061 H   0  0  0  0  0  0  0  0  0  0  0  0
    5.6855    0.7074   22.1002 H   0  0  0  0  0  0  0  0  0  0  0  0
    3.6634    2.0034   21.6926 H   0  0  0  0  0  0  0  0  0  0  0  0
    3.0111    2.6563   19.3629 H   0  0  0  0  0  0  0  0  0  0  0  0
    4.4370    1.9522   17.4626 H   0  0  0  0  0  0  0  0  0  0  0  0
    8.2506   -5.2684   25.5009 H   0  0  0  0  0  0  0  0  0  0  0  0
    9.9820   -5.5375   25.1832 H   0  0  0  0  0  0  0  0  0  0  0  0
    9.4843   -4.7055   26.6554 H   0  0  0  0  0  0  0  0  0  0  0  0
    9.2390    1.1684   24.8466 H   0  0  0  0  0  0  0  0  0  0  0  0
    7.7875    1.1860   23.8742 H   0  0  0  0  0  0  0  0  0  0  0  0
   10.6103    0.4565   22.8881 H   0  0  0  0  0  0  0  0  0  0  0  0
    8.2392   -1.5641   21.0954 H   0  0  0  0  0  0  0  0  0  0  0  0
  1  2  2  0  0  0  0
  1  7  1  0  0  0  0
  2 11  1  0  0  0  0
  3  5  2  0  0  0  0
  3  9  1  0  0  0  0
  4  6  1  0  0  0  0
  4  9  2  0  0  0  0
  5 10  1  0  0  0  0
  6 10  2  0  0  0  0
  7 12  2  0  0  0  0
  8 11  2  0  0  0  0
  8 12  1  0  0  0  0
  9 20  1  0  0  0  0
 10 22  1  0  0  0  0
 11 21  1  0  0  0  0
 12 28  1  0  0  0  0
 13 14  2  0  0  0  0
 13 15  1  0  0  0  0
 13 25  1  0  0  0  0
 14 23  1  0  0  0  0
 14 26  1  0  0  0  0
 15 16  2  0  0  0  0
 16 17  1  0  0  0  0
 17 18  2  0  0  0  0
 18 25  1  0  0  0  0
 19 22  1  0  0  0  0
 19 26  1  0  0  0  0
 19 27  2  0  0  0  0
 21 22  1  6  0  0  0
 23 24  2  0  0  0  0
 24 25  1  0  0  0  0
  1 29  1  0  0  0  0
  2 30  1  0  0  0  0
  3 31  1  0  0  0  0
  4 32  1  0  0  0  0
  5 33  1  0  0  0  0
  6 34  1  0  0  0  0
  7 35  1  0  0  0  0
  8 36  1  0  0  0  0
 15 37  1  0  0  0  0
 16 38  1  0  0  0  0
 17 39  1  0  0  0  0
 18 40  1  0  0  0  0
 20 41  1  0  0  0  0
 20 42  1  0  0  0  0
 20 43  1  0  0  0  0
 21 44  1  0  0  0  0
 21 45  1  0  0  0  0
 22 46  1  0  0  0  0
 26 47  1  0  0  0  0
M  END
> <clash_score>
0

> <docking_score>
-6.482522964477539

> <overlap_score>
0.8013744950294495

$$$$
BENZO_266_1
  -OEChem-08232013453D

 47 50  0     1  0  0  0  0  0999 V2000
   10.2856    4.3750   23.5656 C   0  0  0  0  0  0  0  0  0  0  0  0
   10.1350    2.9887   23.5349 C   0  0  0  0  0  0  0  0  0  0  0  0
    8.9960   -2.3380   25.5320 C   0  0  0  0  0  0  0  0  0  0  0  0
    9.6730   -3.4710   23.5300 C   0  0  0  0  0  0  0  0  0  0  0  0
    9.0720   -1.1280   24.8640 C   0  0  0  0  0  0  0  0  0  0  0  0
    9.7200   -2.2600   22.8630 C   0  0  0  0  0  0  0  0  0  0  0  0
   11.4735    4.9575   23.1236 C   0  0  0  0  0  0  0  0  0  0  0  0
   12.3603    2.7672   22.6205 C   0  0  0  0  0  0  0  0  0  0  0  0
    9.3070   -3.5340   24.8780 C   0  0  0  0  0  0  0  0  0  0  0  0
    9.3350   -1.0880   23.5010 C   0  0  0  0  0  0  0  0  0  0  0  0
   11.1723    2.1848   23.0624 C   0  0  0  0  0  0  0  0  0  0  0  0
   12.5108    4.1536   22.6511 C   0  0  0  0  0  0  0  0  0  0  0  0
    6.1790    0.5730   19.9990 C   0  0  0  0  0  0  0  0  0  0  0  0
    7.3170   -0.1610   19.8550 C   0  0  0  0  0  0  0  0  0  0  0  0
    5.4210    0.9600   21.0930 C   0  0  0  0  0  0  0  0  0  0  0  0
    4.2750    1.7050   20.8490 C   0  0  0  0  0  0  0  0  0  0  0  0
    3.9160    2.0630   19.5520 C   0  0  0  0  0  0  0  0  0  0  0  0
    4.6890    1.6810   18.4640 C   0  0  0  0  0  0  0  0  0  0  0  0
    9.0420    0.3700   21.5280 C   0  0  0  0  0  0  0  0  0  0  0  0
    9.2507   -4.8268   25.5895 C   0  0  0  0  0  0  0  0  0  0  0  0
   11.0089    0.6825   23.0307 C   0  0  0  0  0  0  0  0  0  0  0  0
    9.4560    0.1560   22.8130 C   0  0  1  0  0  0  0  0  0  0  0  0
    7.6390   -0.2680   18.5410 N   0  0  0  0  0  0  0  0  0  0  0  0
    6.7580    0.3810   17.8350 N   0  0  0  0  0  0  0  0  0  0  0  0
    5.8300    0.9190   18.6970 N   0  0  0  0  0  0  0  0  0  0  0  0
    8.1890   -0.7180   20.8700 N   0  0  0  0  0  0  0  0  0  0  0  0
    9.2690    1.4140   20.9380 O   0  0  0  0  0  0  0  0  0  0  0  0
   13.9766    4.8727   22.1070 Cl  0  0  0  0  0  0  0  0  0  0  0  0
    9.4776    5.0007   23.9337 H   0  0  0  0  0  0  0  0  0  0  0  0
    9.2060    2.5434   23.8814 H   0  0  0  0  0  0  0  0  0  0  0  0
    8.6904   -2.3557   26.5808 H   0  0  0  0  0  0  0  0  0  0  0  0
    9.9249   -4.3911   22.9935 H   0  0  0  0  0  0  0  0  0  0  0  0
    8.9209   -0.1987   25.4207 H   0  0  0  0  0  0  0  0  0  0  0  0
   10.0640   -2.2315   21.8255 H   0  0  0  0  0  0  0  0  0  0  0  0
   11.5769    6.0394   23.1535 H   0  0  0  0  0  0  0  0  0  0  0  0
   13.1659    2.1361   22.2525 H   0  0  0  0  0  0  0  0  0  0  0  0
    5.6855    0.7074   22.1002 H   0  0  0  0  0  0  0  0  0  0  0  0
    3.6634    2.0034   21.6926 H   0  0  0  0  0  0  0  0  0  0  0  0
    3.0111    2.6563   19.3629 H   0  0  0  0  0  0  0  0  0  0  0  0
    4.4370    1.9522   17.4626 H   0  0  0  0  0  0  0  0  0  0  0  0
    8.2506   -5.2684   25.5009 H   0  0  0  0  0  0  0  0  0  0  0  0
    9.9820   -5.5375   25.1832 H   0  0  0  0  0  0  0  0  0  0  0  0
    9.4843   -4.7055   26.6554 H   0  0  0  0  0  0  0  0  0  0  0  0
   11.6011    0.2707   22.2030 H   0  0  0  0  0  0  0  0  0  0  0  0
   11.4624    0.2744   23.9446 H   0  0  0  0  0  0  0  0  0  0  0  0
    8.9284    0.9668   23.5149 H   0  0  0  0  0  0  0  0  0  0  0  0
    8.2392   -1.5641   21.0954 H   0  0  0  0  0  0  0  0  0  0  0  0
  1  2  2  0  0  0  0
  1  7  1  0  0  0  0
  2 11  1  0  0  0  0
  3  5  2  0  0  0  0
  3  9  1  0  0  0  0
  4  6  1  0  0  0  0
  4  9  2  0  0  0  0
  5 10  1  0  0  0  0
  6 10  2  0  0  0  0
  7 12  2  0  0  0  0
  8 11  2  0  0  0  0
  8 12  1  0  0  0  0
  9 20  1  0  0  0  0
 10 22  1  0  0  0  0
 11 21  1  0  0  0  0
 12 28  1  0  0  0  0
 13 14  2  0  0  0  0
 13 15  1  0  0  0  0
 13 25  1  0  0  0  0
 14 23  1  0  0  0  0
 14 26  1  0  0  0  0
 15 16  2  0  0  0  0
 16 17  1  0  0  0  0
 17 18  2  0  0  0  0
 18 25  1  0  0  0  0
 19 22  1  0  0  0  0
 19 26  1  0  0  0  0
 19 27  2  0  0  0  0
 21 22  1  1  0  0  0
 23 24  2  0  0  0  0
 24 25  1  0  0  0  0
  1 29  1  0  0  0  0
  2 30  1  0  0  0  0
  3 31  1  0  0  0  0
  4 32  1  0  0  0  0
  5 33  1  0  0  0  0
  6 34  1  0  0  0  0
  7 35  1  0  0  0  0
  8 36  1  0  0  0  0
 15 37  1  0  0  0  0
 16 38  1  0  0  0  0
 17 39  1  0  0  0  0
 18 40  1  0  0  0  0
 20 41  1  0  0  0  0
 20 42  1  0  0  0  0
 20 43  1  0  0  0  0
 21 44  1  0  0  0  0
 21 45  1  0  0  0  0
 22 46  1  0  0  0  0
 26 47  1  0  0  0  0
M  END
> <clash_score>
0

> <docking_score>
-11.03718090057373

> <overlap_score>
0.8907982110977173

$$$$
BENZO_268_1
  -OEChem-08232013453D

 45 48  0     1  0  0  0  0  0999 V2000
    9.0720   -1.1280   24.8640 C   0  0  0  0  0  0  0  0  0  0  0  0
    9.7200   -2.2600   22.8630 C   0  0  0  0  0  0  0  0  0  0  0  0
    8.9960   -2.3380   25.5320 C   0  0  0  0  0  0  0  0  0  0  0  0
    9.6730   -3.4710   23.5300 C   0  0  0  0  0  0  0  0  0  0  0  0
   11.9789    2.9159   22.1431 C   0  0  0  0  0  0  0  0  0  0  0  0
   11.9531    4.2698   22.3953 C   0  0  0  0  0  0  0  0  0  0  0  0
   10.5610    3.0079   23.9825 C   0  0  0  0  0  0  0  0  0  0  0  0
    9.3350   -1.0880   23.5010 C   0  0  0  0  0  0  0  0  0  0  0  0
   11.1723    2.1848   23.0624 C   0  0  0  0  0  0  0  0  0  0  0  0
    9.3070   -3.5340   24.8780 C   0  0  0  0  0  0  0  0  0  0  0  0
    6.1790    0.5730   19.9990 C   0  0  0  0  0  0  0  0  0  0  0  0
    7.3170   -0.1610   19.8550 C   0  0  0  0  0  0  0  0  0  0  0  0
    5.4210    0.9600   21.0930 C   0  0  0  0  0  0  0  0  0  0  0  0
    4.2750    1.7050   20.8490 C   0  0  0  0  0  0  0  0  0  0  0  0
    3.9160    2.0630   19.5520 C   0  0  0  0  0  0  0  0  0  0  0  0
    4.6890    1.6810   18.4640 C   0  0  0  0  0  0  0  0  0  0  0  0
    9.0420    0.3700   21.5280 C   0  0  0  0  0  0  0  0  0  0  0  0
    9.5904   -5.8808   24.7807 C   0  0  0  0  0  0  0  0  0  0  0  0
   11.0089    0.6825   23.0307 C   0  0  0  0  0  0  0  0  0  0  0  0
    9.4560    0.1560   22.8130 C   0  0  1  0  0  0  0  0  0  0  0  0
    7.6390   -0.2680   18.5410 N   0  0  0  0  0  0  0  0  0  0  0  0
    6.7580    0.3810   17.8350 N   0  0  0  0  0  0  0  0  0  0  0  0
    5.8300    0.9190   18.6970 N   0  0  0  0  0  0  0  0  0  0  0  0
    8.1890   -0.7180   20.8700 N   0  0  0  0  0  0  0  0  0  0  0  0
    9.2690    1.4140   20.9380 O   0  0  0  0  0  0  0  0  0  0  0  0
    9.2567   -4.7121   25.5280 O   0  0  0  0  0  0  0  0  0  0  0  0
   10.9597    4.6549   23.7359 S   0  0  0  0  0  0  0  0  0  0  0  0
    8.9224   -0.1986   25.4209 H   0  0  0  0  0  0  0  0  0  0  0  0
   10.0638   -2.2321   21.8253 H   0  0  0  0  0  0  0  0  0  0  0  0
    8.6903   -2.3588   26.5807 H   0  0  0  0  0  0  0  0  0  0  0  0
    9.9258   -4.3917   22.9962 H   0  0  0  0  0  0  0  0  0  0  0  0
   12.5509    2.4750   21.3365 H   0  0  0  0  0  0  0  0  0  0  0  0
   12.4707    5.0513   21.8570 H   0  0  0  0  0  0  0  0  0  0  0  0
    9.8997    2.7250   24.7898 H   0  0  0  0  0  0  0  0  0  0  0  0
    5.6855    0.7074   22.1002 H   0  0  0  0  0  0  0  0  0  0  0  0
    3.6634    2.0034   21.6926 H   0  0  0  0  0  0  0  0  0  0  0  0
    3.0111    2.6563   19.3629 H   0  0  0  0  0  0  0  0  0  0  0  0
    4.4370    1.9522   17.4626 H   0  0  0  0  0  0  0  0  0  0  0  0
    9.5095   -6.7607   25.4235 H   0  0  0  0  0  0  0  0  0  0  0  0
   10.6094   -5.7898   24.3961 H   0  0  0  0  0  0  0  0  0  0  0  0
    8.8947   -5.9784   23.9439 H   0  0  0  0  0  0  0  0  0  0  0  0
   11.6011    0.2707   22.2030 H   0  0  0  0  0  0  0  0  0  0  0  0
   11.4624    0.2744   23.9446 H   0  0  0  0  0  0  0  0  0  0  0  0
    8.9284    0.9668   23.5149 H   0  0  0  0  0  0  0  0  0  0  0  0
    8.2392   -1.5641   21.0954 H   0  0  0  0  0  0  0  0  0  0  0  0
  1  3  2  0  0  0  0
  1  8  1  0  0  0  0
  2  4  1  0  0  0  0
  2  8  2  0  0  0  0
  3 10  1  0  0  0  0
  4 10  2  0  0  0  0
  5  6  2  0  0  0  0
  5  9  1  0  0  0  0
  6 27  1  0  0  0  0
  7  9  2  0  0  0  0
  7 27  1  0  0  0  0
  8 20  1  0  0  0  0
  9 19  1  0  0  0  0
 10 26  1  0  0  0  0
 11 12  2  0  0  0  0
 11 13  1  0  0  0  0
 11 23  1  0  0  0  0
 12 21  1  0  0  0  0
 12 24  1  0  0  0  0
 13 14  2  0  0  0  0
 14 15  1  0  0  0  0
 15 16  2  0  0  0  0
 16 23  1  0  0  0  0
 17 20  1  0  0  0  0
 17 24  1  0  0  0  0
 17 25  2  0  0  0  0
 18 26  1  0  0  0  0
 19 20  1  1  0  0  0
 21 22  2  0  0  0  0
 22 23  1  0  0  0  0
  1 28  1  0  0  0  0
  2 29  1  0  0  0  0
  3 30  1  0  0  0  0
  4 31  1  0  0  0  0
  5 32  1  0  0  0  0
  6 33  1  0  0  0  0
  7 34  1  0  0  0  0
 13 35  1  0  0  0  0
 14 36  1  0  0  0  0
 15 37  1  0  0  0  0
 16 38  1  0  0  0  0
 18 39  1  0  0  0  0
 18 40  1  0  0  0  0
 18 41  1  0  0  0  0
 19 42  1  0  0  0  0
 19 43  1  0  0  0  0
 20 44  1  0  0  0  0
 24 45  1  0  0  0  0
M  END
> <clash_score>
0

> <docking_score>
-9.342300415039062

> <overlap_score>
0.9019697904586792

$$$$
BENZO_269_1
  -OEChem-08232013453D

 48 51  0     1  0  0  0  0  0999 V2000
   11.4726    4.9577   23.1210 C   0  0  0  0  0  0  0  0  0  0  0  0
   12.5103    4.1537   22.6496 C   0  0  0  0  0  0  0  0  0  0  0  0
   10.2847    4.3752   23.5633 C   0  0  0  0  0  0  0  0  0  0  0  0
   12.3602    2.7672   22.6203 C   0  0  0  0  0  0  0  0  0  0  0  0
   10.1346    2.9888   23.5339 C   0  0  0  0  0  0  0  0  0  0  0  0
    9.0720   -1.1280   24.8640 C   0  0  0  0  0  0  0  0  0  0  0  0
    9.7200   -2.2600   22.8630 C   0  0  0  0  0  0  0  0  0  0  0  0
    8.9960   -2.3380   25.5320 C   0  0  0  0  0  0  0  0  0  0  0  0
    9.6730   -3.4710   23.5300 C   0  0  0  0  0  0  0  0  0  0  0  0
   11.1723    2.1848   23.0624 C   0  0  0  0  0  0  0  0  0  0  0  0
    9.3350   -1.0880   23.5010 C   0  0  0  0  0  0  0  0  0  0  0  0
    9.3070   -3.5340   24.8780 C   0  0  0  0  0  0  0  0  0  0  0  0
    6.1790    0.5730   19.9990 C   0  0  0  0  0  0  0  0  0  0  0  0
    7.3170   -0.1610   19.8550 C   0  0  0  0  0  0  0  0  0  0  0  0
    5.4210    0.9600   21.0930 C   0  0  0  0  0  0  0  0  0  0  0  0
    4.2750    1.7050   20.8490 C   0  0  0  0  0  0  0  0  0  0  0  0
    3.9160    2.0630   19.5520 C   0  0  0  0  0  0  0  0  0  0  0  0
    4.6890    1.6810   18.4640 C   0  0  0  0  0  0  0  0  0  0  0  0
    9.0420    0.3700   21.5280 C   0  0  0  0  0  0  0  0  0  0  0  0
    8.8744   -4.6797   26.9022 C   0  0  0  0  0  0  0  0  0  0  0  0
   11.0089    0.6825   23.0307 C   0  0  0  0  0  0  0  0  0  0  0  0
    9.4560    0.1560   22.8130 C   0  0  1  0  0  0  0  0  0  0  0  0
    7.6390   -0.2680   18.5410 N   0  0  0  0  0  0  0  0  0  0  0  0
    6.7580    0.3810   17.8350 N   0  0  0  0  0  0  0  0  0  0  0  0
    5.8300    0.9190   18.6970 N   0  0  0  0  0  0  0  0  0  0  0  0
    8.1890   -0.7180   20.8700 N   0  0  0  0  0  0  0  0  0  0  0  0
    9.2690    1.4140   20.9380 O   0  0  0  0  0  0  0  0  0  0  0  0
    9.2567   -4.7121   25.5280 O   0  0  0  0  0  0  0  0  0  0  0  0
   11.5901    6.0371   23.1451 H   0  0  0  0  0  0  0  0  0  0  0  0
   13.4357    4.6069   22.3063 H   0  0  0  0  0  0  0  0  0  0  0  0
    9.4770    5.0009   23.9314 H   0  0  0  0  0  0  0  0  0  0  0  0
   13.1740    2.1486   22.2511 H   0  0  0  0  0  0  0  0  0  0  0  0
    9.2056    2.5438   23.8803 H   0  0  0  0  0  0  0  0  0  0  0  0
    8.9224   -0.1986   25.4209 H   0  0  0  0  0  0  0  0  0  0  0  0
   10.0638   -2.2321   21.8253 H   0  0  0  0  0  0  0  0  0  0  0  0
    8.6903   -2.3588   26.5807 H   0  0  0  0  0  0  0  0  0  0  0  0
    9.9258   -4.3917   22.9962 H   0  0  0  0  0  0  0  0  0  0  0  0
    5.6855    0.7074   22.1002 H   0  0  0  0  0  0  0  0  0  0  0  0
    3.6634    2.0034   21.6926 H   0  0  0  0  0  0  0  0  0  0  0  0
    3.0111    2.6563   19.3629 H   0  0  0  0  0  0  0  0  0  0  0  0
    4.4370    1.9522   17.4626 H   0  0  0  0  0  0  0  0  0  0  0  0
    8.8744   -5.6954   27.3053 H   0  0  0  0  0  0  0  0  0  0  0  0
    7.8781   -4.2399   26.9939 H   0  0  0  0  0  0  0  0  0  0  0  0
    9.5920   -4.0702   27.4565 H   0  0  0  0  0  0  0  0  0  0  0  0
   11.6011    0.2707   22.2030 H   0  0  0  0  0  0  0  0  0  0  0  0
   11.4624    0.2744   23.9446 H   0  0  0  0  0  0  0  0  0  0  0  0
    8.9284    0.9668   23.5149 H   0  0  0  0  0  0  0  0  0  0  0  0
    8.2392   -1.5641   21.0954 H   0  0  0  0  0  0  0  0  0  0  0  0
  1  2  1  0  0  0  0
  1  3  2  0  0  0  0
  2  4  2  0  0  0  0
  3  5  1  0  0  0  0
  4 10  1  0  0  0  0
  5 10  2  0  0  0  0
  6  8  2  0  0  0  0
  6 11  1  0  0  0  0
  7  9  1  0  0  0  0
  7 11  2  0  0  0  0
  8 12  1  0  0  0  0
  9 12  2  0  0  0  0
 10 21  1  0  0  0  0
 11 22  1  0  0  0  0
 12 28  1  0  0  0  0
 13 14  2  0  0  0  0
 13 15  1  0  0  0  0
 13 25  1  0  0  0  0
 14 23  1  0  0  0  0
 14 26  1  0  0  0  0
 15 16  2  0  0  0  0
 16 17  1  0  0  0  0
 17 18  2  0  0  0  0
 18 25  1  0  0  0  0
 19 22  1  0  0  0  0
 19 26  1  0  0  0  0
 19 27  2  0  0  0  0
 20 28  1  0  0  0  0
 21 22  1  1  0  0  0
 23 24  2  0  0  0  0
 24 25  1  0  0  0  0
  1 29  1  0  0  0  0
  2 30  1  0  0  0  0
  3 31  1  0  0  0  0
  4 32  1  0  0  0  0
  5 33  1  0  0  0  0
  6 34  1  0  0  0  0
  7 35  1  0  0  0  0
  8 36  1  0  0  0  0
  9 37  1  0  0  0  0
 15 38  1  0  0  0  0
 16 39  1  0  0  0  0
 17 40  1  0  0  0  0
 18 41  1  0  0  0  0
 20 42  1  0  0  0  0
 20 43  1  0  0  0  0
 20 44  1  0  0  0  0
 21 45  1  0  0  0  0
 21 46  1  0  0  0  0
 22 47  1  0  0  0  0
 26 48  1  0  0  0  0
M  END
> <clash_score>
0

> <docking_score>
-10.32810115814209

> <overlap_score>
0.9121971726417542

$$$$
BENZO_269_2
  -OEChem-08232013453D

 48 51  0     1  0  0  0  0  0999 V2000
    9.6170    5.4099   22.6808 C   0  0  0  0  0  0  0  0  0  0  0  0
    8.4752    5.0878   23.4143 C   0  0  0  0  0  0  0  0  0  0  0  0
   10.5182    4.4090   22.3177 C   0  0  0  0  0  0  0  0  0  0  0  0
    8.2345    3.7648   23.7849 C   0  0  0  0  0  0  0  0  0  0  0  0
   10.2775    3.0860   22.6883 C   0  0  0  0  0  0  0  0  0  0  0  0
    9.0720   -1.1280   24.8640 C   0  0  0  0  0  0  0  0  0  0  0  0
    9.7200   -2.2600   22.8630 C   0  0  0  0  0  0  0  0  0  0  0  0
    8.9960   -2.3380   25.5320 C   0  0  0  0  0  0  0  0  0  0  0  0
    9.6730   -3.4710   23.5300 C   0  0  0  0  0  0  0  0  0  0  0  0
    9.1357    2.7638   23.4219 C   0  0  0  0  0  0  0  0  0  0  0  0
    9.3350   -1.0880   23.5010 C   0  0  0  0  0  0  0  0  0  0  0  0
    9.3070   -3.5340   24.8780 C   0  0  0  0  0  0  0  0  0  0  0  0
    6.1790    0.5730   19.9990 C   0  0  0  0  0  0  0  0  0  0  0  0
    7.3170   -0.1610   19.8550 C   0  0  0  0  0  0  0  0  0  0  0  0
    5.4210    0.9600   21.0930 C   0  0  0  0  0  0  0  0  0  0  0  0
    4.2750    1.7050   20.8490 C   0  0  0  0  0  0  0  0  0  0  0  0
    3.9160    2.0630   19.5520 C   0  0  0  0  0  0  0  0  0  0  0  0
    4.6890    1.6810   18.4640 C   0  0  0  0  0  0  0  0  0  0  0  0
    9.0420    0.3700   21.5280 C   0  0  0  0  0  0  0  0  0  0  0  0
    9.5904   -5.8808   24.7807 C   0  0  0  0  0  0  0  0  0  0  0  0
    8.8757    1.3301   23.8233 C   0  0  0  0  0  0  0  0  0  0  0  0
    9.4560    0.1560   22.8130 C   0  0  2  0  0  0  0  0  0  0  0  0
    7.6390   -0.2680   18.5410 N   0  0  0  0  0  0  0  0  0  0  0  0
    6.7580    0.3810   17.8350 N   0  0  0  0  0  0  0  0  0  0  0  0
    5.8300    0.9190   18.6970 N   0  0  0  0  0  0  0  0  0  0  0  0
    8.1890   -0.7180   20.8700 N   0  0  0  0  0  0  0  0  0  0  0  0
    9.2690    1.4140   20.9380 O   0  0  0  0  0  0  0  0  0  0  0  0
    9.2567   -4.7121   25.5280 O   0  0  0  0  0  0  0  0  0  0  0  0
    9.8035    6.4400   22.3912 H   0  0  0  0  0  0  0  0  0  0  0  0
    7.7728    5.8668   23.6961 H   0  0  0  0  0  0  0  0  0  0  0  0
   11.4067    4.6593   21.7457 H   0  0  0  0  0  0  0  0  0  0  0  0
    7.3424    3.5231   24.3565 H   0  0  0  0  0  0  0  0  0  0  0  0
   10.9853    2.3128   22.4011 H   0  0  0  0  0  0  0  0  0  0  0  0
    8.9224   -0.1986   25.4209 H   0  0  0  0  0  0  0  0  0  0  0  0
   10.0638   -2.2321   21.8253 H   0  0  0  0  0  0  0  0  0  0  0  0
    8.6903   -2.3588   26.5807 H   0  0  0  0  0  0  0  0  0  0  0  0
    9.9258   -4.3917   22.9962 H   0  0  0  0  0  0  0  0  0  0  0  0
    5.6855    0.7074   22.1002 H   0  0  0  0  0  0  0  0  0  0  0  0
    3.6634    2.0034   21.6926 H   0  0  0  0  0  0  0  0  0  0  0  0
    3.0111    2.6563   19.3629 H   0  0  0  0  0  0  0  0  0  0  0  0
    4.4370    1.9522   17.4626 H   0  0  0  0  0  0  0  0  0  0  0  0
    9.5095   -6.7607   25.4235 H   0  0  0  0  0  0  0  0  0  0  0  0
   10.6094   -5.7898   24.3961 H   0  0  0  0  0  0  0  0  0  0  0  0
    8.8947   -5.9784   23.9439 H   0  0  0  0  0  0  0  0  0  0  0  0
    9.2390    1.1684   24.8466 H   0  0  0  0  0  0  0  0  0  0  0  0
    7.7875    1.1860   23.8742 H   0  0  0  0  0  0  0  0  0  0  0  0
   10.6103    0.4565   22.8881 H   0  0  0  0  0  0  0  0  0  0  0  0
    8.2392   -1.5641   21.0954 H   0  0  0  0  0  0  0  0  0  0  0  0
  1  2  1  0  0  0  0
  1  3  2  0  0  0  0
  2  4  2  0  0  0  0
  3  5  1  0  0  0  0
  4 10  1  0  0  0  0
  5 10  2  0  0  0  0
  6  8  2  0  0  0  0
  6 11  1  0  0  0  0
  7  9  1  0  0  0  0
  7 11  2  0  0  0  0
  8 12  1  0  0  0  0
  9 12  2  0  0  0  0
 10 21  1  0  0  0  0
 11 22  1  0  0  0  0
 12 28  1  0  0  0  0
 13 14  2  0  0  0  0
 13 15  1  0  0  0  0
 13 25  1  0  0  0  0
 14 23  1  0  0  0  0
 14 26  1  0  0  0  0
 15 16  2  0  0  0  0
 16 17  1  0  0  0  0
 17 18  2  0  0  0  0
 18 25  1  0  0  0  0
 19 22  1  0  0  0  0
 19 26  1  0  0  0  0
 19 27  2  0  0  0  0
 20 28  1  0  0  0  0
 21 22  1  6  0  0  0
 23 24  2  0  0  0  0
 24 25  1  0  0  0  0
  1 29  1  0  0  0  0
  2 30  1  0  0  0  0
  3 31  1  0  0  0  0
  4 32  1  0  0  0  0
  5 33  1  0  0  0  0
  6 34  1  0  0  0  0
  7 35  1  0  0  0  0
  8 36  1  0  0  0  0
  9 37  1  0  0  0  0
 15 38  1  0  0  0  0
 16 39  1  0  0  0  0
 17 40  1  0  0  0  0
 18 41  1  0  0  0  0
 20 42  1  0  0  0  0
 20 43  1  0  0  0  0
 20 44  1  0  0  0  0
 21 45  1  0  0  0  0
 21 46  1  0  0  0  0
 22 47  1  0  0  0  0
 26 48  1  0  0  0  0
M  END
> <clash_score>
0

> <docking_score>
-6.836252212524414

> <overlap_score>
0.8256528973579407

$$$$
BENZO_268_2
  -OEChem-08232013453D

 45 48  0     1  0  0  0  0  0999 V2000
    9.0720   -1.1280   24.8640 C   0  0  0  0  0  0  0  0  0  0  0  0
    9.7200   -2.2600   22.8630 C   0  0  0  0  0  0  0  0  0  0  0  0
    8.9960   -2.3380   25.5320 C   0  0  0  0  0  0  0  0  0  0  0  0
    9.6730   -3.4710   23.5300 C   0  0  0  0  0  0  0  0  0  0  0  0
   10.3314    3.2065   22.7858 C   0  0  0  0  0  0  0  0  0  0  0  0
   10.3108    4.5599   22.5298 C   0  0  0  0  0  0  0  0  0  0  0  0
    8.2468    3.7959   23.6280 C   0  0  0  0  0  0  0  0  0  0  0  0
    9.3350   -1.0880   23.5010 C   0  0  0  0  0  0  0  0  0  0  0  0
    9.1357    2.7638   23.4219 C   0  0  0  0  0  0  0  0  0  0  0  0
    9.3070   -3.5340   24.8780 C   0  0  0  0  0  0  0  0  0  0  0  0
    6.1790    0.5730   19.9990 C   0  0  0  0  0  0  0  0  0  0  0  0
    7.3170   -0.1610   19.8550 C   0  0  0  0  0  0  0  0  0  0  0  0
    5.4210    0.9600   21.0930 C   0  0  0  0  0  0  0  0  0  0  0  0
    4.2750    1.7050   20.8490 C   0  0  0  0  0  0  0  0  0  0  0  0
    3.9160    2.0630   19.5520 C   0  0  0  0  0  0  0  0  0  0  0  0
    4.6890    1.6810   18.4640 C   0  0  0  0  0  0  0  0  0  0  0  0
    9.0420    0.3700   21.5280 C   0  0  0  0  0  0  0  0  0  0  0  0
    9.5904   -5.8808   24.7807 C   0  0  0  0  0  0  0  0  0  0  0  0
    8.8757    1.3301   23.8233 C   0  0  0  0  0  0  0  0  0  0  0  0
    9.4560    0.1560   22.8130 C   0  0  2  0  0  0  0  0  0  0  0  0
    7.6390   -0.2680   18.5410 N   0  0  0  0  0  0  0  0  0  0  0  0
    6.7580    0.3810   17.8350 N   0  0  0  0  0  0  0  0  0  0  0  0
    5.8300    0.9190   18.6970 N   0  0  0  0  0  0  0  0  0  0  0  0
    8.1890   -0.7180   20.8700 N   0  0  0  0  0  0  0  0  0  0  0  0
    9.2690    1.4140   20.9380 O   0  0  0  0  0  0  0  0  0  0  0  0
    9.2567   -4.7121   25.5280 O   0  0  0  0  0  0  0  0  0  0  0  0
    8.8543    5.2911   23.0556 S   0  0  0  0  0  0  0  0  0  0  0  0
    8.9224   -0.1986   25.4209 H   0  0  0  0  0  0  0  0  0  0  0  0
   10.0638   -2.2321   21.8253 H   0  0  0  0  0  0  0  0  0  0  0  0
    8.6903   -2.3588   26.5807 H   0  0  0  0  0  0  0  0  0  0  0  0
    9.9258   -4.3917   22.9962 H   0  0  0  0  0  0  0  0  0  0  0  0
   11.1669    2.5681   22.5277 H   0  0  0  0  0  0  0  0  0  0  0  0
   11.0815    5.1544   22.0599 H   0  0  0  0  0  0  0  0  0  0  0  0
    7.2694    3.7480   24.0879 H   0  0  0  0  0  0  0  0  0  0  0  0
    5.6855    0.7074   22.1002 H   0  0  0  0  0  0  0  0  0  0  0  0
    3.6634    2.0034   21.6926 H   0  0  0  0  0  0  0  0  0  0  0  0
    3.0111    2.6563   19.3629 H   0  0  0  0  0  0  0  0  0  0  0  0
    4.4370    1.9522   17.4626 H   0  0  0  0  0  0  0  0  0  0  0  0
    9.5095   -6.7607   25.4235 H   0  0  0  0  0  0  0  0  0  0  0  0
   10.6094   -5.7898   24.3961 H   0  0  0  0  0  0  0  0  0  0  0  0
    8.8947   -5.9784   23.9439 H   0  0  0  0  0  0  0  0  0  0  0  0
    9.2390    1.1684   24.8466 H   0  0  0  0  0  0  0  0  0  0  0  0
    7.7875    1.1860   23.8742 H   0  0  0  0  0  0  0  0  0  0  0  0
   10.6103    0.4565   22.8881 H   0  0  0  0  0  0  0  0  0  0  0  0
    8.2392   -1.5641   21.0954 H   0  0  0  0  0  0  0  0  0  0  0  0
  1  3  2  0  0  0  0
  1  8  1  0  0  0  0
  2  4  1  0  0  0  0
  2  8  2  0  0  0  0
  3 10  1  0  0  0  0
  4 10  2  0  0  0  0
  5  6  2  0  0  0  0
  5  9  1  0  0  0  0
  6 27  1  0  0  0  0
  7  9  2  0  0  0  0
  7 27  1  0  0  0  0
  8 20  1  0  0  0  0
  9 19  1  0  0  0  0
 10 26  1  0  0  0  0
 11 12  2  0  0  0  0
 11 13  1  0  0  0  0
 11 23  1  0  0  0  0
 12 21  1  0  0  0  0
 12 24  1  0  0  0  0
 13 14  2  0  0  0  0
 14 15  1  0  0  0  0
 15 16  2  0  0  0  0
 16 23  1  0  0  0  0
 17 20  1  0  0  0  0
 17 24  1  0  0  0  0
 17 25  2  0  0  0  0
 18 26  1  0  0  0  0
 19 20  1  6  0  0  0
 21 22  2  0  0  0  0
 22 23  1  0  0  0  0
  1 28  1  0  0  0  0
  2 29  1  0  0  0  0
  3 30  1  0  0  0  0
  4 31  1  0  0  0  0
  5 32  1  0  0  0  0
  6 33  1  0  0  0  0
  7 34  1  0  0  0  0
 13 35  1  0  0  0  0
 14 36  1  0  0  0  0
 15 37  1  0  0  0  0
 16 38  1  0  0  0  0
 18 39  1  0  0  0  0
 18 40  1  0  0  0  0
 18 41  1  0  0  0  0
 19 42  1  0  0  0  0
 19 43  1  0  0  0  0
 20 44  1  0  0  0  0
 24 45  1  0  0  0  0
M  END
> <clash_score>
0

> <docking_score>
-7.223369598388672

> <overlap_score>
0.8258882164955139

$$$$
BENZO_271_1
  -OEChem-08232013453D

 48 51  0     1  0  0  0  0  0999 V2000
    9.0720   -1.1280   24.8640 C   0  0  0  0  0  0  0  0  0  0  0  0
    9.7200   -2.2600   22.8630 C   0  0  0  0  0  0  0  0  0  0  0  0
    8.9960   -2.3380   25.5320 C   0  0  0  0  0  0  0  0  0  0  0  0
    9.6730   -3.4710   23.5300 C   0  0  0  0  0  0  0  0  0  0  0  0
   10.2428    3.1457   23.5034 C   0  0  0  0  0  0  0  0  0  0  0  0
   12.2645    2.9188   22.6690 C   0  0  0  0  0  0  0  0  0  0  0  0
    9.3350   -1.0880   23.5010 C   0  0  0  0  0  0  0  0  0  0  0  0
   11.1723    2.1848   23.0624 C   0  0  0  0  0  0  0  0  0  0  0  0
    9.3070   -3.5340   24.8780 C   0  0  0  0  0  0  0  0  0  0  0  0
    6.1790    0.5730   19.9990 C   0  0  0  0  0  0  0  0  0  0  0  0
    7.3170   -0.1610   19.8550 C   0  0  0  0  0  0  0  0  0  0  0  0
    5.4210    0.9600   21.0930 C   0  0  0  0  0  0  0  0  0  0  0  0
    4.2750    1.7050   20.8490 C   0  0  0  0  0  0  0  0  0  0  0  0
    3.9160    2.0630   19.5520 C   0  0  0  0  0  0  0  0  0  0  0  0
    4.6890    1.6810   18.4640 C   0  0  0  0  0  0  0  0  0  0  0  0
    9.0420    0.3700   21.5280 C   0  0  0  0  0  0  0  0  0  0  0  0
   12.7694    5.3728   22.6293 C   0  0  0  0  0  0  0  0  0  0  0  0
    8.8744   -4.6797   26.9022 C   0  0  0  0  0  0  0  0  0  0  0  0
   11.0089    0.6825   23.0307 C   0  0  0  0  0  0  0  0  0  0  0  0
    9.4560    0.1560   22.8130 C   0  0  1  0  0  0  0  0  0  0  0  0
   10.7043    4.3948   23.4002 N   0  0  0  0  0  0  0  0  0  0  0  0
    7.6390   -0.2680   18.5410 N   0  0  0  0  0  0  0  0  0  0  0  0
    6.7580    0.3810   17.8350 N   0  0  0  0  0  0  0  0  0  0  0  0
   11.9358    4.2239   22.8900 N   0  0  0  0  0  0  0  0  0  0  0  0
    5.8300    0.9190   18.6970 N   0  0  0  0  0  0  0  0  0  0  0  0
    8.1890   -0.7180   20.8700 N   0  0  0  0  0  0  0  0  0  0  0  0
    9.2690    1.4140   20.9380 O   0  0  0  0  0  0  0  0  0  0  0  0
    9.2567   -4.7121   25.5280 O   0  0  0  0  0  0  0  0  0  0  0  0
    8.9224   -0.1986   25.4209 H   0  0  0  0  0  0  0  0  0  0  0  0
   10.0638   -2.2321   21.8253 H   0  0  0  0  0  0  0  0  0  0  0  0
    8.6903   -2.3588   26.5807 H   0  0  0  0  0  0  0  0  0  0  0  0
    9.9258   -4.3917   22.9962 H   0  0  0  0  0  0  0  0  0  0  0  0
    9.2482    2.9901   23.8969 H   0  0  0  0  0  0  0  0  0  0  0  0
   13.2243    2.6307   22.2620 H   0  0  0  0  0  0  0  0  0  0  0  0
    5.6855    0.7074   22.1002 H   0  0  0  0  0  0  0  0  0  0  0  0
    3.6634    2.0034   21.6926 H   0  0  0  0  0  0  0  0  0  0  0  0
    3.0111    2.6563   19.3629 H   0  0  0  0  0  0  0  0  0  0  0  0
    4.4370    1.9522   17.4626 H   0  0  0  0  0  0  0  0  0  0  0  0
   12.5744    5.7060   21.6066 H   0  0  0  0  0  0  0  0  0  0  0  0
   12.5290    6.1664   23.3423 H   0  0  0  0  0  0  0  0  0  0  0  0
   13.8196    5.0915   22.7473 H   0  0  0  0  0  0  0  0  0  0  0  0
    8.8744   -5.6954   27.3053 H   0  0  0  0  0  0  0  0  0  0  0  0
    7.8781   -4.2399   26.9939 H   0  0  0  0  0  0  0  0  0  0  0  0
    9.5920   -4.0702   27.4565 H   0  0  0  0  0  0  0  0  0  0  0  0
   11.6011    0.2707   22.2030 H   0  0  0  0  0  0  0  0  0  0  0  0
   11.4624    0.2744   23.9446 H   0  0  0  0  0  0  0  0  0  0  0  0
    8.9284    0.9668   23.5149 H   0  0  0  0  0  0  0  0  0  0  0  0
    8.2392   -1.5641   21.0954 H   0  0  0  0  0  0  0  0  0  0  0  0
  1  3  2  0  0  0  0
  1  7  1  0  0  0  0
  2  4  1  0  0  0  0
  2  7  2  0  0  0  0
  3  9  1  0  0  0  0
  4  9  2  0  0  0  0
  5  8  1  0  0  0  0
  5 21  2  0  0  0  0
  6  8  2  0  0  0  0
  6 24  1  0  0  0  0
  7 20  1  0  0  0  0
  8 19  1  0  0  0  0
  9 28  1  0  0  0  0
 10 11  2  0  0  0  0
 10 12  1  0  0  0  0
 10 25  1  0  0  0  0
 11 22  1  0  0  0  0
 11 26  1  0  0  0  0
 12 13  2  0  0  0  0
 13 14  1  0  0  0  0
 14 15  2  0  0  0  0
 15 25  1  0  0  0  0
 16 20  1  0  0  0  0
 16 26  1  0  0  0  0
 16 27  2  0  0  0  0
 17 24  1  0  0  0  0
 18 28  1  0  0  0  0
 19 20  1  1  0  0  0
 21 24  1  0  0  0  0
 22 23  2  0  0  0  0
 23 25  1  0  0  0  0
  1 29  1  0  0  0  0
  2 30  1  0  0  0  0
  3 31  1  0  0  0  0
  4 32  1  0  0  0  0
  5 33  1  0  0  0  0
  6 34  1  0  0  0  0
 12 35  1  0  0  0  0
 13 36  1  0  0  0  0
 14 37  1  0  0  0  0
 15 38  1  0  0  0  0
 17 39  1  0  0  0  0
 17 40  1  0  0  0  0
 17 41  1  0  0  0  0
 18 42  1  0  0  0  0
 18 43  1  0  0  0  0
 18 44  1  0  0  0  0
 19 45  1  0  0  0  0
 19 46  1  0  0  0  0
 20 47  1  0  0  0  0
 26 48  1  0  0  0  0
M  END
> <clash_score>
0

> <docking_score>
-10.234233856201172

> <overlap_score>
0.9082751870155334

$$$$
BENZO_271_2
  -OEChem-08232013453D

 48 51  0     1  0  0  0  0  0999 V2000
    9.0720   -1.1280   24.8640 C   0  0  0  0  0  0  0  0  0  0  0  0
    9.7200   -2.2600   22.8630 C   0  0  0  0  0  0  0  0  0  0  0  0
    8.9960   -2.3380   25.5320 C   0  0  0  0  0  0  0  0  0  0  0  0
    9.6730   -3.4710   23.5300 C   0  0  0  0  0  0  0  0  0  0  0  0
   10.2230    3.2711   22.6855 C   0  0  0  0  0  0  0  0  0  0  0  0
    8.3607    3.8650   23.6924 C   0  0  0  0  0  0  0  0  0  0  0  0
    9.3350   -1.0880   23.5010 C   0  0  0  0  0  0  0  0  0  0  0  0
    9.1357    2.7638   23.4219 C   0  0  0  0  0  0  0  0  0  0  0  0
    9.3070   -3.5340   24.8780 C   0  0  0  0  0  0  0  0  0  0  0  0
    6.1790    0.5730   19.9990 C   0  0  0  0  0  0  0  0  0  0  0  0
    7.3170   -0.1610   19.8550 C   0  0  0  0  0  0  0  0  0  0  0  0
    5.4210    0.9600   21.0930 C   0  0  0  0  0  0  0  0  0  0  0  0
    4.2750    1.7050   20.8490 C   0  0  0  0  0  0  0  0  0  0  0  0
    3.9160    2.0630   19.5520 C   0  0  0  0  0  0  0  0  0  0  0  0
    4.6890    1.6810   18.4640 C   0  0  0  0  0  0  0  0  0  0  0  0
    9.0420    0.3700   21.5280 C   0  0  0  0  0  0  0  0  0  0  0  0
    8.5727    6.3003   23.1419 C   0  0  0  0  0  0  0  0  0  0  0  0
    9.5904   -5.8808   24.7807 C   0  0  0  0  0  0  0  0  0  0  0  0
    8.8757    1.3301   23.8233 C   0  0  0  0  0  0  0  0  0  0  0  0
    9.4560    0.1560   22.8130 C   0  0  2  0  0  0  0  0  0  0  0  0
   10.1488    4.5917   22.4999 N   0  0  0  0  0  0  0  0  0  0  0  0
    7.6390   -0.2680   18.5410 N   0  0  0  0  0  0  0  0  0  0  0  0
    6.7580    0.3810   17.8350 N   0  0  0  0  0  0  0  0  0  0  0  0
    9.0056    4.9236   23.1235 N   0  0  0  0  0  0  0  0  0  0  0  0
    5.8300    0.9190   18.6970 N   0  0  0  0  0  0  0  0  0  0  0  0
    8.1890   -0.7180   20.8700 N   0  0  0  0  0  0  0  0  0  0  0  0
    9.2690    1.4140   20.9380 O   0  0  0  0  0  0  0  0  0  0  0  0
    9.2567   -4.7121   25.5280 O   0  0  0  0  0  0  0  0  0  0  0  0
    8.9224   -0.1986   25.4209 H   0  0  0  0  0  0  0  0  0  0  0  0
   10.0638   -2.2321   21.8253 H   0  0  0  0  0  0  0  0  0  0  0  0
    8.6903   -2.3588   26.5807 H   0  0  0  0  0  0  0  0  0  0  0  0
    9.9258   -4.3917   22.9962 H   0  0  0  0  0  0  0  0  0  0  0  0
   11.0671    2.7354   22.2746 H   0  0  0  0  0  0  0  0  0  0  0  0
    7.4277    3.9824   24.2269 H   0  0  0  0  0  0  0  0  0  0  0  0
    5.6855    0.7074   22.1002 H   0  0  0  0  0  0  0  0  0  0  0  0
    3.6634    2.0034   21.6926 H   0  0  0  0  0  0  0  0  0  0  0  0
    3.0111    2.6563   19.3629 H   0  0  0  0  0  0  0  0  0  0  0  0
    4.4370    1.9522   17.4626 H   0  0  0  0  0  0  0  0  0  0  0  0
    8.9983    6.7758   24.0295 H   0  0  0  0  0  0  0  0  0  0  0  0
    8.9199    6.8033   22.2351 H   0  0  0  0  0  0  0  0  0  0  0  0
    7.4802    6.3352   23.1748 H   0  0  0  0  0  0  0  0  0  0  0  0
    9.5095   -6.7607   25.4235 H   0  0  0  0  0  0  0  0  0  0  0  0
   10.6094   -5.7898   24.3961 H   0  0  0  0  0  0  0  0  0  0  0  0
    8.8947   -5.9784   23.9439 H   0  0  0  0  0  0  0  0  0  0  0  0
    9.2390    1.1684   24.8466 H   0  0  0  0  0  0  0  0  0  0  0  0
    7.7875    1.1860   23.8742 H   0  0  0  0  0  0  0  0  0  0  0  0
   10.6103    0.4565   22.8881 H   0  0  0  0  0  0  0  0  0  0  0  0
    8.2392   -1.5641   21.0954 H   0  0  0  0  0  0  0  0  0  0  0  0
  1  3  2  0  0  0  0
  1  7  1  0  0  0  0
  2  4  1  0  0  0  0
  2  7  2  0  0  0  0
  3  9  1  0  0  0  0
  4  9  2  0  0  0  0
  5  8  1  0  0  0  0
  5 21  2  0  0  0  0
  6  8  2  0  0  0  0
  6 24  1  0  0  0  0
  7 20  1  0  0  0  0
  8 19  1  0  0  0  0
  9 28  1  0  0  0  0
 10 11  2  0  0  0  0
 10 12  1  0  0  0  0
 10 25  1  0  0  0  0
 11 22  1  0  0  0  0
 11 26  1  0  0  0  0
 12 13  2  0  0  0  0
 13 14  1  0  0  0  0
 14 15  2  0  0  0  0
 15 25  1  0  0  0  0
 16 20  1  0  0  0  0
 16 26  1  0  0  0  0
 16 27  2  0  0  0  0
 17 24  1  0  0  0  0
 18 28  1  0  0  0  0
 19 20  1  6  0  0  0
 21 24  1  0  0  0  0
 22 23  2  0  0  0  0
 23 25  1  0  0  0  0
  1 29  1  0  0  0  0
  2 30  1  0  0  0  0
  3 31  1  0  0  0  0
  4 32  1  0  0  0  0
  5 33  1  0  0  0  0
  6 34  1  0  0  0  0
 12 35  1  0  0  0  0
 13 36  1  0  0  0  0
 14 37  1  0  0  0  0
 15 38  1  0  0  0  0
 17 39  1  0  0  0  0
 17 40  1  0  0  0  0
 17 41  1  0  0  0  0
 18 42  1  0  0  0  0
 18 43  1  0  0  0  0
 18 44  1  0  0  0  0
 19 45  1  0  0  0  0
 19 46  1  0  0  0  0
 20 47  1  0  0  0  0
 26 48  1  0  0  0  0
M  END
> <clash_score>
0

> <docking_score>
-6.564671516418457

> <overlap_score>
0.8214378356933594

$$$$
BENZO_270_2
  -OEChem-08232013453D

 48 51  0     1  0  0  0  0  0999 V2000
    8.4741    5.0874   23.4171 C   0  0  0  0  0  0  0  0  0  0  0  0
    8.2342    3.7639   23.7862 C   0  0  0  0  0  0  0  0  0  0  0  0
    9.0720   -1.1280   24.8640 C   0  0  0  0  0  0  0  0  0  0  0  0
    9.7200   -2.2600   22.8630 C   0  0  0  0  0  0  0  0  0  0  0  0
    8.9960   -2.3380   25.5320 C   0  0  0  0  0  0  0  0  0  0  0  0
    9.6730   -3.4710   23.5300 C   0  0  0  0  0  0  0  0  0  0  0  0
    9.6155    5.4109   22.6835 C   0  0  0  0  0  0  0  0  0  0  0  0
   10.2772    3.0873   22.6883 C   0  0  0  0  0  0  0  0  0  0  0  0
    9.3350   -1.0880   23.5010 C   0  0  0  0  0  0  0  0  0  0  0  0
    9.1357    2.7638   23.4219 C   0  0  0  0  0  0  0  0  0  0  0  0
    9.3070   -3.5340   24.8780 C   0  0  0  0  0  0  0  0  0  0  0  0
   10.5171    4.4109   22.3191 C   0  0  0  0  0  0  0  0  0  0  0  0
    6.1790    0.5730   19.9990 C   0  0  0  0  0  0  0  0  0  0  0  0
    7.3170   -0.1610   19.8550 C   0  0  0  0  0  0  0  0  0  0  0  0
    5.4210    0.9600   21.0930 C   0  0  0  0  0  0  0  0  0  0  0  0
    4.2750    1.7050   20.8490 C   0  0  0  0  0  0  0  0  0  0  0  0
    3.9160    2.0630   19.5520 C   0  0  0  0  0  0  0  0  0  0  0  0
    4.6890    1.6810   18.4640 C   0  0  0  0  0  0  0  0  0  0  0  0
    9.0420    0.3700   21.5280 C   0  0  0  0  0  0  0  0  0  0  0  0
    9.5904   -5.8808   24.7807 C   0  0  0  0  0  0  0  0  0  0  0  0
    8.8757    1.3301   23.8233 C   0  0  0  0  0  0  0  0  0  0  0  0
    9.4560    0.1560   22.8130 C   0  0  2  0  0  0  0  0  0  0  0  0
    7.6390   -0.2680   18.5410 N   0  0  0  0  0  0  0  0  0  0  0  0
    6.7580    0.3810   17.8350 N   0  0  0  0  0  0  0  0  0  0  0  0
    5.8300    0.9190   18.6970 N   0  0  0  0  0  0  0  0  0  0  0  0
    8.1890   -0.7180   20.8700 N   0  0  0  0  0  0  0  0  0  0  0  0
    9.2690    1.4140   20.9380 O   0  0  0  0  0  0  0  0  0  0  0  0
    9.2567   -4.7121   25.5280 O   0  0  0  0  0  0  0  0  0  0  0  0
   11.9257    4.8108   21.4150 Cl  0  0  0  0  0  0  0  0  0  0  0  0
    7.7719    5.8659   23.7012 H   0  0  0  0  0  0  0  0  0  0  0  0
    7.3423    3.5209   24.3579 H   0  0  0  0  0  0  0  0  0  0  0  0
    8.9224   -0.1986   25.4209 H   0  0  0  0  0  0  0  0  0  0  0  0
   10.0638   -2.2321   21.8253 H   0  0  0  0  0  0  0  0  0  0  0  0
    8.6903   -2.3588   26.5807 H   0  0  0  0  0  0  0  0  0  0  0  0
    9.9258   -4.3917   22.9962 H   0  0  0  0  0  0  0  0  0  0  0  0
    9.7898    6.4468   22.4029 H   0  0  0  0  0  0  0  0  0  0  0  0
   10.9768    2.3039   22.4061 H   0  0  0  0  0  0  0  0  0  0  0  0
    5.6855    0.7074   22.1002 H   0  0  0  0  0  0  0  0  0  0  0  0
    3.6634    2.0034   21.6926 H   0  0  0  0  0  0  0  0  0  0  0  0
    3.0111    2.6563   19.3629 H   0  0  0  0  0  0  0  0  0  0  0  0
    4.4370    1.9522   17.4626 H   0  0  0  0  0  0  0  0  0  0  0  0
    9.5095   -6.7607   25.4235 H   0  0  0  0  0  0  0  0  0  0  0  0
   10.6094   -5.7898   24.3961 H   0  0  0  0  0  0  0  0  0  0  0  0
    8.8947   -5.9784   23.9439 H   0  0  0  0  0  0  0  0  0  0  0  0
    9.2390    1.1684   24.8466 H   0  0  0  0  0  0  0  0  0  0  0  0
    7.7875    1.1860   23.8742 H   0  0  0  0  0  0  0  0  0  0  0  0
   10.6103    0.4565   22.8881 H   0  0  0  0  0  0  0  0  0  0  0  0
    8.2392   -1.5641   21.0954 H   0  0  0  0  0  0  0  0  0  0  0  0
  1  2  2  0  0  0  0
  1  7  1  0  0  0  0
  2 10  1  0  0  0  0
  3  5  2  0  0  0  0
  3  9  1  0  0  0  0
  4  6  1  0  0  0  0
  4  9  2  0  0  0  0
  5 11  1  0  0  0  0
  6 11  2  0  0  0  0
  7 12  2  0  0  0  0
  8 10  2  0  0  0  0
  8 12  1  0  0  0  0
  9 22  1  0  0  0  0
 10 21  1  0  0  0  0
 11 28  1  0  0  0  0
 12 29  1  0  0  0  0
 13 14  2  0  0  0  0
 13 15  1  0  0  0  0
 13 25  1  0  0  0  0
 14 23  1  0  0  0  0
 14 26  1  0  0  0  0
 15 16  2  0  0  0  0
 16 17  1  0  0  0  0
 17 18  2  0  0  0  0
 18 25  1  0  0  0  0
 19 22  1  0  0  0  0
 19 26  1  0  0  0  0
 19 27  2  0  0  0  0
 20 28  1  0  0  0  0
 21 22  1  6  0  0  0
 23 24  2  0  0  0  0
 24 25  1  0  0  0  0
  1 30  1  0  0  0  0
  2 31  1  0  0  0  0
  3 32  1  0  0  0  0
  4 33  1  0  0  0  0
  5 34  1  0  0  0  0
  6 35  1  0  0  0  0
  7 36  1  0  0  0  0
  8 37  1  0  0  0  0
 15 38  1  0  0  0  0
 16 39  1  0  0  0  0
 17 40  1  0  0  0  0
 18 41  1  0  0  0  0
 20 42  1  0  0  0  0
 20 43  1  0  0  0  0
 20 44  1  0  0  0  0
 21 45  1  0  0  0  0
 21 46  1  0  0  0  0
 22 47  1  0  0  0  0
 26 48  1  0  0  0  0
M  END
> <clash_score>
0

> <docking_score>
-6.189409255981445

> <overlap_score>
0.8263979554176331

$$$$
BENZO_270_1
  -OEChem-08232013453D

 48 51  0     1  0  0  0  0  0999 V2000
   10.2856    4.3750   23.5656 C   0  0  0  0  0  0  0  0  0  0  0  0
   10.1350    2.9887   23.5349 C   0  0  0  0  0  0  0  0  0  0  0  0
    9.0720   -1.1280   24.8640 C   0  0  0  0  0  0  0  0  0  0  0  0
    9.7200   -2.2600   22.8630 C   0  0  0  0  0  0  0  0  0  0  0  0
    8.9960   -2.3380   25.5320 C   0  0  0  0  0  0  0  0  0  0  0  0
    9.6730   -3.4710   23.5300 C   0  0  0  0  0  0  0  0  0  0  0  0
   11.4735    4.9575   23.1236 C   0  0  0  0  0  0  0  0  0  0  0  0
   12.3603    2.7672   22.6205 C   0  0  0  0  0  0  0  0  0  0  0  0
    9.3350   -1.0880   23.5010 C   0  0  0  0  0  0  0  0  0  0  0  0
   11.1723    2.1848   23.0624 C   0  0  0  0  0  0  0  0  0  0  0  0
    9.3070   -3.5340   24.8780 C   0  0  0  0  0  0  0  0  0  0  0  0
   12.5108    4.1536   22.6511 C   0  0  0  0  0  0  0  0  0  0  0  0
    6.1790    0.5730   19.9990 C   0  0  0  0  0  0  0  0  0  0  0  0
    7.3170   -0.1610   19.8550 C   0  0  0  0  0  0  0  0  0  0  0  0
    5.4210    0.9600   21.0930 C   0  0  0  0  0  0  0  0  0  0  0  0
    4.2750    1.7050   20.8490 C   0  0  0  0  0  0  0  0  0  0  0  0
    3.9160    2.0630   19.5520 C   0  0  0  0  0  0  0  0  0  0  0  0
    4.6890    1.6810   18.4640 C   0  0  0  0  0  0  0  0  0  0  0  0
    9.0420    0.3700   21.5280 C   0  0  0  0  0  0  0  0  0  0  0  0
    9.5904   -5.8808   24.7807 C   0  0  0  0  0  0  0  0  0  0  0  0
   11.0089    0.6825   23.0307 C   0  0  0  0  0  0  0  0  0  0  0  0
    9.4560    0.1560   22.8130 C   0  0  1  0  0  0  0  0  0  0  0  0
    7.6390   -0.2680   18.5410 N   0  0  0  0  0  0  0  0  0  0  0  0
    6.7580    0.3810   17.8350 N   0  0  0  0  0  0  0  0  0  0  0  0
    5.8300    0.9190   18.6970 N   0  0  0  0  0  0  0  0  0  0  0  0
    8.1890   -0.7180   20.8700 N   0  0  0  0  0  0  0  0  0  0  0  0
    9.2690    1.4140   20.9380 O   0  0  0  0  0  0  0  0  0  0  0  0
    9.2567   -4.7121   25.5280 O   0  0  0  0  0  0  0  0  0  0  0  0
   13.9766    4.8727   22.1070 Cl  0  0  0  0  0  0  0  0  0  0  0  0
    9.4776    5.0007   23.9337 H   0  0  0  0  0  0  0  0  0  0  0  0
    9.2060    2.5434   23.8814 H   0  0  0  0  0  0  0  0  0  0  0  0
    8.9224   -0.1986   25.4209 H   0  0  0  0  0  0  0  0  0  0  0  0
   10.0638   -2.2321   21.8253 H   0  0  0  0  0  0  0  0  0  0  0  0
    8.6903   -2.3588   26.5807 H   0  0  0  0  0  0  0  0  0  0  0  0
    9.9258   -4.3917   22.9962 H   0  0  0  0  0  0  0  0  0  0  0  0
   11.5769    6.0394   23.1535 H   0  0  0  0  0  0  0  0  0  0  0  0
   13.1659    2.1361   22.2525 H   0  0  0  0  0  0  0  0  0  0  0  0
    5.6855    0.7074   22.1002 H   0  0  0  0  0  0  0  0  0  0  0  0
    3.6634    2.0034   21.6926 H   0  0  0  0  0  0  0  0  0  0  0  0
    3.0111    2.6563   19.3629 H   0  0  0  0  0  0  0  0  0  0  0  0
    4.4370    1.9522   17.4626 H   0  0  0  0  0  0  0  0  0  0  0  0
    9.5095   -6.7607   25.4235 H   0  0  0  0  0  0  0  0  0  0  0  0
   10.6094   -5.7898   24.3961 H   0  0  0  0  0  0  0  0  0  0  0  0
    8.8947   -5.9784   23.9439 H   0  0  0  0  0  0  0  0  0  0  0  0
   11.6011    0.2707   22.2030 H   0  0  0  0  0  0  0  0  0  0  0  0
   11.4624    0.2744   23.9446 H   0  0  0  0  0  0  0  0  0  0  0  0
    8.9284    0.9668   23.5149 H   0  0  0  0  0  0  0  0  0  0  0  0
    8.2392   -1.5641   21.0954 H   0  0  0  0  0  0  0  0  0  0  0  0
  1  2  2  0  0  0  0
  1  7  1  0  0  0  0
  2 10  1  0  0  0  0
  3  5  2  0  0  0  0
  3  9  1  0  0  0  0
  4  6  1  0  0  0  0
  4  9  2  0  0  0  0
  5 11  1  0  0  0  0
  6 11  2  0  0  0  0
  7 12  2  0  0  0  0
  8 10  2  0  0  0  0
  8 12  1  0  0  0  0
  9 22  1  0  0  0  0
 10 21  1  0  0  0  0
 11 28  1  0  0  0  0
 12 29  1  0  0  0  0
 13 14  2  0  0  0  0
 13 15  1  0  0  0  0
 13 25  1  0  0  0  0
 14 23  1  0  0  0  0
 14 26  1  0  0  0  0
 15 16  2  0  0  0  0
 16 17  1  0  0  0  0
 17 18  2  0  0  0  0
 18 25  1  0  0  0  0
 19 22  1  0  0  0  0
 19 26  1  0  0  0  0
 19 27  2  0  0  0  0
 20 28  1  0  0  0  0
 21 22  1  1  0  0  0
 23 24  2  0  0  0  0
 24 25  1  0  0  0  0
  1 30  1  0  0  0  0
  2 31  1  0  0  0  0
  3 32  1  0  0  0  0
  4 33  1  0  0  0  0
  5 34  1  0  0  0  0
  6 35  1  0  0  0  0
  7 36  1  0  0  0  0
  8 37  1  0  0  0  0
 15 38  1  0  0  0  0
 16 39  1  0  0  0  0
 17 40  1  0  0  0  0
 18 41  1  0  0  0  0
 20 42  1  0  0  0  0
 20 43  1  0  0  0  0
 20 44  1  0  0  0  0
 21 45  1  0  0  0  0
 21 46  1  0  0  0  0
 22 47  1  0  0  0  0
 26 48  1  0  0  0  0
M  END
> <clash_score>
0

> <docking_score>
-10.74406909942627

> <overlap_score>
0.9156607389450073

$$$$
BENZO_273_1
  -OEChem-08232013453D

 58 62  0     1  0  0  0  0  0999 V2000
    9.5866    5.4188   22.6538 C   0  0  0  0  0  0  0  0  0  0  0  0
    8.4494    5.0927   23.3926 C   0  0  0  0  0  0  0  0  0  0  0  0
   10.4928    4.4220   22.2918 C   0  0  0  0  0  0  0  0  0  0  0  0
    8.2182    3.7698   23.7695 C   0  0  0  0  0  0  0  0  0  0  0  0
   10.2616    3.0991   22.6687 C   0  0  0  0  0  0  0  0  0  0  0  0
    9.0720   -1.1280   24.8640 C   0  0  0  0  0  0  0  0  0  0  0  0
    9.7200   -2.2600   22.8630 C   0  0  0  0  0  0  0  0  0  0  0  0
    8.9960   -2.3380   25.5320 C   0  0  0  0  0  0  0  0  0  0  0  0
    9.6730   -3.4710   23.5300 C   0  0  0  0  0  0  0  0  0  0  0  0
    9.1243    2.7729   23.4076 C   0  0  0  0  0  0  0  0  0  0  0  0
    9.3350   -1.0880   23.5010 C   0  0  0  0  0  0  0  0  0  0  0  0
    9.3070   -3.5340   24.8780 C   0  0  0  0  0  0  0  0  0  0  0  0
    6.1790    0.5730   19.9990 C   0  0  0  0  0  0  0  0  0  0  0  0
    7.3170   -0.1610   19.8550 C   0  0  0  0  0  0  0  0  0  0  0  0
    5.4210    0.9600   21.0930 C   0  0  0  0  0  0  0  0  0  0  0  0
    4.2750    1.7050   20.8490 C   0  0  0  0  0  0  0  0  0  0  0  0
    3.9160    2.0630   19.5520 C   0  0  0  0  0  0  0  0  0  0  0  0
    4.6890    1.6810   18.4640 C   0  0  0  0  0  0  0  0  0  0  0  0
    8.3596   -5.0075   26.6307 C   0  0  0  0  0  0  0  0  0  0  0  0
    9.0420    0.3700   21.5280 C   0  0  0  0  0  0  0  0  0  0  0  0
    8.4579   -6.4048   27.2167 C   0  0  0  0  0  0  0  0  0  0  0  0
    8.4717   -7.4504   26.1157 C   0  0  0  0  0  0  0  0  0  0  0  0
    9.5645   -7.1893   25.0840 C   0  0  0  0  0  0  0  0  0  0  0  0
   10.2327   -5.8252   25.2500 C   0  0  0  0  0  0  0  0  0  0  0  0
    8.8746    1.3393   23.8159 C   0  0  0  0  0  0  0  0  0  0  0  0
    9.4560    0.1560   22.8130 C   0  0  1  0  0  0  0  0  0  0  0  0
    7.6390   -0.2680   18.5410 N   0  0  0  0  0  0  0  0  0  0  0  0
    6.7580    0.3810   17.8350 N   0  0  0  0  0  0  0  0  0  0  0  0
    5.8300    0.9190   18.6970 N   0  0  0  0  0  0  0  0  0  0  0  0
    9.2529   -4.7799   25.5644 N   0  0  0  0  0  0  0  0  0  0  0  0
    8.1890   -0.7180   20.8700 N   0  0  0  0  0  0  0  0  0  0  0  0
    7.5989   -4.1866   27.1423 O   0  0  0  0  0  0  0  0  0  0  0  0
    9.2690    1.4140   20.9380 O   0  0  0  0  0  0  0  0  0  0  0  0
    9.7658    6.4488   22.3592 H   0  0  0  0  0  0  0  0  0  0  0  0
    7.7431    5.8685   23.6736 H   0  0  0  0  0  0  0  0  0  0  0  0
   11.3777    4.6754   21.7157 H   0  0  0  0  0  0  0  0  0  0  0  0
    7.3295    3.5250   24.3452 H   0  0  0  0  0  0  0  0  0  0  0  0
   10.9731    2.3291   22.3824 H   0  0  0  0  0  0  0  0  0  0  0  0
    8.9202   -0.1986   25.4206 H   0  0  0  0  0  0  0  0  0  0  0  0
   10.0631   -2.2319   21.8252 H   0  0  0  0  0  0  0  0  0  0  0  0
    8.6898   -2.3534   26.5810 H   0  0  0  0  0  0  0  0  0  0  0  0
    9.9254   -4.3899   22.9914 H   0  0  0  0  0  0  0  0  0  0  0  0
    5.6855    0.7074   22.1002 H   0  0  0  0  0  0  0  0  0  0  0  0
    3.6634    2.0034   21.6926 H   0  0  0  0  0  0  0  0  0  0  0  0
    3.0111    2.6563   19.3629 H   0  0  0  0  0  0  0  0  0  0  0  0
    4.4370    1.9522   17.4626 H   0  0  0  0  0  0  0  0  0  0  0  0
    9.3705   -6.4746   27.7883 H   0  0  0  0  0  0  0  0  0  0  0  0
    7.6054   -6.5499   27.8634 H   0  0  0  0  0  0  0  0  0  0  0  0
    8.6096   -8.4605   26.5547 H   0  0  0  0  0  0  0  0  0  0  0  0
    7.4835   -7.4764   25.6139 H   0  0  0  0  0  0  0  0  0  0  0  0
   10.3359   -7.9850   25.1529 H   0  0  0  0  0  0  0  0  0  0  0  0
    9.1459   -7.2795   24.0580 H   0  0  0  0  0  0  0  0  0  0  0  0
   10.9408   -5.8640   26.0724 H   0  0  0  0  0  0  0  0  0  0  0  0
   10.7522   -5.5631   24.3346 H   0  0  0  0  0  0  0  0  0  0  0  0
    9.2322    1.1871   24.8426 H   0  0  0  0  0  0  0  0  0  0  0  0
    7.7874    1.1856   23.8602 H   0  0  0  0  0  0  0  0  0  0  0  0
   10.6111    0.4644   22.8838 H   0  0  0  0  0  0  0  0  0  0  0  0
    8.2585   -1.5522   21.1129 H   0  0  0  0  0  0  0  0  0  0  0  0
  1  2  1  0  0  0  0
  1  3  2  0  0  0  0
  2  4  2  0  0  0  0
  3  5  1  0  0  0  0
  4 10  1  0  0  0  0
  5 10  2  0  0  0  0
  6  8  2  0  0  0  0
  6 11  1  0  0  0  0
  7  9  1  0  0  0  0
  7 11  2  0  0  0  0
  8 12  1  0  0  0  0
  9 12  2  0  0  0  0
 10 25  1  0  0  0  0
 11 26  1  0  0  0  0
 12 30  1  0  0  0  0
 13 14  2  0  0  0  0
 13 15  1  0  0  0  0
 13 29  1  0  0  0  0
 14 27  1  0  0  0  0
 14 31  1  0  0  0  0
 15 16  2  0  0  0  0
 16 17  1  0  0  0  0
 17 18  2  0  0  0  0
 18 29  1  0  0  0  0
 19 21  1  0  0  0  0
 19 30  1  0  0  0  0
 19 32  2  0  0  0  0
 20 26  1  1  0  0  0
 20 31  1  0  0  0  0
 20 33  2  0  0  0  0
 21 22  1  0  0  0  0
 22 23  1  0  0  0  0
 23 24  1  0  0  0  0
 24 30  1  0  0  0  0
 25 26  1  0  0  0  0
 27 28  2  0  0  0  0
 28 29  1  0  0  0  0
  1 34  1  0  0  0  0
  2 35  1  0  0  0  0
  3 36  1  0  0  0  0
  4 37  1  0  0  0  0
  5 38  1  0  0  0  0
  6 39  1  0  0  0  0
  7 40  1  0  0  0  0
  8 41  1  0  0  0  0
  9 42  1  0  0  0  0
 15 43  1  0  0  0  0
 16 44  1  0  0  0  0
 17 45  1  0  0  0  0
 18 46  1  0  0  0  0
 21 47  1  0  0  0  0
 21 48  1  0  0  0  0
 22 49  1  0  0  0  0
 22 50  1  0  0  0  0
 23 51  1  0  0  0  0
 23 52  1  0  0  0  0
 24 53  1  0  0  0  0
 24 54  1  0  0  0  0
 25 55  1  0  0  0  0
 25 56  1  0  0  0  0
 26 57  1  0  0  0  0
 31 58  1  0  0  0  0
M  END
> <clash_score>
0.6354372295654396

> <docking_score>
-6.010784149169922

> <overlap_score>
0.8699353337287903

$$$$
BENZO_273_2
  -OEChem-08232013453D

 58 62  0     1  0  0  0  0  0999 V2000
   11.4754    4.9664   23.0810 C   0  0  0  0  0  0  0  0  0  0  0  0
   12.5124    4.1581   22.6156 C   0  0  0  0  0  0  0  0  0  0  0  0
   10.2875    4.3882   23.5285 C   0  0  0  0  0  0  0  0  0  0  0  0
   12.3617    2.7715   22.5976 C   0  0  0  0  0  0  0  0  0  0  0  0
   10.1367    3.0016   23.5105 C   0  0  0  0  0  0  0  0  0  0  0  0
    9.0720   -1.1280   24.8640 C   0  0  0  0  0  0  0  0  0  0  0  0
    9.7200   -2.2600   22.8630 C   0  0  0  0  0  0  0  0  0  0  0  0
    8.9960   -2.3380   25.5320 C   0  0  0  0  0  0  0  0  0  0  0  0
    9.6730   -3.4710   23.5300 C   0  0  0  0  0  0  0  0  0  0  0  0
   11.1738    2.1933   23.0451 C   0  0  0  0  0  0  0  0  0  0  0  0
    9.3350   -1.0880   23.5010 C   0  0  0  0  0  0  0  0  0  0  0  0
    9.3070   -3.5340   24.8780 C   0  0  0  0  0  0  0  0  0  0  0  0
    6.1790    0.5730   19.9990 C   0  0  0  0  0  0  0  0  0  0  0  0
    7.3170   -0.1610   19.8550 C   0  0  0  0  0  0  0  0  0  0  0  0
    5.4210    0.9600   21.0930 C   0  0  0  0  0  0  0  0  0  0  0  0
    4.2750    1.7050   20.8490 C   0  0  0  0  0  0  0  0  0  0  0  0
    3.9160    2.0630   19.5520 C   0  0  0  0  0  0  0  0  0  0  0  0
    4.6890    1.6810   18.4640 C   0  0  0  0  0  0  0  0  0  0  0  0
    8.3596   -5.0074   26.6306 C   0  0  0  0  0  0  0  0  0  0  0  0
    9.0420    0.3700   21.5280 C   0  0  0  0  0  0  0  0  0  0  0  0
    8.4719   -6.3982   27.2294 C   0  0  0  0  0  0  0  0  0  0  0  0
    9.9251   -6.7607   27.4801 C   0  0  0  0  0  0  0  0  0  0  0  0
   10.7833   -6.6095   26.2280 C   0  0  0  0  0  0  0  0  0  0  0  0
   10.0539   -5.9100   25.0821 C   0  0  0  0  0  0  0  0  0  0  0  0
   11.0096    0.6909   23.0257 C   0  0  0  0  0  0  0  0  0  0  0  0
    9.4560    0.1560   22.8130 C   0  0  2  0  0  0  0  0  0  0  0  0
    7.6390   -0.2680   18.5410 N   0  0  0  0  0  0  0  0  0  0  0  0
    6.7580    0.3810   17.8350 N   0  0  0  0  0  0  0  0  0  0  0  0
    5.8300    0.9190   18.6970 N   0  0  0  0  0  0  0  0  0  0  0  0
    9.2529   -4.7797   25.5643 N   0  0  0  0  0  0  0  0  0  0  0  0
    8.1890   -0.7180   20.8700 N   0  0  0  0  0  0  0  0  0  0  0  0
    7.4954   -4.2357   27.0448 O   0  0  0  0  0  0  0  0  0  0  0  0
    9.2690    1.4140   20.9380 O   0  0  0  0  0  0  0  0  0  0  0  0
   11.5934    6.0460   23.0962 H   0  0  0  0  0  0  0  0  0  0  0  0
   13.4379    4.6081   22.2681 H   0  0  0  0  0  0  0  0  0  0  0  0
    9.4802    5.0172   23.8920 H   0  0  0  0  0  0  0  0  0  0  0  0
   13.1750    2.1496   22.2331 H   0  0  0  0  0  0  0  0  0  0  0  0
    9.2076    2.5600   23.8610 H   0  0  0  0  0  0  0  0  0  0  0  0
    8.9202   -0.1986   25.4206 H   0  0  0  0  0  0  0  0  0  0  0  0
   10.0631   -2.2319   21.8252 H   0  0  0  0  0  0  0  0  0  0  0  0
    8.6898   -2.3534   26.5810 H   0  0  0  0  0  0  0  0  0  0  0  0
    9.9254   -4.3899   22.9914 H   0  0  0  0  0  0  0  0  0  0  0  0
    5.6855    0.7074   22.1002 H   0  0  0  0  0  0  0  0  0  0  0  0
    3.6634    2.0034   21.6926 H   0  0  0  0  0  0  0  0  0  0  0  0
    3.0111    2.6563   19.3629 H   0  0  0  0  0  0  0  0  0  0  0  0
    4.4370    1.9522   17.4626 H   0  0  0  0  0  0  0  0  0  0  0  0
    7.9324   -6.4149   28.1639 H   0  0  0  0  0  0  0  0  0  0  0  0
    8.0254   -7.0921   26.5330 H   0  0  0  0  0  0  0  0  0  0  0  0
   10.3386   -6.1268   28.2921 H   0  0  0  0  0  0  0  0  0  0  0  0
    9.9903   -7.8025   27.8535 H   0  0  0  0  0  0  0  0  0  0  0  0
   11.7036   -6.0405   26.4770 H   0  0  0  0  0  0  0  0  0  0  0  0
   11.1411   -7.6069   25.8917 H   0  0  0  0  0  0  0  0  0  0  0  0
   10.7783   -5.5162   24.3756 H   0  0  0  0  0  0  0  0  0  0  0  0
    9.4042   -6.6189   24.5805 H   0  0  0  0  0  0  0  0  0  0  0  0
   11.6022    0.2720   22.2019 H   0  0  0  0  0  0  0  0  0  0  0  0
   11.4622    0.2902   23.9433 H   0  0  0  0  0  0  0  0  0  0  0  0
    8.9292    0.9747   23.5105 H   0  0  0  0  0  0  0  0  0  0  0  0
    8.2585   -1.5522   21.1129 H   0  0  0  0  0  0  0  0  0  0  0  0
  1  2  1  0  0  0  0
  1  3  2  0  0  0  0
  2  4  2  0  0  0  0
  3  5  1  0  0  0  0
  4 10  1  0  0  0  0
  5 10  2  0  0  0  0
  6  8  2  0  0  0  0
  6 11  1  0  0  0  0
  7  9  1  0  0  0  0
  7 11  2  0  0  0  0
  8 12  1  0  0  0  0
  9 12  2  0  0  0  0
 10 25  1  0  0  0  0
 11 26  1  0  0  0  0
 12 30  1  0  0  0  0
 13 14  2  0  0  0  0
 13 15  1  0  0  0  0
 13 29  1  0  0  0  0
 14 27  1  0  0  0  0
 14 31  1  0  0  0  0
 15 16  2  0  0  0  0
 16 17  1  0  0  0  0
 17 18  2  0  0  0  0
 18 29  1  0  0  0  0
 19 21  1  0  0  0  0
 19 30  1  0  0  0  0
 19 32  2  0  0  0  0
 20 26  1  6  0  0  0
 20 31  1  0  0  0  0
 20 33  2  0  0  0  0
 21 22  1  0  0  0  0
 22 23  1  0  0  0  0
 23 24  1  0  0  0  0
 24 30  1  0  0  0  0
 25 26  1  0  0  0  0
 27 28  2  0  0  0  0
 28 29  1  0  0  0  0
  1 34  1  0  0  0  0
  2 35  1  0  0  0  0
  3 36  1  0  0  0  0
  4 37  1  0  0  0  0
  5 38  1  0  0  0  0
  6 39  1  0  0  0  0
  7 40  1  0  0  0  0
  8 41  1  0  0  0  0
  9 42  1  0  0  0  0
 15 43  1  0  0  0  0
 16 44  1  0  0  0  0
 17 45  1  0  0  0  0
 18 46  1  0  0  0  0
 21 47  1  0  0  0  0
 21 48  1  0  0  0  0
 22 49  1  0  0  0  0
 22 50  1  0  0  0  0
 23 51  1  0  0  0  0
 23 52  1  0  0  0  0
 24 53  1  0  0  0  0
 24 54  1  0  0  0  0
 25 55  1  0  0  0  0
 25 56  1  0  0  0  0
 26 57  1  0  0  0  0
 31 58  1  0  0  0  0
M  END
> <clash_score>
0.7790931276820443

> <docking_score>
-9.62893009185791

> <overlap_score>
0.9542901515960693

$$$$
BENZO_272_1
  -OEChem-08232013453D

 55 59  0     1  0  0  0  0  0999 V2000
    9.0720   -1.1280   24.8640 C   0  0  0  0  0  0  0  0  0  0  0  0
    9.7200   -2.2600   22.8630 C   0  0  0  0  0  0  0  0  0  0  0  0
    8.9960   -2.3380   25.5320 C   0  0  0  0  0  0  0  0  0  0  0  0
    9.6730   -3.4710   23.5300 C   0  0  0  0  0  0  0  0  0  0  0  0
    8.1909    3.8305   23.6088 C   0  0  0  0  0  0  0  0  0  0  0  0
    8.6676    5.0367   23.1446 C   0  0  0  0  0  0  0  0  0  0  0  0
   10.2789    3.2112   22.7970 C   0  0  0  0  0  0  0  0  0  0  0  0
    9.3350   -1.0880   23.5010 C   0  0  0  0  0  0  0  0  0  0  0  0
    9.1243    2.7729   23.4076 C   0  0  0  0  0  0  0  0  0  0  0  0
    9.3070   -3.5340   24.8780 C   0  0  0  0  0  0  0  0  0  0  0  0
    6.1790    0.5730   19.9990 C   0  0  0  0  0  0  0  0  0  0  0  0
    7.3170   -0.1610   19.8550 C   0  0  0  0  0  0  0  0  0  0  0  0
    5.4210    0.9600   21.0930 C   0  0  0  0  0  0  0  0  0  0  0  0
    4.2750    1.7050   20.8490 C   0  0  0  0  0  0  0  0  0  0  0  0
    3.9160    2.0630   19.5520 C   0  0  0  0  0  0  0  0  0  0  0  0
    4.6890    1.6810   18.4640 C   0  0  0  0  0  0  0  0  0  0  0  0
    8.3596   -5.0075   26.6307 C   0  0  0  0  0  0  0  0  0  0  0  0
    9.0420    0.3700   21.5280 C   0  0  0  0  0  0  0  0  0  0  0  0
    8.4579   -6.4048   27.2167 C   0  0  0  0  0  0  0  0  0  0  0  0
    8.4717   -7.4504   26.1157 C   0  0  0  0  0  0  0  0  0  0  0  0
    9.5645   -7.1893   25.0840 C   0  0  0  0  0  0  0  0  0  0  0  0
   10.2327   -5.8252   25.2500 C   0  0  0  0  0  0  0  0  0  0  0  0
    8.8746    1.3393   23.8159 C   0  0  0  0  0  0  0  0  0  0  0  0
    9.4560    0.1560   22.8130 C   0  0  1  0  0  0  0  0  0  0  0  0
    7.6390   -0.2680   18.5410 N   0  0  0  0  0  0  0  0  0  0  0  0
    6.7580    0.3810   17.8350 N   0  0  0  0  0  0  0  0  0  0  0  0
    5.8300    0.9190   18.6970 N   0  0  0  0  0  0  0  0  0  0  0  0
    9.2529   -4.7799   25.5644 N   0  0  0  0  0  0  0  0  0  0  0  0
    8.1890   -0.7180   20.8700 N   0  0  0  0  0  0  0  0  0  0  0  0
    7.5989   -4.1866   27.1423 O   0  0  0  0  0  0  0  0  0  0  0  0
    9.2690    1.4140   20.9380 O   0  0  0  0  0  0  0  0  0  0  0  0
   10.2345    4.8913   22.4694 S   0  0  0  0  0  0  0  0  0  0  0  0
    8.9202   -0.1986   25.4206 H   0  0  0  0  0  0  0  0  0  0  0  0
   10.0631   -2.2319   21.8252 H   0  0  0  0  0  0  0  0  0  0  0  0
    8.6898   -2.3534   26.5810 H   0  0  0  0  0  0  0  0  0  0  0  0
    9.9254   -4.3899   22.9914 H   0  0  0  0  0  0  0  0  0  0  0  0
    7.2179    3.7166   24.0697 H   0  0  0  0  0  0  0  0  0  0  0  0
    8.1705    5.9961   23.1691 H   0  0  0  0  0  0  0  0  0  0  0  0
   11.1481    2.6284   22.5250 H   0  0  0  0  0  0  0  0  0  0  0  0
    5.6855    0.7074   22.1002 H   0  0  0  0  0  0  0  0  0  0  0  0
    3.6634    2.0034   21.6926 H   0  0  0  0  0  0  0  0  0  0  0  0
    3.0111    2.6563   19.3629 H   0  0  0  0  0  0  0  0  0  0  0  0
    4.4370    1.9522   17.4626 H   0  0  0  0  0  0  0  0  0  0  0  0
    9.3705   -6.4746   27.7883 H   0  0  0  0  0  0  0  0  0  0  0  0
    7.6054   -6.5499   27.8634 H   0  0  0  0  0  0  0  0  0  0  0  0
    8.6096   -8.4605   26.5547 H   0  0  0  0  0  0  0  0  0  0  0  0
    7.4835   -7.4764   25.6139 H   0  0  0  0  0  0  0  0  0  0  0  0
   10.3359   -7.9850   25.1529 H   0  0  0  0  0  0  0  0  0  0  0  0
    9.1459   -7.2795   24.0580 H   0  0  0  0  0  0  0  0  0  0  0  0
   10.9408   -5.8640   26.0724 H   0  0  0  0  0  0  0  0  0  0  0  0
   10.7522   -5.5631   24.3346 H   0  0  0  0  0  0  0  0  0  0  0  0
    9.2322    1.1871   24.8426 H   0  0  0  0  0  0  0  0  0  0  0  0
    7.7874    1.1856   23.8602 H   0  0  0  0  0  0  0  0  0  0  0  0
   10.6111    0.4644   22.8838 H   0  0  0  0  0  0  0  0  0  0  0  0
    8.2585   -1.5522   21.1129 H   0  0  0  0  0  0  0  0  0  0  0  0
  1  3  2  0  0  0  0
  1  8  1  0  0  0  0
  2  4  1  0  0  0  0
  2  8  2  0  0  0  0
  3 10  1  0  0  0  0
  4 10  2  0  0  0  0
  5  6  2  0  0  0  0
  5  9  1  0  0  0  0
  6 32  1  0  0  0  0
  7  9  2  0  0  0  0
  7 32  1  0  0  0  0
  8 24  1  0  0  0  0
  9 23  1  0  0  0  0
 10 28  1  0  0  0  0
 11 12  2  0  0  0  0
 11 13  1  0  0  0  0
 11 27  1  0  0  0  0
 12 25  1  0  0  0  0
 12 29  1  0  0  0  0
 13 14  2  0  0  0  0
 14 15  1  0  0  0  0
 15 16  2  0  0  0  0
 16 27  1  0  0  0  0
 17 19  1  0  0  0  0
 17 28  1  0  0  0  0
 17 30  2  0  0  0  0
 18 24  1  1  0  0  0
 18 29  1  0  0  0  0
 18 31  2  0  0  0  0
 19 20  1  0  0  0  0
 20 21  1  0  0  0  0
 21 22  1  0  0  0  0
 22 28  1  0  0  0  0
 23 24  1  0  0  0  0
 25 26  2  0  0  0  0
 26 27  1  0  0  0  0
  1 33  1  0  0  0  0
  2 34  1  0  0  0  0
  3 35  1  0  0  0  0
  4 36  1  0  0  0  0
  5 37  1  0  0  0  0
  6 38  1  0  0  0  0
  7 39  1  0  0  0  0
 13 40  1  0  0  0  0
 14 41  1  0  0  0  0
 15 42  1  0  0  0  0
 16 43  1  0  0  0  0
 19 44  1  0  0  0  0
 19 45  1  0  0  0  0
 20 46  1  0  0  0  0
 20 47  1  0  0  0  0
 21 48  1  0  0  0  0
 21 49  1  0  0  0  0
 22 50  1  0  0  0  0
 22 51  1  0  0  0  0
 23 52  1  0  0  0  0
 23 53  1  0  0  0  0
 24 54  1  0  0  0  0
 29 55  1  0  0  0  0
M  END
> <clash_score>
0.6354372295654396

> <docking_score>
-6.420329570770264

> <overlap_score>
0.8692851066589355

$$$$
BENZO_272_2
  -OEChem-08232013453D

 55 59  0     1  0  0  0  0  0999 V2000
    9.0720   -1.1280   24.8640 C   0  0  0  0  0  0  0  0  0  0  0  0
    9.7200   -2.2600   22.8630 C   0  0  0  0  0  0  0  0  0  0  0  0
    8.9960   -2.3380   25.5320 C   0  0  0  0  0  0  0  0  0  0  0  0
    9.6730   -3.4710   23.5300 C   0  0  0  0  0  0  0  0  0  0  0  0
   11.9814    2.9163   22.1204 C   0  0  0  0  0  0  0  0  0  0  0  0
   11.9562    4.2724   22.3614 C   0  0  0  0  0  0  0  0  0  0  0  0
   10.5621    3.0244   23.9579 C   0  0  0  0  0  0  0  0  0  0  0  0
    9.3350   -1.0880   23.5010 C   0  0  0  0  0  0  0  0  0  0  0  0
   11.1738    2.1933   23.0451 C   0  0  0  0  0  0  0  0  0  0  0  0
    9.3070   -3.5340   24.8780 C   0  0  0  0  0  0  0  0  0  0  0  0
    6.1790    0.5730   19.9990 C   0  0  0  0  0  0  0  0  0  0  0  0
    7.3170   -0.1610   19.8550 C   0  0  0  0  0  0  0  0  0  0  0  0
    5.4210    0.9600   21.0930 C   0  0  0  0  0  0  0  0  0  0  0  0
    4.2750    1.7050   20.8490 C   0  0  0  0  0  0  0  0  0  0  0  0
    3.9160    2.0630   19.5520 C   0  0  0  0  0  0  0  0  0  0  0  0
    4.6890    1.6810   18.4640 C   0  0  0  0  0  0  0  0  0  0  0  0
    8.3596   -5.0074   26.6306 C   0  0  0  0  0  0  0  0  0  0  0  0
    9.0420    0.3700   21.5280 C   0  0  0  0  0  0  0  0  0  0  0  0
    8.4719   -6.3982   27.2294 C   0  0  0  0  0  0  0  0  0  0  0  0
    9.9251   -6.7607   27.4801 C   0  0  0  0  0  0  0  0  0  0  0  0
   10.7833   -6.6095   26.2280 C   0  0  0  0  0  0  0  0  0  0  0  0
   10.0539   -5.9100   25.0821 C   0  0  0  0  0  0  0  0  0  0  0  0
   11.0096    0.6909   23.0257 C   0  0  0  0  0  0  0  0  0  0  0  0
    9.4560    0.1560   22.8130 C   0  0  2  0  0  0  0  0  0  0  0  0
    7.6390   -0.2680   18.5410 N   0  0  0  0  0  0  0  0  0  0  0  0
    6.7580    0.3810   17.8350 N   0  0  0  0  0  0  0  0  0  0  0  0
    5.8300    0.9190   18.6970 N   0  0  0  0  0  0  0  0  0  0  0  0
    9.2529   -4.7797   25.5643 N   0  0  0  0  0  0  0  0  0  0  0  0
    8.1890   -0.7180   20.8700 N   0  0  0  0  0  0  0  0  0  0  0  0
    7.4954   -4.2357   27.0448 O   0  0  0  0  0  0  0  0  0  0  0  0
    9.2690    1.4140   20.9380 O   0  0  0  0  0  0  0  0  0  0  0  0
   10.9619    4.6690   23.6979 S   0  0  0  0  0  0  0  0  0  0  0  0
    8.9202   -0.1986   25.4206 H   0  0  0  0  0  0  0  0  0  0  0  0
   10.0631   -2.2319   21.8252 H   0  0  0  0  0  0  0  0  0  0  0  0
    8.6898   -2.3534   26.5810 H   0  0  0  0  0  0  0  0  0  0  0  0
    9.9254   -4.3899   22.9914 H   0  0  0  0  0  0  0  0  0  0  0  0
   12.5539    2.4685   21.3179 H   0  0  0  0  0  0  0  0  0  0  0  0
   12.4745    5.0491   21.8171 H   0  0  0  0  0  0  0  0  0  0  0  0
    9.9000    2.7485   24.7669 H   0  0  0  0  0  0  0  0  0  0  0  0
    5.6855    0.7074   22.1002 H   0  0  0  0  0  0  0  0  0  0  0  0
    3.6634    2.0034   21.6926 H   0  0  0  0  0  0  0  0  0  0  0  0
    3.0111    2.6563   19.3629 H   0  0  0  0  0  0  0  0  0  0  0  0
    4.4370    1.9522   17.4626 H   0  0  0  0  0  0  0  0  0  0  0  0
    7.9324   -6.4149   28.1639 H   0  0  0  0  0  0  0  0  0  0  0  0
    8.0254   -7.0921   26.5330 H   0  0  0  0  0  0  0  0  0  0  0  0
   10.3386   -6.1268   28.2921 H   0  0  0  0  0  0  0  0  0  0  0  0
    9.9903   -7.8025   27.8535 H   0  0  0  0  0  0  0  0  0  0  0  0
   11.7036   -6.0405   26.4770 H   0  0  0  0  0  0  0  0  0  0  0  0
   11.1411   -7.6069   25.8917 H   0  0  0  0  0  0  0  0  0  0  0  0
   10.7783   -5.5162   24.3756 H   0  0  0  0  0  0  0  0  0  0  0  0
    9.4042   -6.6189   24.5805 H   0  0  0  0  0  0  0  0  0  0  0  0
   11.6022    0.2720   22.2019 H   0  0  0  0  0  0  0  0  0  0  0  0
   11.4622    0.2902   23.9433 H   0  0  0  0  0  0  0  0  0  0  0  0
    8.9292    0.9747   23.5105 H   0  0  0  0  0  0  0  0  0  0  0  0
    8.2585   -1.5522   21.1129 H   0  0  0  0  0  0  0  0  0  0  0  0
  1  3  2  0  0  0  0
  1  8  1  0  0  0  0
  2  4  1  0  0  0  0
  2  8  2  0  0  0  0
  3 10  1  0  0  0  0
  4 10  2  0  0  0  0
  5  6  2  0  0  0  0
  5  9  1  0  0  0  0
  6 32  1  0  0  0  0
  7  9  2  0  0  0  0
  7 32  1  0  0  0  0
  8 24  1  0  0  0  0
  9 23  1  0  0  0  0
 10 28  1  0  0  0  0
 11 12  2  0  0  0  0
 11 13  1  0  0  0  0
 11 27  1  0  0  0  0
 12 25  1  0  0  0  0
 12 29  1  0  0  0  0
 13 14  2  0  0  0  0
 14 15  1  0  0  0  0
 15 16  2  0  0  0  0
 16 27  1  0  0  0  0
 17 19  1  0  0  0  0
 17 28  1  0  0  0  0
 17 30  2  0  0  0  0
 18 24  1  6  0  0  0
 18 29  1  0  0  0  0
 18 31  2  0  0  0  0
 19 20  1  0  0  0  0
 20 21  1  0  0  0  0
 21 22  1  0  0  0  0
 22 28  1  0  0  0  0
 23 24  1  0  0  0  0
 25 26  2  0  0  0  0
 26 27  1  0  0  0  0
  1 33  1  0  0  0  0
  2 34  1  0  0  0  0
  3 35  1  0  0  0  0
  4 36  1  0  0  0  0
  5 37  1  0  0  0  0
  6 38  1  0  0  0  0
  7 39  1  0  0  0  0
 13 40  1  0  0  0  0
 14 41  1  0  0  0  0
 15 42  1  0  0  0  0
 16 43  1  0  0  0  0
 19 44  1  0  0  0  0
 19 45  1  0  0  0  0
 20 46  1  0  0  0  0
 20 47  1  0  0  0  0
 21 48  1  0  0  0  0
 21 49  1  0  0  0  0
 22 50  1  0  0  0  0
 22 51  1  0  0  0  0
 23 52  1  0  0  0  0
 23 53  1  0  0  0  0
 24 54  1  0  0  0  0
 29 55  1  0  0  0  0
M  END
> <clash_score>
0.7790931276820443

> <docking_score>
-8.686888694763184

> <overlap_score>
0.9418492913246155

$$$$
BENZO_275_2
  -OEChem-08232013453D

 58 62  0     1  0  0  0  0  0999 V2000
    9.0720   -1.1280   24.8640 C   0  0  0  0  0  0  0  0  0  0  0  0
    9.7200   -2.2600   22.8630 C   0  0  0  0  0  0  0  0  0  0  0  0
    8.9960   -2.3380   25.5320 C   0  0  0  0  0  0  0  0  0  0  0  0
    9.6730   -3.4710   23.5300 C   0  0  0  0  0  0  0  0  0  0  0  0
    8.3074    3.5997   22.6132 C   0  0  0  0  0  0  0  0  0  0  0  0
   10.2002    3.5628   23.7317 C   0  0  0  0  0  0  0  0  0  0  0  0
    9.3350   -1.0880   23.5010 C   0  0  0  0  0  0  0  0  0  0  0  0
    9.1243    2.7729   23.4076 C   0  0  0  0  0  0  0  0  0  0  0  0
    9.3070   -3.5340   24.8780 C   0  0  0  0  0  0  0  0  0  0  0  0
    6.1790    0.5730   19.9990 C   0  0  0  0  0  0  0  0  0  0  0  0
    7.3170   -0.1610   19.8550 C   0  0  0  0  0  0  0  0  0  0  0  0
    5.4210    0.9600   21.0930 C   0  0  0  0  0  0  0  0  0  0  0  0
    4.2750    1.7050   20.8490 C   0  0  0  0  0  0  0  0  0  0  0  0
    3.9160    2.0630   19.5520 C   0  0  0  0  0  0  0  0  0  0  0  0
    4.6890    1.6810   18.4640 C   0  0  0  0  0  0  0  0  0  0  0  0
    8.3596   -5.0075   26.6307 C   0  0  0  0  0  0  0  0  0  0  0  0
    9.0420    0.3700   21.5280 C   0  0  0  0  0  0  0  0  0  0  0  0
    8.4579   -6.4048   27.2167 C   0  0  0  0  0  0  0  0  0  0  0  0
    8.4717   -7.4504   26.1157 C   0  0  0  0  0  0  0  0  0  0  0  0
    9.5645   -7.1893   25.0840 C   0  0  0  0  0  0  0  0  0  0  0  0
   10.2327   -5.8252   25.2500 C   0  0  0  0  0  0  0  0  0  0  0  0
   10.8289    5.9272   23.1904 C   0  0  0  0  0  0  0  0  0  0  0  0
    8.8746    1.3393   23.8159 C   0  0  0  0  0  0  0  0  0  0  0  0
    9.4560    0.1560   22.8130 C   0  0  2  0  0  0  0  0  0  0  0  0
    8.8204    4.8212   22.4432 N   0  0  0  0  0  0  0  0  0  0  0  0
    7.6390   -0.2680   18.5410 N   0  0  0  0  0  0  0  0  0  0  0  0
    6.7580    0.3810   17.8350 N   0  0  0  0  0  0  0  0  0  0  0  0
    9.9711    4.7678   23.1353 N   0  0  0  0  0  0  0  0  0  0  0  0
    5.8300    0.9190   18.6970 N   0  0  0  0  0  0  0  0  0  0  0  0
    9.2529   -4.7799   25.5644 N   0  0  0  0  0  0  0  0  0  0  0  0
    8.1890   -0.7180   20.8700 N   0  0  0  0  0  0  0  0  0  0  0  0
    7.5989   -4.1866   27.1423 O   0  0  0  0  0  0  0  0  0  0  0  0
    9.2690    1.4140   20.9380 O   0  0  0  0  0  0  0  0  0  0  0  0
    8.9202   -0.1986   25.4206 H   0  0  0  0  0  0  0  0  0  0  0  0
   10.0631   -2.2319   21.8252 H   0  0  0  0  0  0  0  0  0  0  0  0
    8.6898   -2.3534   26.5810 H   0  0  0  0  0  0  0  0  0  0  0  0
    9.9254   -4.3899   22.9914 H   0  0  0  0  0  0  0  0  0  0  0  0
    7.3589    3.3656   22.1509 H   0  0  0  0  0  0  0  0  0  0  0  0
   11.0867    3.3751   24.3223 H   0  0  0  0  0  0  0  0  0  0  0  0
    5.6855    0.7074   22.1002 H   0  0  0  0  0  0  0  0  0  0  0  0
    3.6634    2.0034   21.6926 H   0  0  0  0  0  0  0  0  0  0  0  0
    3.0111    2.6563   19.3629 H   0  0  0  0  0  0  0  0  0  0  0  0
    4.4370    1.9522   17.4626 H   0  0  0  0  0  0  0  0  0  0  0  0
    9.3705   -6.4746   27.7883 H   0  0  0  0  0  0  0  0  0  0  0  0
    7.6054   -6.5499   27.8634 H   0  0  0  0  0  0  0  0  0  0  0  0
    8.6096   -8.4605   26.5547 H   0  0  0  0  0  0  0  0  0  0  0  0
    7.4835   -7.4764   25.6139 H   0  0  0  0  0  0  0  0  0  0  0  0
   10.3359   -7.9850   25.1529 H   0  0  0  0  0  0  0  0  0  0  0  0
    9.1459   -7.2795   24.0580 H   0  0  0  0  0  0  0  0  0  0  0  0
   10.9408   -5.8640   26.0724 H   0  0  0  0  0  0  0  0  0  0  0  0
   10.7522   -5.5631   24.3346 H   0  0  0  0  0  0  0  0  0  0  0  0
   11.5266    5.8708   22.3507 H   0  0  0  0  0  0  0  0  0  0  0  0
   10.2208    6.8335   23.1219 H   0  0  0  0  0  0  0  0  0  0  0  0
   11.3712    5.9307   24.1400 H   0  0  0  0  0  0  0  0  0  0  0  0
    9.2322    1.1871   24.8426 H   0  0  0  0  0  0  0  0  0  0  0  0
    7.7874    1.1856   23.8602 H   0  0  0  0  0  0  0  0  0  0  0  0
   10.6111    0.4644   22.8838 H   0  0  0  0  0  0  0  0  0  0  0  0
    8.2585   -1.5522   21.1129 H   0  0  0  0  0  0  0  0  0  0  0  0
  1  3  2  0  0  0  0
  1  7  1  0  0  0  0
  2  4  1  0  0  0  0
  2  7  2  0  0  0  0
  3  9  1  0  0  0  0
  4  9  2  0  0  0  0
  5  8  1  0  0  0  0
  5 25  2  0  0  0  0
  6  8  2  0  0  0  0
  6 28  1  0  0  0  0
  7 24  1  0  0  0  0
  8 23  1  0  0  0  0
  9 30  1  0  0  0  0
 10 11  2  0  0  0  0
 10 12  1  0  0  0  0
 10 29  1  0  0  0  0
 11 26  1  0  0  0  0
 11 31  1  0  0  0  0
 12 13  2  0  0  0  0
 13 14  1  0  0  0  0
 14 15  2  0  0  0  0
 15 29  1  0  0  0  0
 16 18  1  0  0  0  0
 16 30  1  0  0  0  0
 16 32  2  0  0  0  0
 17 24  1  0  0  0  0
 17 31  1  0  0  0  0
 17 33  2  0  0  0  0
 18 19  1  0  0  0  0
 19 20  1  0  0  0  0
 20 21  1  0  0  0  0
 21 30  1  0  0  0  0
 22 28  1  0  0  0  0
 23 24  1  6  0  0  0
 25 28  1  0  0  0  0
 26 27  2  0  0  0  0
 27 29  1  0  0  0  0
  1 34  1  0  0  0  0
  2 35  1  0  0  0  0
  3 36  1  0  0  0  0
  4 37  1  0  0  0  0
  5 38  1  0  0  0  0
  6 39  1  0  0  0  0
 12 40  1  0  0  0  0
 13 41  1  0  0  0  0
 14 42  1  0  0  0  0
 15 43  1  0  0  0  0
 18 44  1  0  0  0  0
 18 45  1  0  0  0  0
 19 46  1  0  0  0  0
 19 47  1  0  0  0  0
 20 48  1  0  0  0  0
 20 49  1  0  0  0  0
 21 50  1  0  0  0  0
 21 51  1  0  0  0  0
 22 52  1  0  0  0  0
 22 53  1  0  0  0  0
 22 54  1  0  0  0  0
 23 55  1  0  0  0  0
 23 56  1  0  0  0  0
 24 57  1  0  0  0  0
 31 58  1  0  0  0  0
M  END
> <clash_score>
0.6354372295654396

> <docking_score>
-6.939146518707275

> <overlap_score>
0.8631774187088013

$$$$
BENZO_274_1
  -OEChem-08232013453D

 58 62  0     1  0  0  0  0  0999 V2000
   10.4915    4.4215   22.2897 C   0  0  0  0  0  0  0  0  0  0  0  0
   10.2611    3.0988   22.6678 C   0  0  0  0  0  0  0  0  0  0  0  0
    9.0720   -1.1280   24.8640 C   0  0  0  0  0  0  0  0  0  0  0  0
    9.7200   -2.2600   22.8630 C   0  0  0  0  0  0  0  0  0  0  0  0
    8.9960   -2.3380   25.5320 C   0  0  0  0  0  0  0  0  0  0  0  0
    9.6730   -3.4710   23.5300 C   0  0  0  0  0  0  0  0  0  0  0  0
    9.5854    5.4184   22.6515 C   0  0  0  0  0  0  0  0  0  0  0  0
    8.2181    3.7697   23.7693 C   0  0  0  0  0  0  0  0  0  0  0  0
    9.3350   -1.0880   23.5010 C   0  0  0  0  0  0  0  0  0  0  0  0
    9.1243    2.7729   23.4076 C   0  0  0  0  0  0  0  0  0  0  0  0
    9.3070   -3.5340   24.8780 C   0  0  0  0  0  0  0  0  0  0  0  0
    8.4486    5.0924   23.3912 C   0  0  0  0  0  0  0  0  0  0  0  0
    6.1790    0.5730   19.9990 C   0  0  0  0  0  0  0  0  0  0  0  0
    7.3170   -0.1610   19.8550 C   0  0  0  0  0  0  0  0  0  0  0  0
    5.4210    0.9600   21.0930 C   0  0  0  0  0  0  0  0  0  0  0  0
    4.2750    1.7050   20.8490 C   0  0  0  0  0  0  0  0  0  0  0  0
    3.9160    2.0630   19.5520 C   0  0  0  0  0  0  0  0  0  0  0  0
    4.6890    1.6810   18.4640 C   0  0  0  0  0  0  0  0  0  0  0  0
    8.3596   -5.0075   26.6307 C   0  0  0  0  0  0  0  0  0  0  0  0
    9.0420    0.3700   21.5280 C   0  0  0  0  0  0  0  0  0  0  0  0
    8.4579   -6.4048   27.2167 C   0  0  0  0  0  0  0  0  0  0  0  0
    8.4717   -7.4504   26.1157 C   0  0  0  0  0  0  0  0  0  0  0  0
    9.5645   -7.1893   25.0840 C   0  0  0  0  0  0  0  0  0  0  0  0
   10.2327   -5.8252   25.2500 C   0  0  0  0  0  0  0  0  0  0  0  0
    8.8746    1.3393   23.8159 C   0  0  0  0  0  0  0  0  0  0  0  0
    9.4560    0.1560   22.8130 C   0  0  1  0  0  0  0  0  0  0  0  0
    7.6390   -0.2680   18.5410 N   0  0  0  0  0  0  0  0  0  0  0  0
    6.7580    0.3810   17.8350 N   0  0  0  0  0  0  0  0  0  0  0  0
    5.8300    0.9190   18.6970 N   0  0  0  0  0  0  0  0  0  0  0  0
    9.2529   -4.7799   25.5644 N   0  0  0  0  0  0  0  0  0  0  0  0
    8.1890   -0.7180   20.8700 N   0  0  0  0  0  0  0  0  0  0  0  0
    7.5989   -4.1866   27.1423 O   0  0  0  0  0  0  0  0  0  0  0  0
    9.2690    1.4140   20.9380 O   0  0  0  0  0  0  0  0  0  0  0  0
    7.3303    6.3225   23.8362 Cl  0  0  0  0  0  0  0  0  0  0  0  0
   11.3768    4.6749   21.7135 H   0  0  0  0  0  0  0  0  0  0  0  0
   10.9725    2.3286   22.3815 H   0  0  0  0  0  0  0  0  0  0  0  0
    8.9202   -0.1986   25.4206 H   0  0  0  0  0  0  0  0  0  0  0  0
   10.0631   -2.2319   21.8252 H   0  0  0  0  0  0  0  0  0  0  0  0
    8.6898   -2.3534   26.5810 H   0  0  0  0  0  0  0  0  0  0  0  0
    9.9254   -4.3899   22.9914 H   0  0  0  0  0  0  0  0  0  0  0  0
    9.7777    6.4450   22.3496 H   0  0  0  0  0  0  0  0  0  0  0  0
    7.3335    3.5106   24.3466 H   0  0  0  0  0  0  0  0  0  0  0  0
    5.6855    0.7074   22.1002 H   0  0  0  0  0  0  0  0  0  0  0  0
    3.6634    2.0034   21.6926 H   0  0  0  0  0  0  0  0  0  0  0  0
    3.0111    2.6563   19.3629 H   0  0  0  0  0  0  0  0  0  0  0  0
    4.4370    1.9522   17.4626 H   0  0  0  0  0  0  0  0  0  0  0  0
    9.3705   -6.4746   27.7883 H   0  0  0  0  0  0  0  0  0  0  0  0
    7.6054   -6.5499   27.8634 H   0  0  0  0  0  0  0  0  0  0  0  0
    8.6096   -8.4605   26.5547 H   0  0  0  0  0  0  0  0  0  0  0  0
    7.4835   -7.4764   25.6139 H   0  0  0  0  0  0  0  0  0  0  0  0
   10.3359   -7.9850   25.1529 H   0  0  0  0  0  0  0  0  0  0  0  0
    9.1459   -7.2795   24.0580 H   0  0  0  0  0  0  0  0  0  0  0  0
   10.9408   -5.8640   26.0724 H   0  0  0  0  0  0  0  0  0  0  0  0
   10.7522   -5.5631   24.3346 H   0  0  0  0  0  0  0  0  0  0  0  0
    9.2322    1.1871   24.8426 H   0  0  0  0  0  0  0  0  0  0  0  0
    7.7874    1.1856   23.8602 H   0  0  0  0  0  0  0  0  0  0  0  0
   10.6111    0.4644   22.8838 H   0  0  0  0  0  0  0  0  0  0  0  0
    8.2585   -1.5522   21.1129 H   0  0  0  0  0  0  0  0  0  0  0  0
  1  2  2  0  0  0  0
  1  7  1  0  0  0  0
  2 10  1  0  0  0  0
  3  5  2  0  0  0  0
  3  9  1  0  0  0  0
  4  6  1  0  0  0  0
  4  9  2  0  0  0  0
  5 11  1  0  0  0  0
  6 11  2  0  0  0  0
  7 12  2  0  0  0  0
  8 10  2  0  0  0  0
  8 12  1  0  0  0  0
  9 26  1  0  0  0  0
 10 25  1  0  0  0  0
 11 30  1  0  0  0  0
 12 34  1  0  0  0  0
 13 14  2  0  0  0  0
 13 15  1  0  0  0  0
 13 29  1  0  0  0  0
 14 27  1  0  0  0  0
 14 31  1  0  0  0  0
 15 16  2  0  0  0  0
 16 17  1  0  0  0  0
 17 18  2  0  0  0  0
 18 29  1  0  0  0  0
 19 21  1  0  0  0  0
 19 30  1  0  0  0  0
 19 32  2  0  0  0  0
 20 26  1  1  0  0  0
 20 31  1  0  0  0  0
 20 33  2  0  0  0  0
 21 22  1  0  0  0  0
 22 23  1  0  0  0  0
 23 24  1  0  0  0  0
 24 30  1  0  0  0  0
 25 26  1  0  0  0  0
 27 28  2  0  0  0  0
 28 29  1  0  0  0  0
  1 35  1  0  0  0  0
  2 36  1  0  0  0  0
  3 37  1  0  0  0  0
  4 38  1  0  0  0  0
  5 39  1  0  0  0  0
  6 40  1  0  0  0  0
  7 41  1  0  0  0  0
  8 42  1  0  0  0  0
 15 43  1  0  0  0  0
 16 44  1  0  0  0  0
 17 45  1  0  0  0  0
 18 46  1  0  0  0  0
 21 47  1  0  0  0  0
 21 48  1  0  0  0  0
 22 49  1  0  0  0  0
 22 50  1  0  0  0  0
 23 51  1  0  0  0  0
 23 52  1  0  0  0  0
 24 53  1  0  0  0  0
 24 54  1  0  0  0  0
 25 55  1  0  0  0  0
 25 56  1  0  0  0  0
 26 57  1  0  0  0  0
 31 58  1  0  0  0  0
M  END
> <clash_score>
0.6354372295654396

> <docking_score>
-5.909627914428711

> <overlap_score>
0.8687323331832886

$$$$
BENZO_274_2
  -OEChem-08232013453D

 58 62  0     1  0  0  0  0  0999 V2000
   10.2883    4.3880   23.5308 C   0  0  0  0  0  0  0  0  0  0  0  0
   10.1370    3.0015   23.5116 C   0  0  0  0  0  0  0  0  0  0  0  0
    9.0720   -1.1280   24.8640 C   0  0  0  0  0  0  0  0  0  0  0  0
    9.7200   -2.2600   22.8630 C   0  0  0  0  0  0  0  0  0  0  0  0
    8.9960   -2.3380   25.5320 C   0  0  0  0  0  0  0  0  0  0  0  0
    9.6730   -3.4710   23.5300 C   0  0  0  0  0  0  0  0  0  0  0  0
   11.4763    4.9663   23.0835 C   0  0  0  0  0  0  0  0  0  0  0  0
   12.3618    2.7715   22.5978 C   0  0  0  0  0  0  0  0  0  0  0  0
    9.3350   -1.0880   23.5010 C   0  0  0  0  0  0  0  0  0  0  0  0
   11.1738    2.1933   23.0451 C   0  0  0  0  0  0  0  0  0  0  0  0
    9.3070   -3.5340   24.8780 C   0  0  0  0  0  0  0  0  0  0  0  0
   12.5130    4.1580   22.6171 C   0  0  0  0  0  0  0  0  0  0  0  0
    6.1790    0.5730   19.9990 C   0  0  0  0  0  0  0  0  0  0  0  0
    7.3170   -0.1610   19.8550 C   0  0  0  0  0  0  0  0  0  0  0  0
    5.4210    0.9600   21.0930 C   0  0  0  0  0  0  0  0  0  0  0  0
    4.2750    1.7050   20.8490 C   0  0  0  0  0  0  0  0  0  0  0  0
    3.9160    2.0630   19.5520 C   0  0  0  0  0  0  0  0  0  0  0  0
    4.6890    1.6810   18.4640 C   0  0  0  0  0  0  0  0  0  0  0  0
    8.3596   -5.0074   26.6306 C   0  0  0  0  0  0  0  0  0  0  0  0
    9.0420    0.3700   21.5280 C   0  0  0  0  0  0  0  0  0  0  0  0
    8.4719   -6.3982   27.2294 C   0  0  0  0  0  0  0  0  0  0  0  0
    9.9251   -6.7607   27.4801 C   0  0  0  0  0  0  0  0  0  0  0  0
   10.7833   -6.6095   26.2280 C   0  0  0  0  0  0  0  0  0  0  0  0
   10.0539   -5.9100   25.0821 C   0  0  0  0  0  0  0  0  0  0  0  0
   11.0096    0.6909   23.0257 C   0  0  0  0  0  0  0  0  0  0  0  0
    9.4560    0.1560   22.8130 C   0  0  2  0  0  0  0  0  0  0  0  0
    7.6390   -0.2680   18.5410 N   0  0  0  0  0  0  0  0  0  0  0  0
    6.7580    0.3810   17.8350 N   0  0  0  0  0  0  0  0  0  0  0  0
    5.8300    0.9190   18.6970 N   0  0  0  0  0  0  0  0  0  0  0  0
    9.2529   -4.7797   25.5643 N   0  0  0  0  0  0  0  0  0  0  0  0
    8.1890   -0.7180   20.8700 N   0  0  0  0  0  0  0  0  0  0  0  0
    7.4954   -4.2357   27.0448 O   0  0  0  0  0  0  0  0  0  0  0  0
    9.2690    1.4140   20.9380 O   0  0  0  0  0  0  0  0  0  0  0  0
   13.9788    4.8720   22.0664 Cl  0  0  0  0  0  0  0  0  0  0  0  0
    9.4808    5.0170   23.8943 H   0  0  0  0  0  0  0  0  0  0  0  0
    9.2080    2.5596   23.8621 H   0  0  0  0  0  0  0  0  0  0  0  0
    8.9202   -0.1986   25.4206 H   0  0  0  0  0  0  0  0  0  0  0  0
   10.0631   -2.2319   21.8252 H   0  0  0  0  0  0  0  0  0  0  0  0
    8.6898   -2.3534   26.5810 H   0  0  0  0  0  0  0  0  0  0  0  0
    9.9254   -4.3899   22.9914 H   0  0  0  0  0  0  0  0  0  0  0  0
   11.5802    6.0483   23.1046 H   0  0  0  0  0  0  0  0  0  0  0  0
   13.1669    2.1370   22.2346 H   0  0  0  0  0  0  0  0  0  0  0  0
    5.6855    0.7074   22.1002 H   0  0  0  0  0  0  0  0  0  0  0  0
    3.6634    2.0034   21.6926 H   0  0  0  0  0  0  0  0  0  0  0  0
    3.0111    2.6563   19.3629 H   0  0  0  0  0  0  0  0  0  0  0  0
    4.4370    1.9522   17.4626 H   0  0  0  0  0  0  0  0  0  0  0  0
    7.9324   -6.4149   28.1639 H   0  0  0  0  0  0  0  0  0  0  0  0
    8.0254   -7.0921   26.5330 H   0  0  0  0  0  0  0  0  0  0  0  0
   10.3386   -6.1268   28.2921 H   0  0  0  0  0  0  0  0  0  0  0  0
    9.9903   -7.8025   27.8535 H   0  0  0  0  0  0  0  0  0  0  0  0
   11.7036   -6.0405   26.4770 H   0  0  0  0  0  0  0  0  0  0  0  0
   11.1411   -7.6069   25.8917 H   0  0  0  0  0  0  0  0  0  0  0  0
   10.7783   -5.5162   24.3756 H   0  0  0  0  0  0  0  0  0  0  0  0
    9.4042   -6.6189   24.5805 H   0  0  0  0  0  0  0  0  0  0  0  0
   11.6022    0.2720   22.2019 H   0  0  0  0  0  0  0  0  0  0  0  0
   11.4622    0.2902   23.9433 H   0  0  0  0  0  0  0  0  0  0  0  0
    8.9292    0.9747   23.5105 H   0  0  0  0  0  0  0  0  0  0  0  0
    8.2585   -1.5522   21.1129 H   0  0  0  0  0  0  0  0  0  0  0  0
  1  2  2  0  0  0  0
  1  7  1  0  0  0  0
  2 10  1  0  0  0  0
  3  5  2  0  0  0  0
  3  9  1  0  0  0  0
  4  6  1  0  0  0  0
  4  9  2  0  0  0  0
  5 11  1  0  0  0  0
  6 11  2  0  0  0  0
  7 12  2  0  0  0  0
  8 10  2  0  0  0  0
  8 12  1  0  0  0  0
  9 26  1  0  0  0  0
 10 25  1  0  0  0  0
 11 30  1  0  0  0  0
 12 34  1  0  0  0  0
 13 14  2  0  0  0  0
 13 15  1  0  0  0  0
 13 29  1  0  0  0  0
 14 27  1  0  0  0  0
 14 31  1  0  0  0  0
 15 16  2  0  0  0  0
 16 17  1  0  0  0  0
 17 18  2  0  0  0  0
 18 29  1  0  0  0  0
 19 21  1  0  0  0  0
 19 30  1  0  0  0  0
 19 32  2  0  0  0  0
 20 26  1  6  0  0  0
 20 31  1  0  0  0  0
 20 33  2  0  0  0  0
 21 22  1  0  0  0  0
 22 23  1  0  0  0  0
 23 24  1  0  0  0  0
 24 30  1  0  0  0  0
 25 26  1  0  0  0  0
 27 28  2  0  0  0  0
 28 29  1  0  0  0  0
  1 35  1  0  0  0  0
  2 36  1  0  0  0  0
  3 37  1  0  0  0  0
  4 38  1  0  0  0  0
  5 39  1  0  0  0  0
  6 40  1  0  0  0  0
  7 41  1  0  0  0  0
  8 42  1  0  0  0  0
 15 43  1  0  0  0  0
 16 44  1  0  0  0  0
 17 45  1  0  0  0  0
 18 46  1  0  0  0  0
 21 47  1  0  0  0  0
 21 48  1  0  0  0  0
 22 49  1  0  0  0  0
 22 50  1  0  0  0  0
 23 51  1  0  0  0  0
 23 52  1  0  0  0  0
 24 53  1  0  0  0  0
 24 54  1  0  0  0  0
 25 55  1  0  0  0  0
 25 56  1  0  0  0  0
 26 57  1  0  0  0  0
 31 58  1  0  0  0  0
M  END
> <clash_score>
0.7790931276820443

> <docking_score>
-10.057929039001465

> <overlap_score>
0.9551644921302795

$$$$
BENZO_276_1
  -OEChem-08232013453D

 54 58  0     1  0  0  0  0  0999 V2000
    9.0720   -1.1280   24.8640 C   0  0  0  0  0  0  0  0  0  0  0  0
    9.7200   -2.2600   22.8630 C   0  0  0  0  0  0  0  0  0  0  0  0
    8.9960   -2.3380   25.5320 C   0  0  0  0  0  0  0  0  0  0  0  0
    9.6730   -3.4710   23.5300 C   0  0  0  0  0  0  0  0  0  0  0  0
   10.3203    3.2228   22.7771 C   0  0  0  0  0  0  0  0  0  0  0  0
   10.2891    4.5743   22.5128 C   0  0  0  0  0  0  0  0  0  0  0  0
    8.2246    3.7981   23.6013 C   0  0  0  0  0  0  0  0  0  0  0  0
    9.3350   -1.0880   23.5010 C   0  0  0  0  0  0  0  0  0  0  0  0
    9.1243    2.7729   23.4075 C   0  0  0  0  0  0  0  0  0  0  0  0
    9.3070   -3.5340   24.8780 C   0  0  0  0  0  0  0  0  0  0  0  0
    6.1790    0.5730   19.9990 C   0  0  0  0  0  0  0  0  0  0  0  0
    7.3170   -0.1610   19.8550 C   0  0  0  0  0  0  0  0  0  0  0  0
    5.4210    0.9600   21.0930 C   0  0  0  0  0  0  0  0  0  0  0  0
    4.2750    1.7050   20.8490 C   0  0  0  0  0  0  0  0  0  0  0  0
    3.9160    2.0630   19.5520 C   0  0  0  0  0  0  0  0  0  0  0  0
    4.6890    1.6810   18.4640 C   0  0  0  0  0  0  0  0  0  0  0  0
    9.0420    0.3700   21.5280 C   0  0  0  0  0  0  0  0  0  0  0  0
    8.8802   -4.8468   26.9522 C   0  0  0  0  0  0  0  0  0  0  0  0
    9.1312   -5.9971   24.8013 C   0  0  0  0  0  0  0  0  0  0  0  0
    7.4537   -5.3795   27.0345 C   0  0  0  0  0  0  0  0  0  0  0  0
    7.6970   -6.5030   24.9624 C   0  0  0  0  0  0  0  0  0  0  0  0
    8.8746    1.3393   23.8158 C   0  0  0  0  0  0  0  0  0  0  0  0
    9.4560    0.1560   22.8130 C   0  0  1  0  0  0  0  0  0  0  0  0
    7.6390   -0.2680   18.5410 N   0  0  0  0  0  0  0  0  0  0  0  0
    6.7580    0.3810   17.8350 N   0  0  0  0  0  0  0  0  0  0  0  0
    5.8300    0.9190   18.6970 N   0  0  0  0  0  0  0  0  0  0  0  0
    9.2564   -4.7368   25.5411 N   0  0  0  0  0  0  0  0  0  0  0  0
    8.1890   -0.7180   20.8700 N   0  0  0  0  0  0  0  0  0  0  0  0
    9.2690    1.4140   20.9380 O   0  0  0  0  0  0  0  0  0  0  0  0
    7.3604   -6.6337   26.3481 O   0  0  0  0  0  0  0  0  0  0  0  0
    8.8224    5.2953   23.0240 S   0  0  0  0  0  0  0  0  0  0  0  0
    8.9214   -0.1986   25.4206 H   0  0  0  0  0  0  0  0  0  0  0  0
   10.0622   -2.2326   21.8251 H   0  0  0  0  0  0  0  0  0  0  0  0
    8.6882   -2.3542   26.5803 H   0  0  0  0  0  0  0  0  0  0  0  0
    9.9258   -4.3896   22.9914 H   0  0  0  0  0  0  0  0  0  0  0  0
   11.1634    2.5905   22.5286 H   0  0  0  0  0  0  0  0  0  0  0  0
   11.0576    5.1730   22.0446 H   0  0  0  0  0  0  0  0  0  0  0  0
    7.2445    3.7440   24.0547 H   0  0  0  0  0  0  0  0  0  0  0  0
    5.6855    0.7074   22.1002 H   0  0  0  0  0  0  0  0  0  0  0  0
    3.6634    2.0034   21.6926 H   0  0  0  0  0  0  0  0  0  0  0  0
    3.0111    2.6563   19.3629 H   0  0  0  0  0  0  0  0  0  0  0  0
    4.4370    1.9522   17.4626 H   0  0  0  0  0  0  0  0  0  0  0  0
    8.9362   -3.8759   27.4489 H   0  0  0  0  0  0  0  0  0  0  0  0
    9.5593   -5.5413   27.4538 H   0  0  0  0  0  0  0  0  0  0  0  0
    9.8251   -6.7295   25.2159 H   0  0  0  0  0  0  0  0  0  0  0  0
    9.3501   -5.8539   23.7441 H   0  0  0  0  0  0  0  0  0  0  0  0
    7.1818   -5.5525   28.0779 H   0  0  0  0  0  0  0  0  0  0  0  0
    6.7334   -4.6727   26.6129 H   0  0  0  0  0  0  0  0  0  0  0  0
    6.9790   -5.8386   24.4676 H   0  0  0  0  0  0  0  0  0  0  0  0
    7.6015   -7.4918   24.5034 H   0  0  0  0  0  0  0  0  0  0  0  0
    9.2322    1.1871   24.8426 H   0  0  0  0  0  0  0  0  0  0  0  0
    7.7874    1.1856   23.8601 H   0  0  0  0  0  0  0  0  0  0  0  0
   10.6111    0.4645   22.8838 H   0  0  0  0  0  0  0  0  0  0  0  0
    8.2585   -1.5522   21.1129 H   0  0  0  0  0  0  0  0  0  0  0  0
  1  3  2  0  0  0  0
  1  8  1  0  0  0  0
  2  4  1  0  0  0  0
  2  8  2  0  0  0  0
  3 10  1  0  0  0  0
  4 10  2  0  0  0  0
  5  6  2  0  0  0  0
  5  9  1  0  0  0  0
  6 31  1  0  0  0  0
  7  9  2  0  0  0  0
  7 31  1  0  0  0  0
  8 23  1  0  0  0  0
  9 22  1  0  0  0  0
 10 27  1  0  0  0  0
 11 12  2  0  0  0  0
 11 13  1  0  0  0  0
 11 26  1  0  0  0  0
 12 24  1  0  0  0  0
 12 28  1  0  0  0  0
 13 14  2  0  0  0  0
 14 15  1  0  0  0  0
 15 16  2  0  0  0  0
 16 26  1  0  0  0  0
 17 23  1  1  0  0  0
 17 28  1  0  0  0  0
 17 29  2  0  0  0  0
 18 20  1  0  0  0  0
 18 27  1  0  0  0  0
 19 21  1  0  0  0  0
 19 27  1  0  0  0  0
 20 30  1  0  0  0  0
 21 30  1  0  0  0  0
 22 23  1  0  0  0  0
 24 25  2  0  0  0  0
 25 26  1  0  0  0  0
  1 32  1  0  0  0  0
  2 33  1  0  0  0  0
  3 34  1  0  0  0  0
  4 35  1  0  0  0  0
  5 36  1  0  0  0  0
  6 37  1  0  0  0  0
  7 38  1  0  0  0  0
 13 39  1  0  0  0  0
 14 40  1  0  0  0  0
 15 41  1  0  0  0  0
 16 42  1  0  0  0  0
 18 43  1  0  0  0  0
 18 44  1  0  0  0  0
 19 45  1  0  0  0  0
 19 46  1  0  0  0  0
 20 47  1  0  0  0  0
 20 48  1  0  0  0  0
 21 49  1  0  0  0  0
 21 50  1  0  0  0  0
 22 51  1  0  0  0  0
 22 52  1  0  0  0  0
 23 53  1  0  0  0  0
 28 54  1  0  0  0  0
M  END
> <clash_score>
0

> <docking_score>
-7.524052143096924

> <overlap_score>
0.861058235168457

$$$$
BENZO_275_1
  -OEChem-08232013453D

 58 62  0     1  0  0  0  0  0999 V2000
    9.0720   -1.1280   24.8640 C   0  0  0  0  0  0  0  0  0  0  0  0
    9.7200   -2.2600   22.8630 C   0  0  0  0  0  0  0  0  0  0  0  0
    8.9960   -2.3380   25.5320 C   0  0  0  0  0  0  0  0  0  0  0  0
    9.6730   -3.4710   23.5300 C   0  0  0  0  0  0  0  0  0  0  0  0
   10.2449    3.1582   23.4787 C   0  0  0  0  0  0  0  0  0  0  0  0
   12.2661    2.9236   22.6452 C   0  0  0  0  0  0  0  0  0  0  0  0
    9.3350   -1.0880   23.5010 C   0  0  0  0  0  0  0  0  0  0  0  0
   11.1738    2.1933   23.0451 C   0  0  0  0  0  0  0  0  0  0  0  0
    9.3070   -3.5340   24.8780 C   0  0  0  0  0  0  0  0  0  0  0  0
    6.1790    0.5730   19.9990 C   0  0  0  0  0  0  0  0  0  0  0  0
    7.3170   -0.1610   19.8550 C   0  0  0  0  0  0  0  0  0  0  0  0
    5.4210    0.9600   21.0930 C   0  0  0  0  0  0  0  0  0  0  0  0
    4.2750    1.7050   20.8490 C   0  0  0  0  0  0  0  0  0  0  0  0
    3.9160    2.0630   19.5520 C   0  0  0  0  0  0  0  0  0  0  0  0
    4.6890    1.6810   18.4640 C   0  0  0  0  0  0  0  0  0  0  0  0
    8.3596   -5.0074   26.6306 C   0  0  0  0  0  0  0  0  0  0  0  0
    9.0420    0.3700   21.5280 C   0  0  0  0  0  0  0  0  0  0  0  0
    8.4719   -6.3982   27.2294 C   0  0  0  0  0  0  0  0  0  0  0  0
    9.9251   -6.7607   27.4801 C   0  0  0  0  0  0  0  0  0  0  0  0
   10.7833   -6.6095   26.2280 C   0  0  0  0  0  0  0  0  0  0  0  0
   10.0539   -5.9100   25.0821 C   0  0  0  0  0  0  0  0  0  0  0  0
   12.7722    5.3769   22.5853 C   0  0  0  0  0  0  0  0  0  0  0  0
   11.0096    0.6909   23.0257 C   0  0  0  0  0  0  0  0  0  0  0  0
    9.4560    0.1560   22.8130 C   0  0  1  0  0  0  0  0  0  0  0  0
   10.7069    4.4062   23.3651 N   0  0  0  0  0  0  0  0  0  0  0  0
    7.6390   -0.2680   18.5410 N   0  0  0  0  0  0  0  0  0  0  0  0
    6.7580    0.3810   17.8350 N   0  0  0  0  0  0  0  0  0  0  0  0
   11.9381    4.2306   22.8557 N   0  0  0  0  0  0  0  0  0  0  0  0
    5.8300    0.9190   18.6970 N   0  0  0  0  0  0  0  0  0  0  0  0
    9.2529   -4.7797   25.5643 N   0  0  0  0  0  0  0  0  0  0  0  0
    8.1890   -0.7180   20.8700 N   0  0  0  0  0  0  0  0  0  0  0  0
    7.4954   -4.2357   27.0448 O   0  0  0  0  0  0  0  0  0  0  0  0
    9.2690    1.4140   20.9380 O   0  0  0  0  0  0  0  0  0  0  0  0
    8.9202   -0.1986   25.4206 H   0  0  0  0  0  0  0  0  0  0  0  0
   10.0631   -2.2319   21.8252 H   0  0  0  0  0  0  0  0  0  0  0  0
    8.6898   -2.3534   26.5810 H   0  0  0  0  0  0  0  0  0  0  0  0
    9.9254   -4.3899   22.9914 H   0  0  0  0  0  0  0  0  0  0  0  0
    9.2505    3.0063   23.8739 H   0  0  0  0  0  0  0  0  0  0  0  0
   13.2256    2.6317   22.2400 H   0  0  0  0  0  0  0  0  0  0  0  0
    5.6855    0.7074   22.1002 H   0  0  0  0  0  0  0  0  0  0  0  0
    3.6634    2.0034   21.6926 H   0  0  0  0  0  0  0  0  0  0  0  0
    3.0111    2.6563   19.3629 H   0  0  0  0  0  0  0  0  0  0  0  0
    4.4370    1.9522   17.4626 H   0  0  0  0  0  0  0  0  0  0  0  0
    7.9324   -6.4149   28.1639 H   0  0  0  0  0  0  0  0  0  0  0  0
    8.0254   -7.0921   26.5330 H   0  0  0  0  0  0  0  0  0  0  0  0
   10.3386   -6.1268   28.2921 H   0  0  0  0  0  0  0  0  0  0  0  0
    9.9903   -7.8025   27.8535 H   0  0  0  0  0  0  0  0  0  0  0  0
   11.7036   -6.0405   26.4770 H   0  0  0  0  0  0  0  0  0  0  0  0
   11.1411   -7.6069   25.8917 H   0  0  0  0  0  0  0  0  0  0  0  0
   10.7783   -5.5162   24.3756 H   0  0  0  0  0  0  0  0  0  0  0  0
    9.4042   -6.6189   24.5805 H   0  0  0  0  0  0  0  0  0  0  0  0
   12.5768    5.7019   21.5599 H   0  0  0  0  0  0  0  0  0  0  0  0
   12.5325    6.1764   23.2919 H   0  0  0  0  0  0  0  0  0  0  0  0
   13.8223    5.0961   22.7050 H   0  0  0  0  0  0  0  0  0  0  0  0
   11.6022    0.2720   22.2019 H   0  0  0  0  0  0  0  0  0  0  0  0
   11.4622    0.2902   23.9433 H   0  0  0  0  0  0  0  0  0  0  0  0
    8.9292    0.9747   23.5105 H   0  0  0  0  0  0  0  0  0  0  0  0
    8.2585   -1.5522   21.1129 H   0  0  0  0  0  0  0  0  0  0  0  0
  1  3  2  0  0  0  0
  1  7  1  0  0  0  0
  2  4  1  0  0  0  0
  2  7  2  0  0  0  0
  3  9  1  0  0  0  0
  4  9  2  0  0  0  0
  5  8  1  0  0  0  0
  5 25  2  0  0  0  0
  6  8  2  0  0  0  0
  6 28  1  0  0  0  0
  7 24  1  0  0  0  0
  8 23  1  0  0  0  0
  9 30  1  0  0  0  0
 10 11  2  0  0  0  0
 10 12  1  0  0  0  0
 10 29  1  0  0  0  0
 11 26  1  0  0  0  0
 11 31  1  0  0  0  0
 12 13  2  0  0  0  0
 13 14  1  0  0  0  0
 14 15  2  0  0  0  0
 15 29  1  0  0  0  0
 16 18  1  0  0  0  0
 16 30  1  0  0  0  0
 16 32  2  0  0  0  0
 17 24  1  0  0  0  0
 17 31  1  0  0  0  0
 17 33  2  0  0  0  0
 18 19  1  0  0  0  0
 19 20  1  0  0  0  0
 20 21  1  0  0  0  0
 21 30  1  0  0  0  0
 22 28  1  0  0  0  0
 23 24  1  1  0  0  0
 25 28  1  0  0  0  0
 26 27  2  0  0  0  0
 27 29  1  0  0  0  0
  1 34  1  0  0  0  0
  2 35  1  0  0  0  0
  3 36  1  0  0  0  0
  4 37  1  0  0  0  0
  5 38  1  0  0  0  0
  6 39  1  0  0  0  0
 12 40  1  0  0  0  0
 13 41  1  0  0  0  0
 14 42  1  0  0  0  0
 15 43  1  0  0  0  0
 18 44  1  0  0  0  0
 18 45  1  0  0  0  0
 19 46  1  0  0  0  0
 19 47  1  0  0  0  0
 20 48  1  0  0  0  0
 20 49  1  0  0  0  0
 21 50  1  0  0  0  0
 21 51  1  0  0  0  0
 22 52  1  0  0  0  0
 22 53  1  0  0  0  0
 22 54  1  0  0  0  0
 23 55  1  0  0  0  0
 23 56  1  0  0  0  0
 24 57  1  0  0  0  0
 31 58  1  0  0  0  0
M  END
> <clash_score>
0.7790931276820443

> <docking_score>
-9.532000541687012

> <overlap_score>
0.9504612684249878

$$$$
BENZO_277_1
  -OEChem-08232013453D

 57 61  0     1  0  0  0  0  0999 V2000
   11.1941    2.2526   27.3210 C   0  0  0  0  0  0  0  0  0  0  0  0
    9.8088    2.4148   27.3399 C   0  0  0  0  0  0  0  0  0  0  0  0
   11.8270    1.7944   26.1655 C   0  0  0  0  0  0  0  0  0  0  0  0
    9.0564    2.1187   26.2033 C   0  0  0  0  0  0  0  0  0  0  0  0
   11.0746    1.4983   25.0288 C   0  0  0  0  0  0  0  0  0  0  0  0
    9.0720   -1.1280   24.8640 C   0  0  0  0  0  0  0  0  0  0  0  0
    9.7200   -2.2600   22.8630 C   0  0  0  0  0  0  0  0  0  0  0  0
    8.9960   -2.3380   25.5320 C   0  0  0  0  0  0  0  0  0  0  0  0
    9.6730   -3.4710   23.5300 C   0  0  0  0  0  0  0  0  0  0  0  0
    9.6893    1.6605   25.0477 C   0  0  0  0  0  0  0  0  0  0  0  0
    9.3350   -1.0880   23.5010 C   0  0  0  0  0  0  0  0  0  0  0  0
    9.3070   -3.5340   24.8780 C   0  0  0  0  0  0  0  0  0  0  0  0
    6.1790    0.5730   19.9990 C   0  0  0  0  0  0  0  0  0  0  0  0
    7.3170   -0.1610   19.8550 C   0  0  0  0  0  0  0  0  0  0  0  0
    5.4210    0.9600   21.0930 C   0  0  0  0  0  0  0  0  0  0  0  0
    4.2750    1.7050   20.8490 C   0  0  0  0  0  0  0  0  0  0  0  0
    3.9160    2.0630   19.5520 C   0  0  0  0  0  0  0  0  0  0  0  0
    4.6890    1.6810   18.4640 C   0  0  0  0  0  0  0  0  0  0  0  0
    9.0420    0.3700   21.5280 C   0  0  0  0  0  0  0  0  0  0  0  0
    8.8802   -4.8468   26.9522 C   0  0  0  0  0  0  0  0  0  0  0  0
    9.1312   -5.9971   24.8013 C   0  0  0  0  0  0  0  0  0  0  0  0
    7.4537   -5.3795   27.0345 C   0  0  0  0  0  0  0  0  0  0  0  0
    7.6970   -6.5030   24.9624 C   0  0  0  0  0  0  0  0  0  0  0  0
    8.8746    1.3393   23.8158 C   0  0  0  0  0  0  0  0  0  0  0  0
    9.4560    0.1560   22.8130 C   0  0  1  0  0  0  0  0  0  0  0  0
    7.6390   -0.2680   18.5410 N   0  0  0  0  0  0  0  0  0  0  0  0
    6.7580    0.3810   17.8350 N   0  0  0  0  0  0  0  0  0  0  0  0
    5.8300    0.9190   18.6970 N   0  0  0  0  0  0  0  0  0  0  0  0
    9.2564   -4.7368   25.5411 N   0  0  0  0  0  0  0  0  0  0  0  0
    8.1890   -0.7180   20.8700 N   0  0  0  0  0  0  0  0  0  0  0  0
    9.2690    1.4140   20.9380 O   0  0  0  0  0  0  0  0  0  0  0  0
    7.3604   -6.6337   26.3481 O   0  0  0  0  0  0  0  0  0  0  0  0
   11.7799    2.4844   28.2057 H   0  0  0  0  0  0  0  0  0  0  0  0
    9.3160    2.7725   28.2392 H   0  0  0  0  0  0  0  0  0  0  0  0
   12.9056    1.6690   26.1501 H   0  0  0  0  0  0  0  0  0  0  0  0
    7.9776    2.2479   26.2272 H   0  0  0  0  0  0  0  0  0  0  0  0
   11.5762    1.1418   24.1331 H   0  0  0  0  0  0  0  0  0  0  0  0
    8.9214   -0.1986   25.4206 H   0  0  0  0  0  0  0  0  0  0  0  0
   10.0622   -2.2326   21.8251 H   0  0  0  0  0  0  0  0  0  0  0  0
    8.6882   -2.3542   26.5803 H   0  0  0  0  0  0  0  0  0  0  0  0
    9.9258   -4.3896   22.9914 H   0  0  0  0  0  0  0  0  0  0  0  0
    5.6855    0.7074   22.1002 H   0  0  0  0  0  0  0  0  0  0  0  0
    3.6634    2.0034   21.6926 H   0  0  0  0  0  0  0  0  0  0  0  0
    3.0111    2.6563   19.3629 H   0  0  0  0  0  0  0  0  0  0  0  0
    4.4370    1.9522   17.4626 H   0  0  0  0  0  0  0  0  0  0  0  0
    8.9362   -3.8759   27.4489 H   0  0  0  0  0  0  0  0  0  0  0  0
    9.5593   -5.5413   27.4538 H   0  0  0  0  0  0  0  0  0  0  0  0
    9.8251   -6.7295   25.2159 H   0  0  0  0  0  0  0  0  0  0  0  0
    9.3501   -5.8539   23.7441 H   0  0  0  0  0  0  0  0  0  0  0  0
    7.1818   -5.5525   28.0779 H   0  0  0  0  0  0  0  0  0  0  0  0
    6.7334   -4.6727   26.6129 H   0  0  0  0  0  0  0  0  0  0  0  0
    6.9790   -5.8386   24.4676 H   0  0  0  0  0  0  0  0  0  0  0  0
    7.6015   -7.4918   24.5034 H   0  0  0  0  0  0  0  0  0  0  0  0
    7.8399    1.1224   24.1118 H   0  0  0  0  0  0  0  0  0  0  0  0
    8.8176    2.2492   23.2023 H   0  0  0  0  0  0  0  0  0  0  0  0
   10.6111    0.4645   22.8838 H   0  0  0  0  0  0  0  0  0  0  0  0
    8.2585   -1.5522   21.1129 H   0  0  0  0  0  0  0  0  0  0  0  0
  1  2  1  0  0  0  0
  1  3  2  0  0  0  0
  2  4  2  0  0  0  0
  3  5  1  0  0  0  0
  4 10  1  0  0  0  0
  5 10  2  0  0  0  0
  6  8  2  0  0  0  0
  6 11  1  0  0  0  0
  7  9  1  0  0  0  0
  7 11  2  0  0  0  0
  8 12  1  0  0  0  0
  9 12  2  0  0  0  0
 10 24  1  0  0  0  0
 11 25  1  0  0  0  0
 12 29  1  0  0  0  0
 13 14  2  0  0  0  0
 13 15  1  0  0  0  0
 13 28  1  0  0  0  0
 14 26  1  0  0  0  0
 14 30  1  0  0  0  0
 15 16  2  0  0  0  0
 16 17  1  0  0  0  0
 17 18  2  0  0  0  0
 18 28  1  0  0  0  0
 19 25  1  1  0  0  0
 19 30  1  0  0  0  0
 19 31  2  0  0  0  0
 20 22  1  0  0  0  0
 20 29  1  0  0  0  0
 21 23  1  0  0  0  0
 21 29  1  0  0  0  0
 22 32  1  0  0  0  0
 23 32  1  0  0  0  0
 24 25  1  0  0  0  0
 26 27  2  0  0  0  0
 27 28  1  0  0  0  0
  1 33  1  0  0  0  0
  2 34  1  0  0  0  0
  3 35  1  0  0  0  0
  4 36  1  0  0  0  0
  5 37  1  0  0  0  0
  6 38  1  0  0  0  0
  7 39  1  0  0  0  0
  8 40  1  0  0  0  0
  9 41  1  0  0  0  0
 15 42  1  0  0  0  0
 16 43  1  0  0  0  0
 17 44  1  0  0  0  0
 18 45  1  0  0  0  0
 20 46  1  0  0  0  0
 20 47  1  0  0  0  0
 21 48  1  0  0  0  0
 21 49  1  0  0  0  0
 22 50  1  0  0  0  0
 22 51  1  0  0  0  0
 23 52  1  0  0  0  0
 23 53  1  0  0  0  0
 24 54  1  0  0  0  0
 24 55  1  0  0  0  0
 25 56  1  0  0  0  0
 30 57  1  0  0  0  0
M  END
> <clash_score>
5.275540369421406

> <docking_score>
-5.712198734283447

> <overlap_score>
0.8608978390693665

$$$$
BENZO_276_2
  -OEChem-08232013453D

 54 58  0     1  0  0  0  0  0999 V2000
    9.0720   -1.1280   24.8640 C   0  0  0  0  0  0  0  0  0  0  0  0
    9.7200   -2.2600   22.8630 C   0  0  0  0  0  0  0  0  0  0  0  0
    8.9960   -2.3380   25.5320 C   0  0  0  0  0  0  0  0  0  0  0  0
    9.6730   -3.4710   23.5300 C   0  0  0  0  0  0  0  0  0  0  0  0
   11.9814    2.9163   22.1204 C   0  0  0  0  0  0  0  0  0  0  0  0
   11.9562    4.2724   22.3613 C   0  0  0  0  0  0  0  0  0  0  0  0
   10.5621    3.0244   23.9578 C   0  0  0  0  0  0  0  0  0  0  0  0
    9.3350   -1.0880   23.5010 C   0  0  0  0  0  0  0  0  0  0  0  0
   11.1738    2.1933   23.0450 C   0  0  0  0  0  0  0  0  0  0  0  0
    9.3070   -3.5340   24.8780 C   0  0  0  0  0  0  0  0  0  0  0  0
    6.1790    0.5730   19.9990 C   0  0  0  0  0  0  0  0  0  0  0  0
    7.3170   -0.1610   19.8550 C   0  0  0  0  0  0  0  0  0  0  0  0
    5.4210    0.9600   21.0930 C   0  0  0  0  0  0  0  0  0  0  0  0
    4.2750    1.7050   20.8490 C   0  0  0  0  0  0  0  0  0  0  0  0
    3.9160    2.0630   19.5520 C   0  0  0  0  0  0  0  0  0  0  0  0
    4.6890    1.6810   18.4640 C   0  0  0  0  0  0  0  0  0  0  0  0
    9.0420    0.3700   21.5280 C   0  0  0  0  0  0  0  0  0  0  0  0
    8.8802   -4.8468   26.9522 C   0  0  0  0  0  0  0  0  0  0  0  0
    9.1312   -5.9971   24.8013 C   0  0  0  0  0  0  0  0  0  0  0  0
    7.4537   -5.3795   27.0345 C   0  0  0  0  0  0  0  0  0  0  0  0
    7.6970   -6.5030   24.9624 C   0  0  0  0  0  0  0  0  0  0  0  0
   11.0096    0.6909   23.0256 C   0  0  0  0  0  0  0  0  0  0  0  0
    9.4560    0.1560   22.8130 C   0  0  2  0  0  0  0  0  0  0  0  0
    7.6390   -0.2680   18.5410 N   0  0  0  0  0  0  0  0  0  0  0  0
    6.7580    0.3810   17.8350 N   0  0  0  0  0  0  0  0  0  0  0  0
    5.8300    0.9190   18.6970 N   0  0  0  0  0  0  0  0  0  0  0  0
    9.2564   -4.7368   25.5411 N   0  0  0  0  0  0  0  0  0  0  0  0
    8.1890   -0.7180   20.8700 N   0  0  0  0  0  0  0  0  0  0  0  0
    9.2690    1.4140   20.9380 O   0  0  0  0  0  0  0  0  0  0  0  0
    7.3604   -6.6337   26.3481 O   0  0  0  0  0  0  0  0  0  0  0  0
   10.9619    4.6690   23.6978 S   0  0  0  0  0  0  0  0  0  0  0  0
    8.9214   -0.1986   25.4206 H   0  0  0  0  0  0  0  0  0  0  0  0
   10.0622   -2.2326   21.8251 H   0  0  0  0  0  0  0  0  0  0  0  0
    8.6882   -2.3542   26.5803 H   0  0  0  0  0  0  0  0  0  0  0  0
    9.9258   -4.3896   22.9914 H   0  0  0  0  0  0  0  0  0  0  0  0
   12.5539    2.4685   21.3179 H   0  0  0  0  0  0  0  0  0  0  0  0
   12.4745    5.0491   21.8170 H   0  0  0  0  0  0  0  0  0  0  0  0
    9.9000    2.7486   24.7669 H   0  0  0  0  0  0  0  0  0  0  0  0
    5.6855    0.7074   22.1002 H   0  0  0  0  0  0  0  0  0  0  0  0
    3.6634    2.0034   21.6926 H   0  0  0  0  0  0  0  0  0  0  0  0
    3.0111    2.6563   19.3629 H   0  0  0  0  0  0  0  0  0  0  0  0
    4.4370    1.9522   17.4626 H   0  0  0  0  0  0  0  0  0  0  0  0
    8.9362   -3.8759   27.4489 H   0  0  0  0  0  0  0  0  0  0  0  0
    9.5593   -5.5413   27.4538 H   0  0  0  0  0  0  0  0  0  0  0  0
    9.8251   -6.7295   25.2159 H   0  0  0  0  0  0  0  0  0  0  0  0
    9.3501   -5.8539   23.7441 H   0  0  0  0  0  0  0  0  0  0  0  0
    7.1818   -5.5525   28.0779 H   0  0  0  0  0  0  0  0  0  0  0  0
    6.7334   -4.6727   26.6129 H   0  0  0  0  0  0  0  0  0  0  0  0
    6.9790   -5.8386   24.4676 H   0  0  0  0  0  0  0  0  0  0  0  0
    7.6015   -7.4918   24.5034 H   0  0  0  0  0  0  0  0  0  0  0  0
   11.6022    0.2720   22.2019 H   0  0  0  0  0  0  0  0  0  0  0  0
   11.4622    0.2902   23.9433 H   0  0  0  0  0  0  0  0  0  0  0  0
    8.9292    0.9747   23.5105 H   0  0  0  0  0  0  0  0  0  0  0  0
    8.2585   -1.5522   21.1129 H   0  0  0  0  0  0  0  0  0  0  0  0
  1  3  2  0  0  0  0
  1  8  1  0  0  0  0
  2  4  1  0  0  0  0
  2  8  2  0  0  0  0
  3 10  1  0  0  0  0
  4 10  2  0  0  0  0
  5  6  2  0  0  0  0
  5  9  1  0  0  0  0
  6 31  1  0  0  0  0
  7  9  2  0  0  0  0
  7 31  1  0  0  0  0
  8 23  1  0  0  0  0
  9 22  1  0  0  0  0
 10 27  1  0  0  0  0
 11 12  2  0  0  0  0
 11 13  1  0  0  0  0
 11 26  1  0  0  0  0
 12 24  1  0  0  0  0
 12 28  1  0  0  0  0
 13 14  2  0  0  0  0
 14 15  1  0  0  0  0
 15 16  2  0  0  0  0
 16 26  1  0  0  0  0
 17 23  1  6  0  0  0
 17 28  1  0  0  0  0
 17 29  2  0  0  0  0
 18 20  1  0  0  0  0
 18 27  1  0  0  0  0
 19 21  1  0  0  0  0
 19 27  1  0  0  0  0
 20 30  1  0  0  0  0
 21 30  1  0  0  0  0
 22 23  1  0  0  0  0
 24 25  2  0  0  0  0
 25 26  1  0  0  0  0
  1 32  1  0  0  0  0
  2 33  1  0  0  0  0
  3 34  1  0  0  0  0
  4 35  1  0  0  0  0
  5 36  1  0  0  0  0
  6 37  1  0  0  0  0
  7 38  1  0  0  0  0
 13 39  1  0  0  0  0
 14 40  1  0  0  0  0
 15 41  1  0  0  0  0
 16 42  1  0  0  0  0
 18 43  1  0  0  0  0
 18 44  1  0  0  0  0
 19 45  1  0  0  0  0
 19 46  1  0  0  0  0
 20 47  1  0  0  0  0
 20 48  1  0  0  0  0
 21 49  1  0  0  0  0
 21 50  1  0  0  0  0
 22 51  1  0  0  0  0
 22 52  1  0  0  0  0
 23 53  1  0  0  0  0
 28 54  1  0  0  0  0
M  END
> <clash_score>
0

> <docking_score>
-9.645545959472656

> <overlap_score>
0.9365742802619934

$$$$
BENZO_277_2
  -OEChem-08232013453D

 57 61  0     1  0  0  0  0  0999 V2000
   11.4754    4.9665   23.0809 C   0  0  0  0  0  0  0  0  0  0  0  0
   12.5124    4.1581   22.6155 C   0  0  0  0  0  0  0  0  0  0  0  0
   10.2875    4.3882   23.5284 C   0  0  0  0  0  0  0  0  0  0  0  0
   12.3617    2.7716   22.5975 C   0  0  0  0  0  0  0  0  0  0  0  0
   10.1367    3.0017   23.5105 C   0  0  0  0  0  0  0  0  0  0  0  0
    9.0720   -1.1280   24.8640 C   0  0  0  0  0  0  0  0  0  0  0  0
    9.7200   -2.2600   22.8630 C   0  0  0  0  0  0  0  0  0  0  0  0
    8.9960   -2.3380   25.5320 C   0  0  0  0  0  0  0  0  0  0  0  0
    9.6730   -3.4710   23.5300 C   0  0  0  0  0  0  0  0  0  0  0  0
   11.1738    2.1933   23.0450 C   0  0  0  0  0  0  0  0  0  0  0  0
    9.3350   -1.0880   23.5010 C   0  0  0  0  0  0  0  0  0  0  0  0
    9.3070   -3.5340   24.8780 C   0  0  0  0  0  0  0  0  0  0  0  0
    6.1790    0.5730   19.9990 C   0  0  0  0  0  0  0  0  0  0  0  0
    7.3170   -0.1610   19.8550 C   0  0  0  0  0  0  0  0  0  0  0  0
    5.4210    0.9600   21.0930 C   0  0  0  0  0  0  0  0  0  0  0  0
    4.2750    1.7050   20.8490 C   0  0  0  0  0  0  0  0  0  0  0  0
    3.9160    2.0630   19.5520 C   0  0  0  0  0  0  0  0  0  0  0  0
    4.6890    1.6810   18.4640 C   0  0  0  0  0  0  0  0  0  0  0  0
    9.0420    0.3700   21.5280 C   0  0  0  0  0  0  0  0  0  0  0  0
    9.5176   -4.8600   26.9769 C   0  0  0  0  0  0  0  0  0  0  0  0
    8.5166   -5.8725   24.9805 C   0  0  0  0  0  0  0  0  0  0  0  0
    8.1870   -5.0443   27.6986 C   0  0  0  0  0  0  0  0  0  0  0  0
    7.2201   -6.0348   25.7753 C   0  0  0  0  0  0  0  0  0  0  0  0
   11.0096    0.6909   23.0256 C   0  0  0  0  0  0  0  0  0  0  0  0
    9.4560    0.1560   22.8130 C   0  0  2  0  0  0  0  0  0  0  0  0
    7.6390   -0.2680   18.5410 N   0  0  0  0  0  0  0  0  0  0  0  0
    6.7580    0.3810   17.8350 N   0  0  0  0  0  0  0  0  0  0  0  0
    5.8300    0.9190   18.6970 N   0  0  0  0  0  0  0  0  0  0  0  0
    9.2564   -4.7368   25.5411 N   0  0  0  0  0  0  0  0  0  0  0  0
    8.1890   -0.7180   20.8700 N   0  0  0  0  0  0  0  0  0  0  0  0
    9.2690    1.4140   20.9380 O   0  0  0  0  0  0  0  0  0  0  0  0
    7.4995   -6.1856   27.1717 O   0  0  0  0  0  0  0  0  0  0  0  0
   11.5934    6.0460   23.0961 H   0  0  0  0  0  0  0  0  0  0  0  0
   13.4379    4.6081   22.2680 H   0  0  0  0  0  0  0  0  0  0  0  0
    9.4802    5.0172   23.8919 H   0  0  0  0  0  0  0  0  0  0  0  0
   13.1750    2.1496   22.2330 H   0  0  0  0  0  0  0  0  0  0  0  0
    9.2076    2.5600   23.8610 H   0  0  0  0  0  0  0  0  0  0  0  0
    8.9214   -0.1986   25.4206 H   0  0  0  0  0  0  0  0  0  0  0  0
   10.0622   -2.2326   21.8251 H   0  0  0  0  0  0  0  0  0  0  0  0
    8.6882   -2.3542   26.5803 H   0  0  0  0  0  0  0  0  0  0  0  0
    9.9258   -4.3896   22.9914 H   0  0  0  0  0  0  0  0  0  0  0  0
    5.6855    0.7074   22.1002 H   0  0  0  0  0  0  0  0  0  0  0  0
    3.6634    2.0034   21.6926 H   0  0  0  0  0  0  0  0  0  0  0  0
    3.0111    2.6563   19.3629 H   0  0  0  0  0  0  0  0  0  0  0  0
    4.4370    1.9522   17.4626 H   0  0  0  0  0  0  0  0  0  0  0  0
   10.0207   -3.9702   27.3608 H   0  0  0  0  0  0  0  0  0  0  0  0
   10.1536   -5.7313   27.1546 H   0  0  0  0  0  0  0  0  0  0  0  0
    9.1181   -6.7774   25.0751 H   0  0  0  0  0  0  0  0  0  0  0  0
    8.2812   -5.7063   23.9302 H   0  0  0  0  0  0  0  0  0  0  0  0
    8.3631   -5.2257   28.7609 H   0  0  0  0  0  0  0  0  0  0  0  0
    7.5532   -4.1574   27.6103 H   0  0  0  0  0  0  0  0  0  0  0  0
    6.5460   -5.1840   25.6220 H   0  0  0  0  0  0  0  0  0  0  0  0
    6.6948   -6.9355   25.4433 H   0  0  0  0  0  0  0  0  0  0  0  0
   11.6022    0.2720   22.2019 H   0  0  0  0  0  0  0  0  0  0  0  0
   11.4622    0.2902   23.9433 H   0  0  0  0  0  0  0  0  0  0  0  0
    8.9292    0.9747   23.5105 H   0  0  0  0  0  0  0  0  0  0  0  0
    8.2585   -1.5522   21.1129 H   0  0  0  0  0  0  0  0  0  0  0  0
  1  2  1  0  0  0  0
  1  3  2  0  0  0  0
  2  4  2  0  0  0  0
  3  5  1  0  0  0  0
  4 10  1  0  0  0  0
  5 10  2  0  0  0  0
  6  8  2  0  0  0  0
  6 11  1  0  0  0  0
  7  9  1  0  0  0  0
  7 11  2  0  0  0  0
  8 12  1  0  0  0  0
  9 12  2  0  0  0  0
 10 24  1  0  0  0  0
 11 25  1  0  0  0  0
 12 29  1  0  0  0  0
 13 14  2  0  0  0  0
 13 15  1  0  0  0  0
 13 28  1  0  0  0  0
 14 26  1  0  0  0  0
 14 30  1  0  0  0  0
 15 16  2  0  0  0  0
 16 17  1  0  0  0  0
 17 18  2  0  0  0  0
 18 28  1  0  0  0  0
 19 25  1  6  0  0  0
 19 30  1  0  0  0  0
 19 31  2  0  0  0  0
 20 22  1  0  0  0  0
 20 29  1  0  0  0  0
 21 23  1  0  0  0  0
 21 29  1  0  0  0  0
 22 32  1  0  0  0  0
 23 32  1  0  0  0  0
 24 25  1  0  0  0  0
 26 27  2  0  0  0  0
 27 28  1  0  0  0  0
  1 33  1  0  0  0  0
  2 34  1  0  0  0  0
  3 35  1  0  0  0  0
  4 36  1  0  0  0  0
  5 37  1  0  0  0  0
  6 38  1  0  0  0  0
  7 39  1  0  0  0  0
  8 40  1  0  0  0  0
  9 41  1  0  0  0  0
 15 42  1  0  0  0  0
 16 43  1  0  0  0  0
 17 44  1  0  0  0  0
 18 45  1  0  0  0  0
 20 46  1  0  0  0  0
 20 47  1  0  0  0  0
 21 48  1  0  0  0  0
 21 49  1  0  0  0  0
 22 50  1  0  0  0  0
 22 51  1  0  0  0  0
 23 52  1  0  0  0  0
 23 53  1  0  0  0  0
 24 54  1  0  0  0  0
 24 55  1  0  0  0  0
 25 56  1  0  0  0  0
 30 57  1  0  0  0  0
M  END
> <clash_score>
0

> <docking_score>
-10.572530746459961

> <overlap_score>
0.9441663026809692

$$$$
BENZO_281_2
  -OEChem-08232013463D

 54 57  0     1  0  0  0  0  0999 V2000
    9.6170    5.4099   22.6808 C   0  0  0  0  0  0  0  0  0  0  0  0
    4.2750    1.7050   20.8490 C   0  0  0  0  0  0  0  0  0  0  0  0
    8.4752    5.0878   23.4143 C   0  0  0  0  0  0  0  0  0  0  0  0
   10.5182    4.4090   22.3177 C   0  0  0  0  0  0  0  0  0  0  0  0
    3.9160    2.0630   19.5520 C   0  0  0  0  0  0  0  0  0  0  0  0
    5.4210    0.9600   21.0930 C   0  0  0  0  0  0  0  0  0  0  0  0
    8.2345    3.7648   23.7849 C   0  0  0  0  0  0  0  0  0  0  0  0
   10.2775    3.0860   22.6883 C   0  0  0  0  0  0  0  0  0  0  0  0
    9.0720   -1.1280   24.8640 C   0  0  0  0  0  0  0  0  0  0  0  0
    9.7200   -2.2600   22.8630 C   0  0  0  0  0  0  0  0  0  0  0  0
    4.6890    1.6810   18.4640 C   0  0  0  0  0  0  0  0  0  0  0  0
    8.9960   -2.3380   25.5320 C   0  0  0  0  0  0  0  0  0  0  0  0
    9.6730   -3.4710   23.5300 C   0  0  0  0  0  0  0  0  0  0  0  0
    7.6390   -0.2680   18.5410 C   0  0  0  0  0  0  0  0  0  0  0  0
    6.1790    0.5730   19.9990 C   0  0  0  0  0  0  0  0  0  0  0  0
    9.1357    2.7638   23.4219 C   0  0  0  0  0  0  0  0  0  0  0  0
    9.3350   -1.0880   23.5010 C   0  0  0  0  0  0  0  0  0  0  0  0
    5.8300    0.9190   18.6970 C   0  0  0  0  0  0  0  0  0  0  0  0
    9.3070   -3.5340   24.8780 C   0  0  0  0  0  0  0  0  0  0  0  0
    7.3170   -0.1610   19.8550 C   0  0  0  0  0  0  0  0  0  0  0  0
    9.0420    0.3700   21.5280 C   0  0  0  0  0  0  0  0  0  0  0  0
    8.8766   -4.8075   26.9494 C   0  0  0  0  0  0  0  0  0  0  0  0
    9.5670   -5.9896   24.8578 C   0  0  0  0  0  0  0  0  0  0  0  0
    8.8757    1.3301   23.8233 C   0  0  0  0  0  0  0  0  0  0  0  0
    9.4560    0.1560   22.8130 C   0  0  2  0  0  0  0  0  0  0  0  0
    6.7580    0.3810   17.8350 N   0  0  0  0  0  0  0  0  0  0  0  0
    8.1890   -0.7180   20.8700 N   0  0  0  0  0  0  0  0  0  0  0  0
    9.2556   -4.7554   25.5514 N   0  0  0  0  0  0  0  0  0  0  0  0
    9.2690    1.4140   20.9380 O   0  0  0  0  0  0  0  0  0  0  0  0
    9.8035    6.4400   22.3912 H   0  0  0  0  0  0  0  0  0  0  0  0
    3.6453    2.0152   21.6831 H   0  0  0  0  0  0  0  0  0  0  0  0
    7.7728    5.8668   23.6961 H   0  0  0  0  0  0  0  0  0  0  0  0
   11.4067    4.6593   21.7457 H   0  0  0  0  0  0  0  0  0  0  0  0
    3.0147    2.6520   19.3913 H   0  0  0  0  0  0  0  0  0  0  0  0
    5.6991    0.6995   22.1042 H   0  0  0  0  0  0  0  0  0  0  0  0
    7.3424    3.5231   24.3565 H   0  0  0  0  0  0  0  0  0  0  0  0
   10.9853    2.3128   22.4011 H   0  0  0  0  0  0  0  0  0  0  0  0
    8.9214   -0.1986   25.4206 H   0  0  0  0  0  0  0  0  0  0  0  0
   10.0622   -2.2326   21.8251 H   0  0  0  0  0  0  0  0  0  0  0  0
    4.4051    1.9733   17.4488 H   0  0  0  0  0  0  0  0  0  0  0  0
    8.6882   -2.3542   26.5803 H   0  0  0  0  0  0  0  0  0  0  0  0
    9.9258   -4.3896   22.9914 H   0  0  0  0  0  0  0  0  0  0  0  0
    8.4825   -0.7940   18.0623 H   0  0  0  0  0  0  0  0  0  0  0  0
    8.8956   -5.8512   27.2963 H   0  0  0  0  0  0  0  0  0  0  0  0
    9.5845   -4.2109   27.5435 H   0  0  0  0  0  0  0  0  0  0  0  0
    7.8621   -4.3997   27.0696 H   0  0  0  0  0  0  0  0  0  0  0  0
    9.4708   -6.8361   25.5536 H   0  0  0  0  0  0  0  0  0  0  0  0
    8.8693   -6.1242   24.0181 H   0  0  0  0  0  0  0  0  0  0  0  0
   10.5973   -5.9450   24.4750 H   0  0  0  0  0  0  0  0  0  0  0  0
    9.2390    1.1684   24.8466 H   0  0  0  0  0  0  0  0  0  0  0  0
    7.7875    1.1860   23.8742 H   0  0  0  0  0  0  0  0  0  0  0  0
   10.6103    0.4565   22.8881 H   0  0  0  0  0  0  0  0  0  0  0  0
    6.7266    0.4930   16.8305 H   0  0  0  0  0  0  0  0  0  0  0  0
    8.2408   -1.5631   21.0968 H   0  0  0  0  0  0  0  0  0  0  0  0
  1  3  1  0  0  0  0
  1  4  2  0  0  0  0
  2  5  1  0  0  0  0
  2  6  2  0  0  0  0
  3  7  2  0  0  0  0
  4  8  1  0  0  0  0
  5 11  2  0  0  0  0
  6 15  1  0  0  0  0
  7 16  1  0  0  0  0
  8 16  2  0  0  0  0
  9 12  2  0  0  0  0
  9 17  1  0  0  0  0
 10 13  1  0  0  0  0
 10 17  2  0  0  0  0
 11 18  1  0  0  0  0
 12 19  1  0  0  0  0
 13 19  2  0  0  0  0
 14 20  2  0  0  0  0
 14 26  1  0  0  0  0
 15 18  2  0  0  0  0
 15 20  1  0  0  0  0
 16 24  1  0  0  0  0
 17 25  1  0  0  0  0
 18 26  1  0  0  0  0
 19 28  1  0  0  0  0
 20 27  1  0  0  0  0
 21 25  1  0  0  0  0
 21 27  1  0  0  0  0
 21 29  2  0  0  0  0
 22 28  1  0  0  0  0
 23 28  1  0  0  0  0
 24 25  1  6  0  0  0
  1 30  1  0  0  0  0
  2 31  1  0  0  0  0
  3 32  1  0  0  0  0
  4 33  1  0  0  0  0
  5 34  1  0  0  0  0
  6 35  1  0  0  0  0
  7 36  1  0  0  0  0
  8 37  1  0  0  0  0
  9 38  1  0  0  0  0
 10 39  1  0  0  0  0
 11 40  1  0  0  0  0
 12 41  1  0  0  0  0
 13 42  1  0  0  0  0
 14 43  1  0  0  0  0
 22 44  1  0  0  0  0
 22 45  1  0  0  0  0
 22 46  1  0  0  0  0
 23 47  1  0  0  0  0
 23 48  1  0  0  0  0
 23 49  1  0  0  0  0
 24 50  1  0  0  0  0
 24 51  1  0  0  0  0
 25 52  1  0  0  0  0
 26 53  1  0  0  0  0
 27 54  1  0  0  0  0
M  END
> <clash_score>
0

> <docking_score>
-6.914351463317871

> <overlap_score>
0.8459812998771667

$$$$
BENZO_281_1
  -OEChem-08232013463D

 54 57  0     1  0  0  0  0  0999 V2000
   11.4726    4.9577   23.1210 C   0  0  0  0  0  0  0  0  0  0  0  0
    4.2750    1.7050   20.8490 C   0  0  0  0  0  0  0  0  0  0  0  0
   12.5103    4.1537   22.6496 C   0  0  0  0  0  0  0  0  0  0  0  0
   10.2847    4.3753   23.5633 C   0  0  0  0  0  0  0  0  0  0  0  0
    3.9160    2.0630   19.5520 C   0  0  0  0  0  0  0  0  0  0  0  0
    5.4210    0.9600   21.0930 C   0  0  0  0  0  0  0  0  0  0  0  0
   12.3602    2.7672   22.6203 C   0  0  0  0  0  0  0  0  0  0  0  0
   10.1346    2.9888   23.5339 C   0  0  0  0  0  0  0  0  0  0  0  0
    9.0720   -1.1280   24.8640 C   0  0  0  0  0  0  0  0  0  0  0  0
    9.7200   -2.2600   22.8630 C   0  0  0  0  0  0  0  0  0  0  0  0
    4.6890    1.6810   18.4640 C   0  0  0  0  0  0  0  0  0  0  0  0
    8.9960   -2.3380   25.5320 C   0  0  0  0  0  0  0  0  0  0  0  0
    9.6730   -3.4710   23.5300 C   0  0  0  0  0  0  0  0  0  0  0  0
    7.6390   -0.2680   18.5410 C   0  0  0  0  0  0  0  0  0  0  0  0
    6.1790    0.5730   19.9990 C   0  0  0  0  0  0  0  0  0  0  0  0
   11.1723    2.1848   23.0624 C   0  0  0  0  0  0  0  0  0  0  0  0
    9.3350   -1.0880   23.5010 C   0  0  0  0  0  0  0  0  0  0  0  0
    5.8300    0.9190   18.6970 C   0  0  0  0  0  0  0  0  0  0  0  0
    9.3070   -3.5340   24.8780 C   0  0  0  0  0  0  0  0  0  0  0  0
    7.3170   -0.1610   19.8550 C   0  0  0  0  0  0  0  0  0  0  0  0
    9.0420    0.3700   21.5280 C   0  0  0  0  0  0  0  0  0  0  0  0
    8.0148   -5.2164   26.1419 C   0  0  0  0  0  0  0  0  0  0  0  0
   10.4390   -5.5857   25.6570 C   0  0  0  0  0  0  0  0  0  0  0  0
   11.0089    0.6825   23.0307 C   0  0  0  0  0  0  0  0  0  0  0  0
    9.4560    0.1560   22.8130 C   0  0  1  0  0  0  0  0  0  0  0  0
    6.7580    0.3810   17.8350 N   0  0  0  0  0  0  0  0  0  0  0  0
    8.1890   -0.7180   20.8700 N   0  0  0  0  0  0  0  0  0  0  0  0
    9.2556   -4.7554   25.5514 N   0  0  0  0  0  0  0  0  0  0  0  0
    9.2690    1.4140   20.9380 O   0  0  0  0  0  0  0  0  0  0  0  0
   11.5901    6.0371   23.1451 H   0  0  0  0  0  0  0  0  0  0  0  0
    3.6453    2.0152   21.6831 H   0  0  0  0  0  0  0  0  0  0  0  0
   13.4357    4.6069   22.3063 H   0  0  0  0  0  0  0  0  0  0  0  0
    9.4770    5.0009   23.9314 H   0  0  0  0  0  0  0  0  0  0  0  0
    3.0147    2.6520   19.3913 H   0  0  0  0  0  0  0  0  0  0  0  0
    5.6991    0.6995   22.1042 H   0  0  0  0  0  0  0  0  0  0  0  0
   13.1740    2.1486   22.2511 H   0  0  0  0  0  0  0  0  0  0  0  0
    9.2056    2.5438   23.8803 H   0  0  0  0  0  0  0  0  0  0  0  0
    8.9214   -0.1986   25.4206 H   0  0  0  0  0  0  0  0  0  0  0  0
   10.0622   -2.2326   21.8251 H   0  0  0  0  0  0  0  0  0  0  0  0
    4.4051    1.9733   17.4488 H   0  0  0  0  0  0  0  0  0  0  0  0
    8.6882   -2.3542   26.5803 H   0  0  0  0  0  0  0  0  0  0  0  0
    9.9258   -4.3896   22.9914 H   0  0  0  0  0  0  0  0  0  0  0  0
    8.4825   -0.7940   18.0623 H   0  0  0  0  0  0  0  0  0  0  0  0
    8.1775   -6.1919   26.6235 H   0  0  0  0  0  0  0  0  0  0  0  0
    7.6740   -4.4889   26.8933 H   0  0  0  0  0  0  0  0  0  0  0  0
    7.2508   -5.3181   25.3570 H   0  0  0  0  0  0  0  0  0  0  0  0
   10.1974   -6.4996   26.2196 H   0  0  0  0  0  0  0  0  0  0  0  0
   10.7877   -5.8568   24.6496 H   0  0  0  0  0  0  0  0  0  0  0  0
   11.2305   -5.0307   26.1819 H   0  0  0  0  0  0  0  0  0  0  0  0
   11.6011    0.2707   22.2030 H   0  0  0  0  0  0  0  0  0  0  0  0
   11.4624    0.2744   23.9446 H   0  0  0  0  0  0  0  0  0  0  0  0
    8.9284    0.9668   23.5149 H   0  0  0  0  0  0  0  0  0  0  0  0
    6.7266    0.4930   16.8305 H   0  0  0  0  0  0  0  0  0  0  0  0
    8.2408   -1.5631   21.0968 H   0  0  0  0  0  0  0  0  0  0  0  0
  1  3  1  0  0  0  0
  1  4  2  0  0  0  0
  2  5  1  0  0  0  0
  2  6  2  0  0  0  0
  3  7  2  0  0  0  0
  4  8  1  0  0  0  0
  5 11  2  0  0  0  0
  6 15  1  0  0  0  0
  7 16  1  0  0  0  0
  8 16  2  0  0  0  0
  9 12  2  0  0  0  0
  9 17  1  0  0  0  0
 10 13  1  0  0  0  0
 10 17  2  0  0  0  0
 11 18  1  0  0  0  0
 12 19  1  0  0  0  0
 13 19  2  0  0  0  0
 14 20  2  0  0  0  0
 14 26  1  0  0  0  0
 15 18  2  0  0  0  0
 15 20  1  0  0  0  0
 16 24  1  0  0  0  0
 17 25  1  0  0  0  0
 18 26  1  0  0  0  0
 19 28  1  0  0  0  0
 20 27  1  0  0  0  0
 21 25  1  0  0  0  0
 21 27  1  0  0  0  0
 21 29  2  0  0  0  0
 22 28  1  0  0  0  0
 23 28  1  0  0  0  0
 24 25  1  1  0  0  0
  1 30  1  0  0  0  0
  2 31  1  0  0  0  0
  3 32  1  0  0  0  0
  4 33  1  0  0  0  0
  5 34  1  0  0  0  0
  6 35  1  0  0  0  0
  7 36  1  0  0  0  0
  8 37  1  0  0  0  0
  9 38  1  0  0  0  0
 10 39  1  0  0  0  0
 11 40  1  0  0  0  0
 12 41  1  0  0  0  0
 13 42  1  0  0  0  0
 14 43  1  0  0  0  0
 22 44  1  0  0  0  0
 22 45  1  0  0  0  0
 22 46  1  0  0  0  0
 23 47  1  0  0  0  0
 23 48  1  0  0  0  0
 23 49  1  0  0  0  0
 24 50  1  0  0  0  0
 24 51  1  0  0  0  0
 25 52  1  0  0  0  0
 26 53  1  0  0  0  0
 27 54  1  0  0  0  0
M  END
> <clash_score>
0

> <docking_score>
-10.699896812438965

> <overlap_score>
0.9285068511962891

$$$$
BENZO_278_1
  -OEChem-08232013463D

 57 61  0     1  0  0  0  0  0999 V2000
    8.4264    4.7647   22.2317 C   0  0  0  0  0  0  0  0  0  0  0  0
    8.1972    3.4413   22.6079 C   0  0  0  0  0  0  0  0  0  0  0  0
    9.0720   -1.1280   24.8640 C   0  0  0  0  0  0  0  0  0  0  0  0
    9.7200   -2.2600   22.8630 C   0  0  0  0  0  0  0  0  0  0  0  0
    8.9960   -2.3380   25.5320 C   0  0  0  0  0  0  0  0  0  0  0  0
    9.6730   -3.4710   23.5300 C   0  0  0  0  0  0  0  0  0  0  0  0
    9.5829    5.4198   22.6550 C   0  0  0  0  0  0  0  0  0  0  0  0
   10.2808    3.4280   23.8309 C   0  0  0  0  0  0  0  0  0  0  0  0
    9.3350   -1.0880   23.5010 C   0  0  0  0  0  0  0  0  0  0  0  0
    9.1243    2.7729   23.4075 C   0  0  0  0  0  0  0  0  0  0  0  0
    9.3070   -3.5340   24.8780 C   0  0  0  0  0  0  0  0  0  0  0  0
   10.5100    4.7515   23.4546 C   0  0  0  0  0  0  0  0  0  0  0  0
    6.1790    0.5730   19.9990 C   0  0  0  0  0  0  0  0  0  0  0  0
    7.3170   -0.1610   19.8550 C   0  0  0  0  0  0  0  0  0  0  0  0
    5.4210    0.9600   21.0930 C   0  0  0  0  0  0  0  0  0  0  0  0
    4.2750    1.7050   20.8490 C   0  0  0  0  0  0  0  0  0  0  0  0
    3.9160    2.0630   19.5520 C   0  0  0  0  0  0  0  0  0  0  0  0
    4.6890    1.6810   18.4640 C   0  0  0  0  0  0  0  0  0  0  0  0
    9.0420    0.3700   21.5280 C   0  0  0  0  0  0  0  0  0  0  0  0
    9.5835   -5.9889   24.8508 C   0  0  0  0  0  0  0  0  0  0  0  0
    8.4830   -4.9307   26.7696 C   0  0  0  0  0  0  0  0  0  0  0  0
    8.2780   -6.7382   24.5802 C   0  0  0  0  0  0  0  0  0  0  0  0
    7.2139   -5.7040   26.4277 C   0  0  0  0  0  0  0  0  0  0  0  0
    8.8746    1.3393   23.8158 C   0  0  0  0  0  0  0  0  0  0  0  0
    9.4560    0.1560   22.8130 C   0  0  1  0  0  0  0  0  0  0  0  0
    7.6390   -0.2680   18.5410 N   0  0  0  0  0  0  0  0  0  0  0  0
    6.7580    0.3810   17.8350 N   0  0  0  0  0  0  0  0  0  0  0  0
    5.8300    0.9190   18.6970 N   0  0  0  0  0  0  0  0  0  0  0  0
    9.2564   -4.7368   25.5411 N   0  0  0  0  0  0  0  0  0  0  0  0
    8.1890   -0.7180   20.8700 N   0  0  0  0  0  0  0  0  0  0  0  0
    9.2690    1.4140   20.9380 O   0  0  0  0  0  0  0  0  0  0  0  0
    7.5531   -6.9453   25.7977 O   0  0  0  0  0  0  0  0  0  0  0  0
   11.9361    5.5606   23.9775 Cl  0  0  0  0  0  0  0  0  0  0  0  0
    7.7041    5.2848   21.6092 H   0  0  0  0  0  0  0  0  0  0  0  0
    7.2933    2.9387   22.2736 H   0  0  0  0  0  0  0  0  0  0  0  0
    8.9214   -0.1986   25.4206 H   0  0  0  0  0  0  0  0  0  0  0  0
   10.0622   -2.2326   21.8251 H   0  0  0  0  0  0  0  0  0  0  0  0
    8.6882   -2.3542   26.5803 H   0  0  0  0  0  0  0  0  0  0  0  0
    9.9258   -4.3896   22.9914 H   0  0  0  0  0  0  0  0  0  0  0  0
    9.7483    6.4515   22.3543 H   0  0  0  0  0  0  0  0  0  0  0  0
   11.0008    2.9024   24.4538 H   0  0  0  0  0  0  0  0  0  0  0  0
    5.6855    0.7074   22.1002 H   0  0  0  0  0  0  0  0  0  0  0  0
    3.6634    2.0034   21.6926 H   0  0  0  0  0  0  0  0  0  0  0  0
    3.0111    2.6563   19.3629 H   0  0  0  0  0  0  0  0  0  0  0  0
    4.4370    1.9522   17.4626 H   0  0  0  0  0  0  0  0  0  0  0  0
   10.2403   -6.6108   25.4579 H   0  0  0  0  0  0  0  0  0  0  0  0
   10.0757   -5.7616   23.9043 H   0  0  0  0  0  0  0  0  0  0  0  0
    8.2168   -3.9556   27.1860 H   0  0  0  0  0  0  0  0  0  0  0  0
    9.0602   -5.4857   27.5117 H   0  0  0  0  0  0  0  0  0  0  0  0
    7.6439   -6.1455   23.9135 H   0  0  0  0  0  0  0  0  0  0  0  0
    8.4620   -7.7014   24.0901 H   0  0  0  0  0  0  0  0  0  0  0  0
    6.6049   -5.8940   27.3159 H   0  0  0  0  0  0  0  0  0  0  0  0
    6.6090   -5.1300   25.7228 H   0  0  0  0  0  0  0  0  0  0  0  0
    9.2322    1.1871   24.8426 H   0  0  0  0  0  0  0  0  0  0  0  0
    7.7874    1.1856   23.8601 H   0  0  0  0  0  0  0  0  0  0  0  0
   10.6111    0.4645   22.8838 H   0  0  0  0  0  0  0  0  0  0  0  0
    8.2585   -1.5522   21.1129 H   0  0  0  0  0  0  0  0  0  0  0  0
  1  2  2  0  0  0  0
  1  7  1  0  0  0  0
  2 10  1  0  0  0  0
  3  5  2  0  0  0  0
  3  9  1  0  0  0  0
  4  6  1  0  0  0  0
  4  9  2  0  0  0  0
  5 11  1  0  0  0  0
  6 11  2  0  0  0  0
  7 12  2  0  0  0  0
  8 10  2  0  0  0  0
  8 12  1  0  0  0  0
  9 25  1  0  0  0  0
 10 24  1  0  0  0  0
 11 29  1  0  0  0  0
 12 33  1  0  0  0  0
 13 14  2  0  0  0  0
 13 15  1  0  0  0  0
 13 28  1  0  0  0  0
 14 26  1  0  0  0  0
 14 30  1  0  0  0  0
 15 16  2  0  0  0  0
 16 17  1  0  0  0  0
 17 18  2  0  0  0  0
 18 28  1  0  0  0  0
 19 25  1  1  0  0  0
 19 30  1  0  0  0  0
 19 31  2  0  0  0  0
 20 22  1  0  0  0  0
 20 29  1  0  0  0  0
 21 23  1  0  0  0  0
 21 29  1  0  0  0  0
 22 32  1  0  0  0  0
 23 32  1  0  0  0  0
 24 25  1  0  0  0  0
 26 27  2  0  0  0  0
 27 28  1  0  0  0  0
  1 34  1  0  0  0  0
  2 35  1  0  0  0  0
  3 36  1  0  0  0  0
  4 37  1  0  0  0  0
  5 38  1  0  0  0  0
  6 39  1  0  0  0  0
  7 40  1  0  0  0  0
  8 41  1  0  0  0  0
 15 42  1  0  0  0  0
 16 43  1  0  0  0  0
 17 44  1  0  0  0  0
 18 45  1  0  0  0  0
 20 46  1  0  0  0  0
 20 47  1  0  0  0  0
 21 48  1  0  0  0  0
 21 49  1  0  0  0  0
 22 50  1  0  0  0  0
 22 51  1  0  0  0  0
 23 52  1  0  0  0  0
 23 53  1  0  0  0  0
 24 54  1  0  0  0  0
 24 55  1  0  0  0  0
 25 56  1  0  0  0  0
 30 57  1  0  0  0  0
M  END
> <clash_score>
0

> <docking_score>
-7.9928693771362305

> <overlap_score>
0.8577043414115906

$$$$
BENZO_280_1
  -OEChem-08232013463D

 51 54  0     1  0  0  0  0  0999 V2000
    4.2750    1.7050   20.8490 C   0  0  0  0  0  0  0  0  0  0  0  0
    3.9160    2.0630   19.5520 C   0  0  0  0  0  0  0  0  0  0  0  0
    5.4210    0.9600   21.0930 C   0  0  0  0  0  0  0  0  0  0  0  0
    9.0720   -1.1280   24.8640 C   0  0  0  0  0  0  0  0  0  0  0  0
    9.7200   -2.2600   22.8630 C   0  0  0  0  0  0  0  0  0  0  0  0
    4.6890    1.6810   18.4640 C   0  0  0  0  0  0  0  0  0  0  0  0
    8.9960   -2.3380   25.5320 C   0  0  0  0  0  0  0  0  0  0  0  0
    9.6730   -3.4710   23.5300 C   0  0  0  0  0  0  0  0  0  0  0  0
   11.9789    2.9159   22.1431 C   0  0  0  0  0  0  0  0  0  0  0  0
    7.6390   -0.2680   18.5410 C   0  0  0  0  0  0  0  0  0  0  0  0
   11.9531    4.2698   22.3953 C   0  0  0  0  0  0  0  0  0  0  0  0
   10.5610    3.0079   23.9825 C   0  0  0  0  0  0  0  0  0  0  0  0
    6.1790    0.5730   19.9990 C   0  0  0  0  0  0  0  0  0  0  0  0
    9.3350   -1.0880   23.5010 C   0  0  0  0  0  0  0  0  0  0  0  0
   11.1723    2.1848   23.0624 C   0  0  0  0  0  0  0  0  0  0  0  0
    5.8300    0.9190   18.6970 C   0  0  0  0  0  0  0  0  0  0  0  0
    9.3070   -3.5340   24.8780 C   0  0  0  0  0  0  0  0  0  0  0  0
    7.3170   -0.1610   19.8550 C   0  0  0  0  0  0  0  0  0  0  0  0
    9.0420    0.3700   21.5280 C   0  0  0  0  0  0  0  0  0  0  0  0
    8.0148   -5.2164   26.1419 C   0  0  0  0  0  0  0  0  0  0  0  0
   10.4390   -5.5857   25.6570 C   0  0  0  0  0  0  0  0  0  0  0  0
   11.0089    0.6825   23.0307 C   0  0  0  0  0  0  0  0  0  0  0  0
    9.4560    0.1560   22.8130 C   0  0  1  0  0  0  0  0  0  0  0  0
    6.7580    0.3810   17.8350 N   0  0  0  0  0  0  0  0  0  0  0  0
    8.1890   -0.7180   20.8700 N   0  0  0  0  0  0  0  0  0  0  0  0
    9.2556   -4.7554   25.5514 N   0  0  0  0  0  0  0  0  0  0  0  0
    9.2690    1.4140   20.9380 O   0  0  0  0  0  0  0  0  0  0  0  0
   10.9597    4.6549   23.7359 S   0  0  0  0  0  0  0  0  0  0  0  0
    3.6453    2.0152   21.6831 H   0  0  0  0  0  0  0  0  0  0  0  0
    3.0147    2.6520   19.3913 H   0  0  0  0  0  0  0  0  0  0  0  0
    5.6991    0.6995   22.1042 H   0  0  0  0  0  0  0  0  0  0  0  0
    8.9214   -0.1986   25.4206 H   0  0  0  0  0  0  0  0  0  0  0  0
   10.0622   -2.2326   21.8251 H   0  0  0  0  0  0  0  0  0  0  0  0
    4.4051    1.9733   17.4488 H   0  0  0  0  0  0  0  0  0  0  0  0
    8.6882   -2.3542   26.5803 H   0  0  0  0  0  0  0  0  0  0  0  0
    9.9258   -4.3896   22.9914 H   0  0  0  0  0  0  0  0  0  0  0  0
   12.5509    2.4750   21.3365 H   0  0  0  0  0  0  0  0  0  0  0  0
    8.4825   -0.7940   18.0623 H   0  0  0  0  0  0  0  0  0  0  0  0
   12.4707    5.0513   21.8570 H   0  0  0  0  0  0  0  0  0  0  0  0
    9.8997    2.7250   24.7898 H   0  0  0  0  0  0  0  0  0  0  0  0
    8.1775   -6.1919   26.6235 H   0  0  0  0  0  0  0  0  0  0  0  0
    7.6740   -4.4889   26.8933 H   0  0  0  0  0  0  0  0  0  0  0  0
    7.2508   -5.3181   25.3570 H   0  0  0  0  0  0  0  0  0  0  0  0
   10.1974   -6.4996   26.2196 H   0  0  0  0  0  0  0  0  0  0  0  0
   10.7877   -5.8568   24.6496 H   0  0  0  0  0  0  0  0  0  0  0  0
   11.2305   -5.0307   26.1819 H   0  0  0  0  0  0  0  0  0  0  0  0
   11.6011    0.2707   22.2030 H   0  0  0  0  0  0  0  0  0  0  0  0
   11.4624    0.2744   23.9446 H   0  0  0  0  0  0  0  0  0  0  0  0
    8.9284    0.9668   23.5149 H   0  0  0  0  0  0  0  0  0  0  0  0
    6.7266    0.4930   16.8305 H   0  0  0  0  0  0  0  0  0  0  0  0
    8.2408   -1.5631   21.0968 H   0  0  0  0  0  0  0  0  0  0  0  0
  1  2  1  0  0  0  0
  1  3  2  0  0  0  0
  2  6  2  0  0  0  0
  3 13  1  0  0  0  0
  4  7  2  0  0  0  0
  4 14  1  0  0  0  0
  5  8  1  0  0  0  0
  5 14  2  0  0  0  0
  6 16  1  0  0  0  0
  7 17  1  0  0  0  0
  8 17  2  0  0  0  0
  9 11  2  0  0  0  0
  9 15  1  0  0  0  0
 10 18  2  0  0  0  0
 10 24  1  0  0  0  0
 11 28  1  0  0  0  0
 12 15  2  0  0  0  0
 12 28  1  0  0  0  0
 13 16  2  0  0  0  0
 13 18  1  0  0  0  0
 14 23  1  0  0  0  0
 15 22  1  0  0  0  0
 16 24  1  0  0  0  0
 17 26  1  0  0  0  0
 18 25  1  0  0  0  0
 19 23  1  0  0  0  0
 19 25  1  0  0  0  0
 19 27  2  0  0  0  0
 20 26  1  0  0  0  0
 21 26  1  0  0  0  0
 22 23  1  1  0  0  0
  1 29  1  0  0  0  0
  2 30  1  0  0  0  0
  3 31  1  0  0  0  0
  4 32  1  0  0  0  0
  5 33  1  0  0  0  0
  6 34  1  0  0  0  0
  7 35  1  0  0  0  0
  8 36  1  0  0  0  0
  9 37  1  0  0  0  0
 10 38  1  0  0  0  0
 11 39  1  0  0  0  0
 12 40  1  0  0  0  0
 20 41  1  0  0  0  0
 20 42  1  0  0  0  0
 20 43  1  0  0  0  0
 21 44  1  0  0  0  0
 21 45  1  0  0  0  0
 21 46  1  0  0  0  0
 22 47  1  0  0  0  0
 22 48  1  0  0  0  0
 23 49  1  0  0  0  0
 24 50  1  0  0  0  0
 25 51  1  0  0  0  0
M  END
> <clash_score>
0

> <docking_score>
-9.741594314575195

> <overlap_score>
0.9158618450164795

$$$$
BENZO_280_2
  -OEChem-08232013463D

 51 54  0     1  0  0  0  0  0999 V2000
    4.2750    1.7050   20.8490 C   0  0  0  0  0  0  0  0  0  0  0  0
    3.9160    2.0630   19.5520 C   0  0  0  0  0  0  0  0  0  0  0  0
    5.4210    0.9600   21.0930 C   0  0  0  0  0  0  0  0  0  0  0  0
    9.0720   -1.1280   24.8640 C   0  0  0  0  0  0  0  0  0  0  0  0
    9.7200   -2.2600   22.8630 C   0  0  0  0  0  0  0  0  0  0  0  0
    4.6890    1.6810   18.4640 C   0  0  0  0  0  0  0  0  0  0  0  0
    8.9960   -2.3380   25.5320 C   0  0  0  0  0  0  0  0  0  0  0  0
    9.6730   -3.4710   23.5300 C   0  0  0  0  0  0  0  0  0  0  0  0
   10.3314    3.2065   22.7858 C   0  0  0  0  0  0  0  0  0  0  0  0
    7.6390   -0.2680   18.5410 C   0  0  0  0  0  0  0  0  0  0  0  0
   10.3108    4.5599   22.5298 C   0  0  0  0  0  0  0  0  0  0  0  0
    8.2468    3.7959   23.6280 C   0  0  0  0  0  0  0  0  0  0  0  0
    6.1790    0.5730   19.9990 C   0  0  0  0  0  0  0  0  0  0  0  0
    9.3350   -1.0880   23.5010 C   0  0  0  0  0  0  0  0  0  0  0  0
    9.1357    2.7638   23.4219 C   0  0  0  0  0  0  0  0  0  0  0  0
    5.8300    0.9190   18.6970 C   0  0  0  0  0  0  0  0  0  0  0  0
    9.3070   -3.5340   24.8780 C   0  0  0  0  0  0  0  0  0  0  0  0
    7.3170   -0.1610   19.8550 C   0  0  0  0  0  0  0  0  0  0  0  0
    9.0420    0.3700   21.5280 C   0  0  0  0  0  0  0  0  0  0  0  0
    8.8766   -4.8075   26.9494 C   0  0  0  0  0  0  0  0  0  0  0  0
    9.5670   -5.9896   24.8578 C   0  0  0  0  0  0  0  0  0  0  0  0
    8.8757    1.3301   23.8233 C   0  0  0  0  0  0  0  0  0  0  0  0
    9.4560    0.1560   22.8130 C   0  0  2  0  0  0  0  0  0  0  0  0
    6.7580    0.3810   17.8350 N   0  0  0  0  0  0  0  0  0  0  0  0
    8.1890   -0.7180   20.8700 N   0  0  0  0  0  0  0  0  0  0  0  0
    9.2556   -4.7554   25.5514 N   0  0  0  0  0  0  0  0  0  0  0  0
    9.2690    1.4140   20.9380 O   0  0  0  0  0  0  0  0  0  0  0  0
    8.8543    5.2911   23.0556 S   0  0  0  0  0  0  0  0  0  0  0  0
    3.6453    2.0152   21.6831 H   0  0  0  0  0  0  0  0  0  0  0  0
    3.0147    2.6520   19.3913 H   0  0  0  0  0  0  0  0  0  0  0  0
    5.6991    0.6995   22.1042 H   0  0  0  0  0  0  0  0  0  0  0  0
    8.9214   -0.1986   25.4206 H   0  0  0  0  0  0  0  0  0  0  0  0
   10.0622   -2.2326   21.8251 H   0  0  0  0  0  0  0  0  0  0  0  0
    4.4051    1.9733   17.4488 H   0  0  0  0  0  0  0  0  0  0  0  0
    8.6882   -2.3542   26.5803 H   0  0  0  0  0  0  0  0  0  0  0  0
    9.9258   -4.3896   22.9914 H   0  0  0  0  0  0  0  0  0  0  0  0
   11.1669    2.5681   22.5277 H   0  0  0  0  0  0  0  0  0  0  0  0
    8.4825   -0.7940   18.0623 H   0  0  0  0  0  0  0  0  0  0  0  0
   11.0815    5.1544   22.0600 H   0  0  0  0  0  0  0  0  0  0  0  0
    7.2694    3.7480   24.0880 H   0  0  0  0  0  0  0  0  0  0  0  0
    8.8956   -5.8512   27.2963 H   0  0  0  0  0  0  0  0  0  0  0  0
    9.5845   -4.2109   27.5435 H   0  0  0  0  0  0  0  0  0  0  0  0
    7.8621   -4.3997   27.0696 H   0  0  0  0  0  0  0  0  0  0  0  0
    9.4708   -6.8361   25.5536 H   0  0  0  0  0  0  0  0  0  0  0  0
    8.8693   -6.1242   24.0181 H   0  0  0  0  0  0  0  0  0  0  0  0
   10.5973   -5.9450   24.4750 H   0  0  0  0  0  0  0  0  0  0  0  0
    9.2390    1.1684   24.8466 H   0  0  0  0  0  0  0  0  0  0  0  0
    7.7875    1.1860   23.8742 H   0  0  0  0  0  0  0  0  0  0  0  0
   10.6103    0.4565   22.8881 H   0  0  0  0  0  0  0  0  0  0  0  0
    6.7266    0.4930   16.8305 H   0  0  0  0  0  0  0  0  0  0  0  0
    8.2408   -1.5631   21.0968 H   0  0  0  0  0  0  0  0  0  0  0  0
  1  2  1  0  0  0  0
  1  3  2  0  0  0  0
  2  6  2  0  0  0  0
  3 13  1  0  0  0  0
  4  7  2  0  0  0  0
  4 14  1  0  0  0  0
  5  8  1  0  0  0  0
  5 14  2  0  0  0  0
  6 16  1  0  0  0  0
  7 17  1  0  0  0  0
  8 17  2  0  0  0  0
  9 11  2  0  0  0  0
  9 15  1  0  0  0  0
 10 18  2  0  0  0  0
 10 24  1  0  0  0  0
 11 28  1  0  0  0  0
 12 15  2  0  0  0  0
 12 28  1  0  0  0  0
 13 16  2  0  0  0  0
 13 18  1  0  0  0  0
 14 23  1  0  0  0  0
 15 22  1  0  0  0  0
 16 24  1  0  0  0  0
 17 26  1  0  0  0  0
 18 25  1  0  0  0  0
 19 23  1  0  0  0  0
 19 25  1  0  0  0  0
 19 27  2  0  0  0  0
 20 26  1  0  0  0  0
 21 26  1  0  0  0  0
 22 23  1  6  0  0  0
  1 29  1  0  0  0  0
  2 30  1  0  0  0  0
  3 31  1  0  0  0  0
  4 32  1  0  0  0  0
  5 33  1  0  0  0  0
  6 34  1  0  0  0  0
  7 35  1  0  0  0  0
  8 36  1  0  0  0  0
  9 37  1  0  0  0  0
 10 38  1  0  0  0  0
 11 39  1  0  0  0  0
 12 40  1  0  0  0  0
 20 41  1  0  0  0  0
 20 42  1  0  0  0  0
 20 43  1  0  0  0  0
 21 44  1  0  0  0  0
 21 45  1  0  0  0  0
 21 46  1  0  0  0  0
 22 47  1  0  0  0  0
 22 48  1  0  0  0  0
 23 49  1  0  0  0  0
 24 50  1  0  0  0  0
 25 51  1  0  0  0  0
M  END
> <clash_score>
0

> <docking_score>
-7.301471710205078

> <overlap_score>
0.8462641835212708

$$$$
BENZO_279_2
  -OEChem-08232013463D

 57 61  0     1  0  0  0  0  0999 V2000
    9.0720   -1.1280   24.8640 C   0  0  0  0  0  0  0  0  0  0  0  0
    9.7200   -2.2600   22.8630 C   0  0  0  0  0  0  0  0  0  0  0  0
    8.9960   -2.3380   25.5320 C   0  0  0  0  0  0  0  0  0  0  0  0
    9.6730   -3.4710   23.5300 C   0  0  0  0  0  0  0  0  0  0  0  0
   10.2059    3.2839   22.6653 C   0  0  0  0  0  0  0  0  0  0  0  0
    8.3433    3.8704   23.6762 C   0  0  0  0  0  0  0  0  0  0  0  0
    9.3350   -1.0880   23.5010 C   0  0  0  0  0  0  0  0  0  0  0  0
    9.1243    2.7729   23.4075 C   0  0  0  0  0  0  0  0  0  0  0  0
    9.3070   -3.5340   24.8780 C   0  0  0  0  0  0  0  0  0  0  0  0
    6.1790    0.5730   19.9990 C   0  0  0  0  0  0  0  0  0  0  0  0
    7.3170   -0.1610   19.8550 C   0  0  0  0  0  0  0  0  0  0  0  0
    5.4210    0.9600   21.0930 C   0  0  0  0  0  0  0  0  0  0  0  0
    4.2750    1.7050   20.8490 C   0  0  0  0  0  0  0  0  0  0  0  0
    3.9160    2.0630   19.5520 C   0  0  0  0  0  0  0  0  0  0  0  0
    4.6890    1.6810   18.4640 C   0  0  0  0  0  0  0  0  0  0  0  0
    9.0420    0.3700   21.5280 C   0  0  0  0  0  0  0  0  0  0  0  0
    9.5835   -5.9889   24.8508 C   0  0  0  0  0  0  0  0  0  0  0  0
    8.4830   -4.9307   26.7696 C   0  0  0  0  0  0  0  0  0  0  0  0
    8.2780   -6.7382   24.5802 C   0  0  0  0  0  0  0  0  0  0  0  0
    7.2139   -5.7040   26.4277 C   0  0  0  0  0  0  0  0  0  0  0  0
    8.5383    6.3046   23.1148 C   0  0  0  0  0  0  0  0  0  0  0  0
    8.8746    1.3393   23.8158 C   0  0  0  0  0  0  0  0  0  0  0  0
    9.4560    0.1560   22.8130 C   0  0  2  0  0  0  0  0  0  0  0  0
   10.1229    4.6032   22.4745 N   0  0  0  0  0  0  0  0  0  0  0  0
    7.6390   -0.2680   18.5410 N   0  0  0  0  0  0  0  0  0  0  0  0
    6.7580    0.3810   17.8350 N   0  0  0  0  0  0  0  0  0  0  0  0
    8.9797    4.9306   23.1006 N   0  0  0  0  0  0  0  0  0  0  0  0
    5.8300    0.9190   18.6970 N   0  0  0  0  0  0  0  0  0  0  0  0
    9.2564   -4.7368   25.5411 N   0  0  0  0  0  0  0  0  0  0  0  0
    8.1890   -0.7180   20.8700 N   0  0  0  0  0  0  0  0  0  0  0  0
    9.2690    1.4140   20.9380 O   0  0  0  0  0  0  0  0  0  0  0  0
    7.5531   -6.9453   25.7977 O   0  0  0  0  0  0  0  0  0  0  0  0
    8.9214   -0.1986   25.4206 H   0  0  0  0  0  0  0  0  0  0  0  0
   10.0622   -2.2326   21.8251 H   0  0  0  0  0  0  0  0  0  0  0  0
    8.6882   -2.3542   26.5803 H   0  0  0  0  0  0  0  0  0  0  0  0
    9.9258   -4.3896   22.9914 H   0  0  0  0  0  0  0  0  0  0  0  0
   11.0518    2.7517   22.2537 H   0  0  0  0  0  0  0  0  0  0  0  0
    7.4115    3.9842   24.2133 H   0  0  0  0  0  0  0  0  0  0  0  0
    5.6855    0.7074   22.1002 H   0  0  0  0  0  0  0  0  0  0  0  0
    3.6634    2.0034   21.6926 H   0  0  0  0  0  0  0  0  0  0  0  0
    3.0111    2.6563   19.3629 H   0  0  0  0  0  0  0  0  0  0  0  0
    4.4370    1.9522   17.4626 H   0  0  0  0  0  0  0  0  0  0  0  0
   10.2403   -6.6108   25.4579 H   0  0  0  0  0  0  0  0  0  0  0  0
   10.0757   -5.7616   23.9043 H   0  0  0  0  0  0  0  0  0  0  0  0
    8.2168   -3.9556   27.1860 H   0  0  0  0  0  0  0  0  0  0  0  0
    9.0602   -5.4857   27.5117 H   0  0  0  0  0  0  0  0  0  0  0  0
    7.6439   -6.1455   23.9135 H   0  0  0  0  0  0  0  0  0  0  0  0
    8.4620   -7.7014   24.0901 H   0  0  0  0  0  0  0  0  0  0  0  0
    6.6049   -5.8940   27.3159 H   0  0  0  0  0  0  0  0  0  0  0  0
    6.6090   -5.1300   25.7228 H   0  0  0  0  0  0  0  0  0  0  0  0
    8.9640    6.7865   23.9989 H   0  0  0  0  0  0  0  0  0  0  0  0
    8.8793    6.8060   22.2046 H   0  0  0  0  0  0  0  0  0  0  0  0
    7.4457    6.3329   23.1513 H   0  0  0  0  0  0  0  0  0  0  0  0
    9.2322    1.1871   24.8426 H   0  0  0  0  0  0  0  0  0  0  0  0
    7.7874    1.1856   23.8601 H   0  0  0  0  0  0  0  0  0  0  0  0
   10.6111    0.4645   22.8838 H   0  0  0  0  0  0  0  0  0  0  0  0
    8.2585   -1.5522   21.1129 H   0  0  0  0  0  0  0  0  0  0  0  0
  1  3  2  0  0  0  0
  1  7  1  0  0  0  0
  2  4  1  0  0  0  0
  2  7  2  0  0  0  0
  3  9  1  0  0  0  0
  4  9  2  0  0  0  0
  5  8  1  0  0  0  0
  5 24  2  0  0  0  0
  6  8  2  0  0  0  0
  6 27  1  0  0  0  0
  7 23  1  0  0  0  0
  8 22  1  0  0  0  0
  9 29  1  0  0  0  0
 10 11  2  0  0  0  0
 10 12  1  0  0  0  0
 10 28  1  0  0  0  0
 11 25  1  0  0  0  0
 11 30  1  0  0  0  0
 12 13  2  0  0  0  0
 13 14  1  0  0  0  0
 14 15  2  0  0  0  0
 15 28  1  0  0  0  0
 16 23  1  0  0  0  0
 16 30  1  0  0  0  0
 16 31  2  0  0  0  0
 17 19  1  0  0  0  0
 17 29  1  0  0  0  0
 18 20  1  0  0  0  0
 18 29  1  0  0  0  0
 19 32  1  0  0  0  0
 20 32  1  0  0  0  0
 21 27  1  0  0  0  0
 22 23  1  6  0  0  0
 24 27  1  0  0  0  0
 25 26  2  0  0  0  0
 26 28  1  0  0  0  0
  1 33  1  0  0  0  0
  2 34  1  0  0  0  0
  3 35  1  0  0  0  0
  4 36  1  0  0  0  0
  5 37  1  0  0  0  0
  6 38  1  0  0  0  0
 12 39  1  0  0  0  0
 13 40  1  0  0  0  0
 14 41  1  0  0  0  0
 15 42  1  0  0  0  0
 17 43  1  0  0  0  0
 17 44  1  0  0  0  0
 18 45  1  0  0  0  0
 18 46  1  0  0  0  0
 19 47  1  0  0  0  0
 19 48  1  0  0  0  0
 20 49  1  0  0  0  0
 20 50  1  0  0  0  0
 21 51  1  0  0  0  0
 21 52  1  0  0  0  0
 21 53  1  0  0  0  0
 22 54  1  0  0  0  0
 22 55  1  0  0  0  0
 23 56  1  0  0  0  0
 30 57  1  0  0  0  0
M  END
> <clash_score>
0

> <docking_score>
-6.234786033630371

> <overlap_score>
0.8582332134246826

$$$$
BENZO_278_2
  -OEChem-08232013463D

 57 61  0     1  0  0  0  0  0999 V2000
   10.2883    4.3880   23.5308 C   0  0  0  0  0  0  0  0  0  0  0  0
   10.1371    3.0016   23.5115 C   0  0  0  0  0  0  0  0  0  0  0  0
    9.0720   -1.1280   24.8640 C   0  0  0  0  0  0  0  0  0  0  0  0
    9.7200   -2.2600   22.8630 C   0  0  0  0  0  0  0  0  0  0  0  0
    8.9960   -2.3380   25.5320 C   0  0  0  0  0  0  0  0  0  0  0  0
    9.6730   -3.4710   23.5300 C   0  0  0  0  0  0  0  0  0  0  0  0
   11.4763    4.9663   23.0834 C   0  0  0  0  0  0  0  0  0  0  0  0
   12.3618    2.7715   22.5978 C   0  0  0  0  0  0  0  0  0  0  0  0
    9.3350   -1.0880   23.5010 C   0  0  0  0  0  0  0  0  0  0  0  0
   11.1738    2.1933   23.0450 C   0  0  0  0  0  0  0  0  0  0  0  0
    9.3070   -3.5340   24.8780 C   0  0  0  0  0  0  0  0  0  0  0  0
   12.5130    4.1581   22.6170 C   0  0  0  0  0  0  0  0  0  0  0  0
    6.1790    0.5730   19.9990 C   0  0  0  0  0  0  0  0  0  0  0  0
    7.3170   -0.1610   19.8550 C   0  0  0  0  0  0  0  0  0  0  0  0
    5.4210    0.9600   21.0930 C   0  0  0  0  0  0  0  0  0  0  0  0
    4.2750    1.7050   20.8490 C   0  0  0  0  0  0  0  0  0  0  0  0
    3.9160    2.0630   19.5520 C   0  0  0  0  0  0  0  0  0  0  0  0
    4.6890    1.6810   18.4640 C   0  0  0  0  0  0  0  0  0  0  0  0
    9.0420    0.3700   21.5280 C   0  0  0  0  0  0  0  0  0  0  0  0
    9.5176   -4.8600   26.9769 C   0  0  0  0  0  0  0  0  0  0  0  0
    8.5166   -5.8725   24.9805 C   0  0  0  0  0  0  0  0  0  0  0  0
    8.1870   -5.0443   27.6986 C   0  0  0  0  0  0  0  0  0  0  0  0
    7.2201   -6.0348   25.7753 C   0  0  0  0  0  0  0  0  0  0  0  0
   11.0096    0.6909   23.0256 C   0  0  0  0  0  0  0  0  0  0  0  0
    9.4560    0.1560   22.8130 C   0  0  2  0  0  0  0  0  0  0  0  0
    7.6390   -0.2680   18.5410 N   0  0  0  0  0  0  0  0  0  0  0  0
    6.7580    0.3810   17.8350 N   0  0  0  0  0  0  0  0  0  0  0  0
    5.8300    0.9190   18.6970 N   0  0  0  0  0  0  0  0  0  0  0  0
    9.2564   -4.7368   25.5411 N   0  0  0  0  0  0  0  0  0  0  0  0
    8.1890   -0.7180   20.8700 N   0  0  0  0  0  0  0  0  0  0  0  0
    9.2690    1.4140   20.9380 O   0  0  0  0  0  0  0  0  0  0  0  0
    7.4995   -6.1856   27.1717 O   0  0  0  0  0  0  0  0  0  0  0  0
   13.9789    4.8720   22.0663 Cl  0  0  0  0  0  0  0  0  0  0  0  0
    9.4808    5.0171   23.8942 H   0  0  0  0  0  0  0  0  0  0  0  0
    9.2080    2.5596   23.8620 H   0  0  0  0  0  0  0  0  0  0  0  0
    8.9214   -0.1986   25.4206 H   0  0  0  0  0  0  0  0  0  0  0  0
   10.0622   -2.2326   21.8251 H   0  0  0  0  0  0  0  0  0  0  0  0
    8.6882   -2.3542   26.5803 H   0  0  0  0  0  0  0  0  0  0  0  0
    9.9258   -4.3896   22.9914 H   0  0  0  0  0  0  0  0  0  0  0  0
   11.5803    6.0484   23.1045 H   0  0  0  0  0  0  0  0  0  0  0  0
   13.1669    2.1370   22.2345 H   0  0  0  0  0  0  0  0  0  0  0  0
    5.6855    0.7074   22.1002 H   0  0  0  0  0  0  0  0  0  0  0  0
    3.6634    2.0034   21.6926 H   0  0  0  0  0  0  0  0  0  0  0  0
    3.0111    2.6563   19.3629 H   0  0  0  0  0  0  0  0  0  0  0  0
    4.4370    1.9522   17.4626 H   0  0  0  0  0  0  0  0  0  0  0  0
   10.0207   -3.9702   27.3608 H   0  0  0  0  0  0  0  0  0  0  0  0
   10.1536   -5.7313   27.1546 H   0  0  0  0  0  0  0  0  0  0  0  0
    9.1181   -6.7774   25.0751 H   0  0  0  0  0  0  0  0  0  0  0  0
    8.2812   -5.7063   23.9302 H   0  0  0  0  0  0  0  0  0  0  0  0
    8.3631   -5.2257   28.7609 H   0  0  0  0  0  0  0  0  0  0  0  0
    7.5532   -4.1574   27.6103 H   0  0  0  0  0  0  0  0  0  0  0  0
    6.5460   -5.1840   25.6220 H   0  0  0  0  0  0  0  0  0  0  0  0
    6.6948   -6.9355   25.4433 H   0  0  0  0  0  0  0  0  0  0  0  0
   11.6022    0.2720   22.2019 H   0  0  0  0  0  0  0  0  0  0  0  0
   11.4622    0.2902   23.9433 H   0  0  0  0  0  0  0  0  0  0  0  0
    8.9292    0.9747   23.5105 H   0  0  0  0  0  0  0  0  0  0  0  0
    8.2585   -1.5522   21.1129 H   0  0  0  0  0  0  0  0  0  0  0  0
  1  2  2  0  0  0  0
  1  7  1  0  0  0  0
  2 10  1  0  0  0  0
  3  5  2  0  0  0  0
  3  9  1  0  0  0  0
  4  6  1  0  0  0  0
  4  9  2  0  0  0  0
  5 11  1  0  0  0  0
  6 11  2  0  0  0  0
  7 12  2  0  0  0  0
  8 10  2  0  0  0  0
  8 12  1  0  0  0  0
  9 25  1  0  0  0  0
 10 24  1  0  0  0  0
 11 29  1  0  0  0  0
 12 33  1  0  0  0  0
 13 14  2  0  0  0  0
 13 15  1  0  0  0  0
 13 28  1  0  0  0  0
 14 26  1  0  0  0  0
 14 30  1  0  0  0  0
 15 16  2  0  0  0  0
 16 17  1  0  0  0  0
 17 18  2  0  0  0  0
 18 28  1  0  0  0  0
 19 25  1  6  0  0  0
 19 30  1  0  0  0  0
 19 31  2  0  0  0  0
 20 22  1  0  0  0  0
 20 29  1  0  0  0  0
 21 23  1  0  0  0  0
 21 29  1  0  0  0  0
 22 32  1  0  0  0  0
 23 32  1  0  0  0  0
 24 25  1  0  0  0  0
 26 27  2  0  0  0  0
 27 28  1  0  0  0  0
  1 34  1  0  0  0  0
  2 35  1  0  0  0  0
  3 36  1  0  0  0  0
  4 37  1  0  0  0  0
  5 38  1  0  0  0  0
  6 39  1  0  0  0  0
  7 40  1  0  0  0  0
  8 41  1  0  0  0  0
 15 42  1  0  0  0  0
 16 43  1  0  0  0  0
 17 44  1  0  0  0  0
 18 45  1  0  0  0  0
 20 46  1  0  0  0  0
 20 47  1  0  0  0  0
 21 48  1  0  0  0  0
 21 49  1  0  0  0  0
 22 50  1  0  0  0  0
 22 51  1  0  0  0  0
 23 52  1  0  0  0  0
 23 53  1  0  0  0  0
 24 54  1  0  0  0  0
 24 55  1  0  0  0  0
 25 56  1  0  0  0  0
 30 57  1  0  0  0  0
M  END
> <clash_score>
0

> <docking_score>
-11.00147819519043

> <overlap_score>
0.9450560808181763

$$$$
BENZO_279_1
  -OEChem-08232013463D

 57 61  0     1  0  0  0  0  0999 V2000
    9.0720   -1.1280   24.8640 C   0  0  0  0  0  0  0  0  0  0  0  0
    9.7200   -2.2600   22.8630 C   0  0  0  0  0  0  0  0  0  0  0  0
    8.9960   -2.3380   25.5320 C   0  0  0  0  0  0  0  0  0  0  0  0
    9.6730   -3.4710   23.5300 C   0  0  0  0  0  0  0  0  0  0  0  0
   10.2449    3.1582   23.4786 C   0  0  0  0  0  0  0  0  0  0  0  0
   12.2661    2.9236   22.6451 C   0  0  0  0  0  0  0  0  0  0  0  0
    9.3350   -1.0880   23.5010 C   0  0  0  0  0  0  0  0  0  0  0  0
   11.1738    2.1933   23.0450 C   0  0  0  0  0  0  0  0  0  0  0  0
    9.3070   -3.5340   24.8780 C   0  0  0  0  0  0  0  0  0  0  0  0
    6.1790    0.5730   19.9990 C   0  0  0  0  0  0  0  0  0  0  0  0
    7.3170   -0.1610   19.8550 C   0  0  0  0  0  0  0  0  0  0  0  0
    5.4210    0.9600   21.0930 C   0  0  0  0  0  0  0  0  0  0  0  0
    4.2750    1.7050   20.8490 C   0  0  0  0  0  0  0  0  0  0  0  0
    3.9160    2.0630   19.5520 C   0  0  0  0  0  0  0  0  0  0  0  0
    4.6890    1.6810   18.4640 C   0  0  0  0  0  0  0  0  0  0  0  0
    9.0420    0.3700   21.5280 C   0  0  0  0  0  0  0  0  0  0  0  0
   10.0772   -5.0257   26.7191 C   0  0  0  0  0  0  0  0  0  0  0  0
    8.0927   -5.6196   25.4069 C   0  0  0  0  0  0  0  0  0  0  0  0
    9.1935   -4.9431   27.9590 C   0  0  0  0  0  0  0  0  0  0  0  0
    7.2758   -5.5292   26.6966 C   0  0  0  0  0  0  0  0  0  0  0  0
   12.7722    5.3769   22.5852 C   0  0  0  0  0  0  0  0  0  0  0  0
   11.0096    0.6909   23.0256 C   0  0  0  0  0  0  0  0  0  0  0  0
    9.4560    0.1560   22.8130 C   0  0  1  0  0  0  0  0  0  0  0  0
   10.7069    4.4063   23.3651 N   0  0  0  0  0  0  0  0  0  0  0  0
    7.6390   -0.2680   18.5410 N   0  0  0  0  0  0  0  0  0  0  0  0
    6.7580    0.3810   17.8350 N   0  0  0  0  0  0  0  0  0  0  0  0
   11.9381    4.2306   22.8556 N   0  0  0  0  0  0  0  0  0  0  0  0
    5.8300    0.9190   18.6970 N   0  0  0  0  0  0  0  0  0  0  0  0
    9.2564   -4.7368   25.5411 N   0  0  0  0  0  0  0  0  0  0  0  0
    8.1890   -0.7180   20.8700 N   0  0  0  0  0  0  0  0  0  0  0  0
    9.2690    1.4140   20.9380 O   0  0  0  0  0  0  0  0  0  0  0  0
    8.0884   -5.8462   27.8322 O   0  0  0  0  0  0  0  0  0  0  0  0
    8.9214   -0.1986   25.4206 H   0  0  0  0  0  0  0  0  0  0  0  0
   10.0622   -2.2326   21.8251 H   0  0  0  0  0  0  0  0  0  0  0  0
    8.6882   -2.3542   26.5803 H   0  0  0  0  0  0  0  0  0  0  0  0
    9.9258   -4.3896   22.9914 H   0  0  0  0  0  0  0  0  0  0  0  0
    9.2505    3.0064   23.8739 H   0  0  0  0  0  0  0  0  0  0  0  0
   13.2256    2.6317   22.2400 H   0  0  0  0  0  0  0  0  0  0  0  0
    5.6855    0.7074   22.1002 H   0  0  0  0  0  0  0  0  0  0  0  0
    3.6634    2.0034   21.6926 H   0  0  0  0  0  0  0  0  0  0  0  0
    3.0111    2.6563   19.3629 H   0  0  0  0  0  0  0  0  0  0  0  0
    4.4370    1.9522   17.4626 H   0  0  0  0  0  0  0  0  0  0  0  0
   10.8986   -4.3117   26.8083 H   0  0  0  0  0  0  0  0  0  0  0  0
   10.4916   -6.0336   26.6319 H   0  0  0  0  0  0  0  0  0  0  0  0
    8.4328   -6.6457   25.2617 H   0  0  0  0  0  0  0  0  0  0  0  0
    7.4726   -5.3240   24.5618 H   0  0  0  0  0  0  0  0  0  0  0  0
    9.7638   -5.2402   28.8416 H   0  0  0  0  0  0  0  0  0  0  0  0
    8.8238   -3.9272   28.1248 H   0  0  0  0  0  0  0  0  0  0  0  0
    6.8340   -4.5339   26.8232 H   0  0  0  0  0  0  0  0  0  0  0  0
    6.4551   -6.2523   26.6641 H   0  0  0  0  0  0  0  0  0  0  0  0
   12.5768    5.7019   21.5598 H   0  0  0  0  0  0  0  0  0  0  0  0
   12.5325    6.1764   23.2918 H   0  0  0  0  0  0  0  0  0  0  0  0
   13.8223    5.0961   22.7049 H   0  0  0  0  0  0  0  0  0  0  0  0
   11.6022    0.2720   22.2019 H   0  0  0  0  0  0  0  0  0  0  0  0
   11.4622    0.2902   23.9433 H   0  0  0  0  0  0  0  0  0  0  0  0
    8.9292    0.9747   23.5105 H   0  0  0  0  0  0  0  0  0  0  0  0
    8.2585   -1.5522   21.1129 H   0  0  0  0  0  0  0  0  0  0  0  0
  1  3  2  0  0  0  0
  1  7  1  0  0  0  0
  2  4  1  0  0  0  0
  2  7  2  0  0  0  0
  3  9  1  0  0  0  0
  4  9  2  0  0  0  0
  5  8  1  0  0  0  0
  5 24  2  0  0  0  0
  6  8  2  0  0  0  0
  6 27  1  0  0  0  0
  7 23  1  0  0  0  0
  8 22  1  0  0  0  0
  9 29  1  0  0  0  0
 10 11  2  0  0  0  0
 10 12  1  0  0  0  0
 10 28  1  0  0  0  0
 11 25  1  0  0  0  0
 11 30  1  0  0  0  0
 12 13  2  0  0  0  0
 13 14  1  0  0  0  0
 14 15  2  0  0  0  0
 15 28  1  0  0  0  0
 16 23  1  0  0  0  0
 16 30  1  0  0  0  0
 16 31  2  0  0  0  0
 17 19  1  0  0  0  0
 17 29  1  0  0  0  0
 18 20  1  0  0  0  0
 18 29  1  0  0  0  0
 19 32  1  0  0  0  0
 20 32  1  0  0  0  0
 21 27  1  0  0  0  0
 22 23  1  1  0  0  0
 24 27  1  0  0  0  0
 25 26  2  0  0  0  0
 26 28  1  0  0  0  0
  1 33  1  0  0  0  0
  2 34  1  0  0  0  0
  3 35  1  0  0  0  0
  4 36  1  0  0  0  0
  5 37  1  0  0  0  0
  6 38  1  0  0  0  0
 12 39  1  0  0  0  0
 13 40  1  0  0  0  0
 14 41  1  0  0  0  0
 15 42  1  0  0  0  0
 17 43  1  0  0  0  0
 17 44  1  0  0  0  0
 18 45  1  0  0  0  0
 18 46  1  0  0  0  0
 19 47  1  0  0  0  0
 19 48  1  0  0  0  0
 20 49  1  0  0  0  0
 20 50  1  0  0  0  0
 21 51  1  0  0  0  0
 21 52  1  0  0  0  0
 21 53  1  0  0  0  0
 22 54  1  0  0  0  0
 22 55  1  0  0  0  0
 23 56  1  0  0  0  0
 30 57  1  0  0  0  0
M  END
> <clash_score>
0

> <docking_score>
-10.513351440429688

> <overlap_score>
0.9365970492362976

$$$$
BENZO_282_1
  -OEChem-08232013463D

 54 57  0     1  0  0  0  0  0999 V2000
    4.2750    1.7050   20.8490 C   0  0  0  0  0  0  0  0  0  0  0  0
    3.9160    2.0630   19.5520 C   0  0  0  0  0  0  0  0  0  0  0  0
   10.2856    4.3750   23.5656 C   0  0  0  0  0  0  0  0  0  0  0  0
    5.4210    0.9600   21.0930 C   0  0  0  0  0  0  0  0  0  0  0  0
   10.1350    2.9887   23.5349 C   0  0  0  0  0  0  0  0  0  0  0  0
    9.0720   -1.1280   24.8640 C   0  0  0  0  0  0  0  0  0  0  0  0
    9.7200   -2.2600   22.8630 C   0  0  0  0  0  0  0  0  0  0  0  0
    4.6890    1.6810   18.4640 C   0  0  0  0  0  0  0  0  0  0  0  0
    8.9960   -2.3380   25.5320 C   0  0  0  0  0  0  0  0  0  0  0  0
    9.6730   -3.4710   23.5300 C   0  0  0  0  0  0  0  0  0  0  0  0
   11.4735    4.9575   23.1236 C   0  0  0  0  0  0  0  0  0  0  0  0
   12.3603    2.7672   22.6205 C   0  0  0  0  0  0  0  0  0  0  0  0
    7.6390   -0.2680   18.5410 C   0  0  0  0  0  0  0  0  0  0  0  0
    6.1790    0.5730   19.9990 C   0  0  0  0  0  0  0  0  0  0  0  0
    9.3350   -1.0880   23.5010 C   0  0  0  0  0  0  0  0  0  0  0  0
   11.1723    2.1848   23.0624 C   0  0  0  0  0  0  0  0  0  0  0  0
    5.8300    0.9190   18.6970 C   0  0  0  0  0  0  0  0  0  0  0  0
    9.3070   -3.5340   24.8780 C   0  0  0  0  0  0  0  0  0  0  0  0
    7.3170   -0.1610   19.8550 C   0  0  0  0  0  0  0  0  0  0  0  0
   12.5108    4.1536   22.6511 C   0  0  0  0  0  0  0  0  0  0  0  0
    9.0420    0.3700   21.5280 C   0  0  0  0  0  0  0  0  0  0  0  0
    8.0148   -5.2164   26.1419 C   0  0  0  0  0  0  0  0  0  0  0  0
   10.4390   -5.5857   25.6570 C   0  0  0  0  0  0  0  0  0  0  0  0
   11.0089    0.6825   23.0307 C   0  0  0  0  0  0  0  0  0  0  0  0
    9.4560    0.1560   22.8130 C   0  0  1  0  0  0  0  0  0  0  0  0
    6.7580    0.3810   17.8350 N   0  0  0  0  0  0  0  0  0  0  0  0
    8.1890   -0.7180   20.8700 N   0  0  0  0  0  0  0  0  0  0  0  0
    9.2556   -4.7554   25.5514 N   0  0  0  0  0  0  0  0  0  0  0  0
    9.2690    1.4140   20.9380 O   0  0  0  0  0  0  0  0  0  0  0  0
   13.9766    4.8727   22.1070 Cl  0  0  0  0  0  0  0  0  0  0  0  0
    3.6453    2.0152   21.6831 H   0  0  0  0  0  0  0  0  0  0  0  0
    3.0147    2.6520   19.3913 H   0  0  0  0  0  0  0  0  0  0  0  0
    9.4776    5.0007   23.9337 H   0  0  0  0  0  0  0  0  0  0  0  0
    5.6991    0.6995   22.1042 H   0  0  0  0  0  0  0  0  0  0  0  0
    9.2060    2.5434   23.8814 H   0  0  0  0  0  0  0  0  0  0  0  0
    8.9214   -0.1986   25.4206 H   0  0  0  0  0  0  0  0  0  0  0  0
   10.0622   -2.2326   21.8251 H   0  0  0  0  0  0  0  0  0  0  0  0
    4.4051    1.9733   17.4488 H   0  0  0  0  0  0  0  0  0  0  0  0
    8.6882   -2.3542   26.5803 H   0  0  0  0  0  0  0  0  0  0  0  0
    9.9258   -4.3896   22.9914 H   0  0  0  0  0  0  0  0  0  0  0  0
   11.5769    6.0394   23.1535 H   0  0  0  0  0  0  0  0  0  0  0  0
   13.1659    2.1361   22.2525 H   0  0  0  0  0  0  0  0  0  0  0  0
    8.4825   -0.7940   18.0623 H   0  0  0  0  0  0  0  0  0  0  0  0
    8.1775   -6.1919   26.6235 H   0  0  0  0  0  0  0  0  0  0  0  0
    7.6740   -4.4889   26.8933 H   0  0  0  0  0  0  0  0  0  0  0  0
    7.2508   -5.3181   25.3570 H   0  0  0  0  0  0  0  0  0  0  0  0
   10.1974   -6.4996   26.2196 H   0  0  0  0  0  0  0  0  0  0  0  0
   10.7877   -5.8568   24.6496 H   0  0  0  0  0  0  0  0  0  0  0  0
   11.2305   -5.0307   26.1819 H   0  0  0  0  0  0  0  0  0  0  0  0
   11.6011    0.2707   22.2030 H   0  0  0  0  0  0  0  0  0  0  0  0
   11.4624    0.2744   23.9446 H   0  0  0  0  0  0  0  0  0  0  0  0
    8.9284    0.9668   23.5149 H   0  0  0  0  0  0  0  0  0  0  0  0
    6.7266    0.4930   16.8305 H   0  0  0  0  0  0  0  0  0  0  0  0
    8.2408   -1.5631   21.0968 H   0  0  0  0  0  0  0  0  0  0  0  0
  1  2  1  0  0  0  0
  1  4  2  0  0  0  0
  2  8  2  0  0  0  0
  3  5  2  0  0  0  0
  3 11  1  0  0  0  0
  4 14  1  0  0  0  0
  5 16  1  0  0  0  0
  6  9  2  0  0  0  0
  6 15  1  0  0  0  0
  7 10  1  0  0  0  0
  7 15  2  0  0  0  0
  8 17  1  0  0  0  0
  9 18  1  0  0  0  0
 10 18  2  0  0  0  0
 11 20  2  0  0  0  0
 12 16  2  0  0  0  0
 12 20  1  0  0  0  0
 13 19  2  0  0  0  0
 13 26  1  0  0  0  0
 14 17  2  0  0  0  0
 14 19  1  0  0  0  0
 15 25  1  0  0  0  0
 16 24  1  0  0  0  0
 17 26  1  0  0  0  0
 18 28  1  0  0  0  0
 19 27  1  0  0  0  0
 20 30  1  0  0  0  0
 21 25  1  0  0  0  0
 21 27  1  0  0  0  0
 21 29  2  0  0  0  0
 22 28  1  0  0  0  0
 23 28  1  0  0  0  0
 24 25  1  1  0  0  0
  1 31  1  0  0  0  0
  2 32  1  0  0  0  0
  3 33  1  0  0  0  0
  4 34  1  0  0  0  0
  5 35  1  0  0  0  0
  6 36  1  0  0  0  0
  7 37  1  0  0  0  0
  8 38  1  0  0  0  0
  9 39  1  0  0  0  0
 10 40  1  0  0  0  0
 11 41  1  0  0  0  0
 12 42  1  0  0  0  0
 13 43  1  0  0  0  0
 22 44  1  0  0  0  0
 22 45  1  0  0  0  0
 22 46  1  0  0  0  0
 23 47  1  0  0  0  0
 23 48  1  0  0  0  0
 23 49  1  0  0  0  0
 24 50  1  0  0  0  0
 24 51  1  0  0  0  0
 25 52  1  0  0  0  0
 26 53  1  0  0  0  0
 27 54  1  0  0  0  0
M  END
> <clash_score>
0

> <docking_score>
-11.143359184265137

> <overlap_score>
0.9294799566268921

$$$$
BENZO_282_2
  -OEChem-08232013463D

 54 57  0     1  0  0  0  0  0999 V2000
    4.2750    1.7050   20.8490 C   0  0  0  0  0  0  0  0  0  0  0  0
    3.9160    2.0630   19.5520 C   0  0  0  0  0  0  0  0  0  0  0  0
    8.4741    5.0874   23.4171 C   0  0  0  0  0  0  0  0  0  0  0  0
    5.4210    0.9600   21.0930 C   0  0  0  0  0  0  0  0  0  0  0  0
    8.2342    3.7639   23.7862 C   0  0  0  0  0  0  0  0  0  0  0  0
    9.0720   -1.1280   24.8640 C   0  0  0  0  0  0  0  0  0  0  0  0
    9.7200   -2.2600   22.8630 C   0  0  0  0  0  0  0  0  0  0  0  0
    4.6890    1.6810   18.4640 C   0  0  0  0  0  0  0  0  0  0  0  0
    8.9960   -2.3380   25.5320 C   0  0  0  0  0  0  0  0  0  0  0  0
    9.6730   -3.4710   23.5300 C   0  0  0  0  0  0  0  0  0  0  0  0
    9.6155    5.4109   22.6835 C   0  0  0  0  0  0  0  0  0  0  0  0
   10.2772    3.0873   22.6883 C   0  0  0  0  0  0  0  0  0  0  0  0
    7.6390   -0.2680   18.5410 C   0  0  0  0  0  0  0  0  0  0  0  0
    6.1790    0.5730   19.9990 C   0  0  0  0  0  0  0  0  0  0  0  0
    9.3350   -1.0880   23.5010 C   0  0  0  0  0  0  0  0  0  0  0  0
    9.1357    2.7638   23.4219 C   0  0  0  0  0  0  0  0  0  0  0  0
    5.8300    0.9190   18.6970 C   0  0  0  0  0  0  0  0  0  0  0  0
    9.3070   -3.5340   24.8780 C   0  0  0  0  0  0  0  0  0  0  0  0
    7.3170   -0.1610   19.8550 C   0  0  0  0  0  0  0  0  0  0  0  0
   10.5171    4.4109   22.3191 C   0  0  0  0  0  0  0  0  0  0  0  0
    9.0420    0.3700   21.5280 C   0  0  0  0  0  0  0  0  0  0  0  0
    8.8766   -4.8075   26.9494 C   0  0  0  0  0  0  0  0  0  0  0  0
    9.5670   -5.9896   24.8578 C   0  0  0  0  0  0  0  0  0  0  0  0
    8.8757    1.3301   23.8233 C   0  0  0  0  0  0  0  0  0  0  0  0
    9.4560    0.1560   22.8130 C   0  0  2  0  0  0  0  0  0  0  0  0
    6.7580    0.3810   17.8350 N   0  0  0  0  0  0  0  0  0  0  0  0
    8.1890   -0.7180   20.8700 N   0  0  0  0  0  0  0  0  0  0  0  0
    9.2556   -4.7554   25.5514 N   0  0  0  0  0  0  0  0  0  0  0  0
    9.2690    1.4140   20.9380 O   0  0  0  0  0  0  0  0  0  0  0  0
   11.9257    4.8108   21.4150 Cl  0  0  0  0  0  0  0  0  0  0  0  0
    3.6453    2.0152   21.6831 H   0  0  0  0  0  0  0  0  0  0  0  0
    3.0147    2.6520   19.3913 H   0  0  0  0  0  0  0  0  0  0  0  0
    7.7719    5.8659   23.7012 H   0  0  0  0  0  0  0  0  0  0  0  0
    5.6991    0.6995   22.1042 H   0  0  0  0  0  0  0  0  0  0  0  0
    7.3423    3.5209   24.3579 H   0  0  0  0  0  0  0  0  0  0  0  0
    8.9214   -0.1986   25.4206 H   0  0  0  0  0  0  0  0  0  0  0  0
   10.0622   -2.2326   21.8251 H   0  0  0  0  0  0  0  0  0  0  0  0
    4.4051    1.9733   17.4488 H   0  0  0  0  0  0  0  0  0  0  0  0
    8.6882   -2.3542   26.5803 H   0  0  0  0  0  0  0  0  0  0  0  0
    9.9258   -4.3896   22.9914 H   0  0  0  0  0  0  0  0  0  0  0  0
    9.7898    6.4468   22.4029 H   0  0  0  0  0  0  0  0  0  0  0  0
   10.9768    2.3039   22.4061 H   0  0  0  0  0  0  0  0  0  0  0  0
    8.4825   -0.7940   18.0623 H   0  0  0  0  0  0  0  0  0  0  0  0
    8.8956   -5.8512   27.2963 H   0  0  0  0  0  0  0  0  0  0  0  0
    9.5845   -4.2109   27.5435 H   0  0  0  0  0  0  0  0  0  0  0  0
    7.8621   -4.3997   27.0696 H   0  0  0  0  0  0  0  0  0  0  0  0
    9.4708   -6.8361   25.5536 H   0  0  0  0  0  0  0  0  0  0  0  0
    8.8693   -6.1242   24.0181 H   0  0  0  0  0  0  0  0  0  0  0  0
   10.5973   -5.9450   24.4750 H   0  0  0  0  0  0  0  0  0  0  0  0
    9.2390    1.1684   24.8466 H   0  0  0  0  0  0  0  0  0  0  0  0
    7.7875    1.1860   23.8742 H   0  0  0  0  0  0  0  0  0  0  0  0
   10.6103    0.4565   22.8881 H   0  0  0  0  0  0  0  0  0  0  0  0
    6.7266    0.4930   16.8305 H   0  0  0  0  0  0  0  0  0  0  0  0
    8.2408   -1.5631   21.0968 H   0  0  0  0  0  0  0  0  0  0  0  0
  1  2  1  0  0  0  0
  1  4  2  0  0  0  0
  2  8  2  0  0  0  0
  3  5  2  0  0  0  0
  3 11  1  0  0  0  0
  4 14  1  0  0  0  0
  5 16  1  0  0  0  0
  6  9  2  0  0  0  0
  6 15  1  0  0  0  0
  7 10  1  0  0  0  0
  7 15  2  0  0  0  0
  8 17  1  0  0  0  0
  9 18  1  0  0  0  0
 10 18  2  0  0  0  0
 11 20  2  0  0  0  0
 12 16  2  0  0  0  0
 12 20  1  0  0  0  0
 13 19  2  0  0  0  0
 13 26  1  0  0  0  0
 14 17  2  0  0  0  0
 14 19  1  0  0  0  0
 15 25  1  0  0  0  0
 16 24  1  0  0  0  0
 17 26  1  0  0  0  0
 18 28  1  0  0  0  0
 19 27  1  0  0  0  0
 20 30  1  0  0  0  0
 21 25  1  0  0  0  0
 21 27  1  0  0  0  0
 21 29  2  0  0  0  0
 22 28  1  0  0  0  0
 23 28  1  0  0  0  0
 24 25  1  6  0  0  0
  1 31  1  0  0  0  0
  2 32  1  0  0  0  0
  3 33  1  0  0  0  0
  4 34  1  0  0  0  0
  5 35  1  0  0  0  0
  6 36  1  0  0  0  0
  7 37  1  0  0  0  0
  8 38  1  0  0  0  0
  9 39  1  0  0  0  0
 10 40  1  0  0  0  0
 11 41  1  0  0  0  0
 12 42  1  0  0  0  0
 13 43  1  0  0  0  0
 22 44  1  0  0  0  0
 22 45  1  0  0  0  0
 22 46  1  0  0  0  0
 23 47  1  0  0  0  0
 23 48  1  0  0  0  0
 23 49  1  0  0  0  0
 24 50  1  0  0  0  0
 24 51  1  0  0  0  0
 25 52  1  0  0  0  0
 26 53  1  0  0  0  0
 27 54  1  0  0  0  0
M  END
> <clash_score>
0

> <docking_score>
-6.267499923706055

> <overlap_score>
0.8466970324516296

$$$$
BENZO_283_2
  -OEChem-08232013463D

 54 57  0     1  0  0  0  0  0999 V2000
    4.2750    1.7050   20.8490 C   0  0  0  0  0  0  0  0  0  0  0  0
    3.9160    2.0630   19.5520 C   0  0  0  0  0  0  0  0  0  0  0  0
    5.4210    0.9600   21.0930 C   0  0  0  0  0  0  0  0  0  0  0  0
    9.0720   -1.1280   24.8640 C   0  0  0  0  0  0  0  0  0  0  0  0
    9.7200   -2.2600   22.8630 C   0  0  0  0  0  0  0  0  0  0  0  0
    4.6890    1.6810   18.4640 C   0  0  0  0  0  0  0  0  0  0  0  0
    8.9960   -2.3380   25.5320 C   0  0  0  0  0  0  0  0  0  0  0  0
    9.6730   -3.4710   23.5300 C   0  0  0  0  0  0  0  0  0  0  0  0
   10.2230    3.2711   22.6855 C   0  0  0  0  0  0  0  0  0  0  0  0
    8.3607    3.8650   23.6924 C   0  0  0  0  0  0  0  0  0  0  0  0
    7.6390   -0.2680   18.5410 C   0  0  0  0  0  0  0  0  0  0  0  0
    6.1790    0.5730   19.9990 C   0  0  0  0  0  0  0  0  0  0  0  0
    9.3350   -1.0880   23.5010 C   0  0  0  0  0  0  0  0  0  0  0  0
    9.1357    2.7638   23.4219 C   0  0  0  0  0  0  0  0  0  0  0  0
    5.8300    0.9190   18.6970 C   0  0  0  0  0  0  0  0  0  0  0  0
    9.3070   -3.5340   24.8780 C   0  0  0  0  0  0  0  0  0  0  0  0
    7.3170   -0.1610   19.8550 C   0  0  0  0  0  0  0  0  0  0  0  0
    9.0420    0.3700   21.5280 C   0  0  0  0  0  0  0  0  0  0  0  0
    8.5727    6.3003   23.1419 C   0  0  0  0  0  0  0  0  0  0  0  0
    8.8766   -4.8075   26.9494 C   0  0  0  0  0  0  0  0  0  0  0  0
    9.5670   -5.9896   24.8578 C   0  0  0  0  0  0  0  0  0  0  0  0
    8.8757    1.3301   23.8233 C   0  0  0  0  0  0  0  0  0  0  0  0
    9.4560    0.1560   22.8130 C   0  0  2  0  0  0  0  0  0  0  0  0
   10.1488    4.5917   22.4999 N   0  0  0  0  0  0  0  0  0  0  0  0
    6.7580    0.3810   17.8350 N   0  0  0  0  0  0  0  0  0  0  0  0
    9.0056    4.9236   23.1235 N   0  0  0  0  0  0  0  0  0  0  0  0
    8.1890   -0.7180   20.8700 N   0  0  0  0  0  0  0  0  0  0  0  0
    9.2556   -4.7554   25.5514 N   0  0  0  0  0  0  0  0  0  0  0  0
    9.2690    1.4140   20.9380 O   0  0  0  0  0  0  0  0  0  0  0  0
    3.6453    2.0152   21.6831 H   0  0  0  0  0  0  0  0  0  0  0  0
    3.0147    2.6520   19.3913 H   0  0  0  0  0  0  0  0  0  0  0  0
    5.6991    0.6995   22.1042 H   0  0  0  0  0  0  0  0  0  0  0  0
    8.9214   -0.1986   25.4206 H   0  0  0  0  0  0  0  0  0  0  0  0
   10.0622   -2.2326   21.8251 H   0  0  0  0  0  0  0  0  0  0  0  0
    4.4051    1.9733   17.4488 H   0  0  0  0  0  0  0  0  0  0  0  0
    8.6882   -2.3542   26.5803 H   0  0  0  0  0  0  0  0  0  0  0  0
    9.9258   -4.3896   22.9914 H   0  0  0  0  0  0  0  0  0  0  0  0
   11.0671    2.7354   22.2746 H   0  0  0  0  0  0  0  0  0  0  0  0
    7.4277    3.9824   24.2269 H   0  0  0  0  0  0  0  0  0  0  0  0
    8.4825   -0.7940   18.0623 H   0  0  0  0  0  0  0  0  0  0  0  0
    8.9983    6.7758   24.0295 H   0  0  0  0  0  0  0  0  0  0  0  0
    8.9199    6.8033   22.2351 H   0  0  0  0  0  0  0  0  0  0  0  0
    7.4802    6.3352   23.1748 H   0  0  0  0  0  0  0  0  0  0  0  0
    8.8956   -5.8512   27.2963 H   0  0  0  0  0  0  0  0  0  0  0  0
    9.5845   -4.2109   27.5435 H   0  0  0  0  0  0  0  0  0  0  0  0
    7.8621   -4.3997   27.0696 H   0  0  0  0  0  0  0  0  0  0  0  0
    9.4708   -6.8361   25.5536 H   0  0  0  0  0  0  0  0  0  0  0  0
    8.8693   -6.1242   24.0181 H   0  0  0  0  0  0  0  0  0  0  0  0
   10.5973   -5.9450   24.4750 H   0  0  0  0  0  0  0  0  0  0  0  0
    9.2390    1.1684   24.8466 H   0  0  0  0  0  0  0  0  0  0  0  0
    7.7875    1.1860   23.8742 H   0  0  0  0  0  0  0  0  0  0  0  0
   10.6103    0.4565   22.8881 H   0  0  0  0  0  0  0  0  0  0  0  0
    6.7266    0.4930   16.8305 H   0  0  0  0  0  0  0  0  0  0  0  0
    8.2408   -1.5631   21.0968 H   0  0  0  0  0  0  0  0  0  0  0  0
  1  2  1  0  0  0  0
  1  3  2  0  0  0  0
  2  6  2  0  0  0  0
  3 12  1  0  0  0  0
  4  7  2  0  0  0  0
  4 13  1  0  0  0  0
  5  8  1  0  0  0  0
  5 13  2  0  0  0  0
  6 15  1  0  0  0  0
  7 16  1  0  0  0  0
  8 16  2  0  0  0  0
  9 14  1  0  0  0  0
  9 24  2  0  0  0  0
 10 14  2  0  0  0  0
 10 26  1  0  0  0  0
 11 17  2  0  0  0  0
 11 25  1  0  0  0  0
 12 15  2  0  0  0  0
 12 17  1  0  0  0  0
 13 23  1  0  0  0  0
 14 22  1  0  0  0  0
 15 25  1  0  0  0  0
 16 28  1  0  0  0  0
 17 27  1  0  0  0  0
 18 23  1  0  0  0  0
 18 27  1  0  0  0  0
 18 29  2  0  0  0  0
 19 26  1  0  0  0  0
 20 28  1  0  0  0  0
 21 28  1  0  0  0  0
 22 23  1  6  0  0  0
 24 26  1  0  0  0  0
  1 30  1  0  0  0  0
  2 31  1  0  0  0  0
  3 32  1  0  0  0  0
  4 33  1  0  0  0  0
  5 34  1  0  0  0  0
  6 35  1  0  0  0  0
  7 36  1  0  0  0  0
  8 37  1  0  0  0  0
  9 38  1  0  0  0  0
 10 39  1  0  0  0  0
 11 40  1  0  0  0  0
 19 41  1  0  0  0  0
 19 42  1  0  0  0  0
 19 43  1  0  0  0  0
 20 44  1  0  0  0  0
 20 45  1  0  0  0  0
 20 46  1  0  0  0  0
 21 47  1  0  0  0  0
 21 48  1  0  0  0  0
 21 49  1  0  0  0  0
 22 50  1  0  0  0  0
 22 51  1  0  0  0  0
 23 52  1  0  0  0  0
 25 53  1  0  0  0  0
 27 54  1  0  0  0  0
M  END
> <clash_score>
0

> <docking_score>
-6.642765045166016

> <overlap_score>
0.8417669534683228

$$$$
BENZO_283_1
  -OEChem-08232013463D

 54 57  0     1  0  0  0  0  0999 V2000
    4.2750    1.7050   20.8490 C   0  0  0  0  0  0  0  0  0  0  0  0
    3.9160    2.0630   19.5520 C   0  0  0  0  0  0  0  0  0  0  0  0
    5.4210    0.9600   21.0930 C   0  0  0  0  0  0  0  0  0  0  0  0
    9.0720   -1.1280   24.8640 C   0  0  0  0  0  0  0  0  0  0  0  0
    9.7200   -2.2600   22.8630 C   0  0  0  0  0  0  0  0  0  0  0  0
    4.6890    1.6810   18.4640 C   0  0  0  0  0  0  0  0  0  0  0  0
    8.9960   -2.3380   25.5320 C   0  0  0  0  0  0  0  0  0  0  0  0
    9.6730   -3.4710   23.5300 C   0  0  0  0  0  0  0  0  0  0  0  0
   10.2428    3.1456   23.5034 C   0  0  0  0  0  0  0  0  0  0  0  0
   12.2645    2.9188   22.6690 C   0  0  0  0  0  0  0  0  0  0  0  0
    7.6390   -0.2680   18.5410 C   0  0  0  0  0  0  0  0  0  0  0  0
    6.1790    0.5730   19.9990 C   0  0  0  0  0  0  0  0  0  0  0  0
    9.3350   -1.0880   23.5010 C   0  0  0  0  0  0  0  0  0  0  0  0
   11.1723    2.1848   23.0624 C   0  0  0  0  0  0  0  0  0  0  0  0
    5.8300    0.9190   18.6970 C   0  0  0  0  0  0  0  0  0  0  0  0
    9.3070   -3.5340   24.8780 C   0  0  0  0  0  0  0  0  0  0  0  0
    7.3170   -0.1610   19.8550 C   0  0  0  0  0  0  0  0  0  0  0  0
    9.0420    0.3700   21.5280 C   0  0  0  0  0  0  0  0  0  0  0  0
   12.7694    5.3728   22.6294 C   0  0  0  0  0  0  0  0  0  0  0  0
    8.0148   -5.2164   26.1419 C   0  0  0  0  0  0  0  0  0  0  0  0
   10.4390   -5.5857   25.6570 C   0  0  0  0  0  0  0  0  0  0  0  0
   11.0089    0.6825   23.0307 C   0  0  0  0  0  0  0  0  0  0  0  0
    9.4560    0.1560   22.8130 C   0  0  1  0  0  0  0  0  0  0  0  0
   10.7043    4.3948   23.4002 N   0  0  0  0  0  0  0  0  0  0  0  0
    6.7580    0.3810   17.8350 N   0  0  0  0  0  0  0  0  0  0  0  0
   11.9358    4.2239   22.8900 N   0  0  0  0  0  0  0  0  0  0  0  0
    8.1890   -0.7180   20.8700 N   0  0  0  0  0  0  0  0  0  0  0  0
    9.2556   -4.7554   25.5514 N   0  0  0  0  0  0  0  0  0  0  0  0
    9.2690    1.4140   20.9380 O   0  0  0  0  0  0  0  0  0  0  0  0
    3.6453    2.0152   21.6831 H   0  0  0  0  0  0  0  0  0  0  0  0
    3.0147    2.6520   19.3913 H   0  0  0  0  0  0  0  0  0  0  0  0
    5.6991    0.6995   22.1042 H   0  0  0  0  0  0  0  0  0  0  0  0
    8.9214   -0.1986   25.4206 H   0  0  0  0  0  0  0  0  0  0  0  0
   10.0622   -2.2326   21.8251 H   0  0  0  0  0  0  0  0  0  0  0  0
    4.4051    1.9733   17.4488 H   0  0  0  0  0  0  0  0  0  0  0  0
    8.6882   -2.3542   26.5803 H   0  0  0  0  0  0  0  0  0  0  0  0
    9.9258   -4.3896   22.9914 H   0  0  0  0  0  0  0  0  0  0  0  0
    9.2482    2.9901   23.8969 H   0  0  0  0  0  0  0  0  0  0  0  0
   13.2243    2.6307   22.2620 H   0  0  0  0  0  0  0  0  0  0  0  0
    8.4825   -0.7940   18.0623 H   0  0  0  0  0  0  0  0  0  0  0  0
   12.5744    5.7060   21.6066 H   0  0  0  0  0  0  0  0  0  0  0  0
   12.5290    6.1664   23.3423 H   0  0  0  0  0  0  0  0  0  0  0  0
   13.8196    5.0915   22.7473 H   0  0  0  0  0  0  0  0  0  0  0  0
    8.1775   -6.1919   26.6235 H   0  0  0  0  0  0  0  0  0  0  0  0
    7.6740   -4.4889   26.8933 H   0  0  0  0  0  0  0  0  0  0  0  0
    7.2508   -5.3181   25.3570 H   0  0  0  0  0  0  0  0  0  0  0  0
   10.1974   -6.4996   26.2196 H   0  0  0  0  0  0  0  0  0  0  0  0
   10.7877   -5.8568   24.6496 H   0  0  0  0  0  0  0  0  0  0  0  0
   11.2305   -5.0307   26.1819 H   0  0  0  0  0  0  0  0  0  0  0  0
   11.6011    0.2707   22.2030 H   0  0  0  0  0  0  0  0  0  0  0  0
   11.4624    0.2744   23.9446 H   0  0  0  0  0  0  0  0  0  0  0  0
    8.9284    0.9668   23.5149 H   0  0  0  0  0  0  0  0  0  0  0  0
    6.7266    0.4930   16.8305 H   0  0  0  0  0  0  0  0  0  0  0  0
    8.2408   -1.5631   21.0968 H   0  0  0  0  0  0  0  0  0  0  0  0
  1  2  1  0  0  0  0
  1  3  2  0  0  0  0
  2  6  2  0  0  0  0
  3 12  1  0  0  0  0
  4  7  2  0  0  0  0
  4 13  1  0  0  0  0
  5  8  1  0  0  0  0
  5 13  2  0  0  0  0
  6 15  1  0  0  0  0
  7 16  1  0  0  0  0
  8 16  2  0  0  0  0
  9 14  1  0  0  0  0
  9 24  2  0  0  0  0
 10 14  2  0  0  0  0
 10 26  1  0  0  0  0
 11 17  2  0  0  0  0
 11 25  1  0  0  0  0
 12 15  2  0  0  0  0
 12 17  1  0  0  0  0
 13 23  1  0  0  0  0
 14 22  1  0  0  0  0
 15 25  1  0  0  0  0
 16 28  1  0  0  0  0
 17 27  1  0  0  0  0
 18 23  1  0  0  0  0
 18 27  1  0  0  0  0
 18 29  2  0  0  0  0
 19 26  1  0  0  0  0
 20 28  1  0  0  0  0
 21 28  1  0  0  0  0
 22 23  1  1  0  0  0
 24 26  1  0  0  0  0
  1 30  1  0  0  0  0
  2 31  1  0  0  0  0
  3 32  1  0  0  0  0
  4 33  1  0  0  0  0
  5 34  1  0  0  0  0
  6 35  1  0  0  0  0
  7 36  1  0  0  0  0
  8 37  1  0  0  0  0
  9 38  1  0  0  0  0
 10 39  1  0  0  0  0
 11 40  1  0  0  0  0
 19 41  1  0  0  0  0
 19 42  1  0  0  0  0
 19 43  1  0  0  0  0
 20 44  1  0  0  0  0
 20 45  1  0  0  0  0
 20 46  1  0  0  0  0
 21 47  1  0  0  0  0
 21 48  1  0  0  0  0
 21 49  1  0  0  0  0
 22 50  1  0  0  0  0
 22 51  1  0  0  0  0
 23 52  1  0  0  0  0
 25 53  1  0  0  0  0
 27 54  1  0  0  0  0
M  END
> <clash_score>
0

> <docking_score>
-10.606045722961426

> <overlap_score>
0.9245859980583191

$$$$
BENZO_285_2
  -OEChem-08232013463D

 56 59  0     1  0  0  0  0  0999 V2000
    9.6170    5.4099   22.6808 C   0  0  0  0  0  0  0  0  0  0  0  0
    4.2750    1.7050   20.8490 C   0  0  0  0  0  0  0  0  0  0  0  0
    8.4752    5.0878   23.4143 C   0  0  0  0  0  0  0  0  0  0  0  0
   10.5182    4.4090   22.3177 C   0  0  0  0  0  0  0  0  0  0  0  0
    3.9160    2.0630   19.5520 C   0  0  0  0  0  0  0  0  0  0  0  0
    5.4210    0.9600   21.0930 C   0  0  0  0  0  0  0  0  0  0  0  0
    8.2345    3.7648   23.7849 C   0  0  0  0  0  0  0  0  0  0  0  0
   10.2775    3.0860   22.6883 C   0  0  0  0  0  0  0  0  0  0  0  0
    9.0720   -1.1280   24.8640 C   0  0  0  0  0  0  0  0  0  0  0  0
    9.7200   -2.2600   22.8630 C   0  0  0  0  0  0  0  0  0  0  0  0
    4.6890    1.6810   18.4640 C   0  0  0  0  0  0  0  0  0  0  0  0
    8.9960   -2.3380   25.5320 C   0  0  0  0  0  0  0  0  0  0  0  0
    9.6730   -3.4710   23.5300 C   0  0  0  0  0  0  0  0  0  0  0  0
    7.6390   -0.2680   18.5410 C   0  0  0  0  0  0  0  0  0  0  0  0
    6.1790    0.5730   19.9990 C   0  0  0  0  0  0  0  0  0  0  0  0
    9.1357    2.7638   23.4219 C   0  0  0  0  0  0  0  0  0  0  0  0
    9.3350   -1.0880   23.5010 C   0  0  0  0  0  0  0  0  0  0  0  0
    5.8300    0.9190   18.6970 C   0  0  0  0  0  0  0  0  0  0  0  0
    9.3070   -3.5340   24.8780 C   0  0  0  0  0  0  0  0  0  0  0  0
    7.3170   -0.1610   19.8550 C   0  0  0  0  0  0  0  0  0  0  0  0
    8.4228   -5.1089   26.6141 C   0  0  0  0  0  0  0  0  0  0  0  0
    9.0420    0.3700   21.5280 C   0  0  0  0  0  0  0  0  0  0  0  0
    8.4173   -7.5520   25.9532 C   0  0  0  0  0  0  0  0  0  0  0  0
    8.8757    1.3301   23.8233 C   0  0  0  0  0  0  0  0  0  0  0  0
    8.6900   -6.5411   27.0525 C   0  0  0  0  0  0  0  0  0  0  0  0
    9.4560    0.1560   22.8130 C   0  0  2  0  0  0  0  0  0  0  0  0
    6.7580    0.3810   17.8350 N   0  0  0  0  0  0  0  0  0  0  0  0
    9.2546   -4.7423   25.5437 N   0  0  0  0  0  0  0  0  0  0  0  0
    8.1890   -0.7180   20.8700 N   0  0  0  0  0  0  0  0  0  0  0  0
    7.5768   -4.4085   27.1603 O   0  0  0  0  0  0  0  0  0  0  0  0
    9.2690    1.4140   20.9380 O   0  0  0  0  0  0  0  0  0  0  0  0
    9.8035    6.4400   22.3912 H   0  0  0  0  0  0  0  0  0  0  0  0
    3.6453    2.0152   21.6831 H   0  0  0  0  0  0  0  0  0  0  0  0
    7.7728    5.8668   23.6961 H   0  0  0  0  0  0  0  0  0  0  0  0
   11.4067    4.6593   21.7457 H   0  0  0  0  0  0  0  0  0  0  0  0
    3.0147    2.6520   19.3913 H   0  0  0  0  0  0  0  0  0  0  0  0
    5.6991    0.6995   22.1042 H   0  0  0  0  0  0  0  0  0  0  0  0
    7.3424    3.5231   24.3565 H   0  0  0  0  0  0  0  0  0  0  0  0
   10.9853    2.3128   22.4011 H   0  0  0  0  0  0  0  0  0  0  0  0
    8.9202   -0.1986   25.4206 H   0  0  0  0  0  0  0  0  0  0  0  0
   10.0631   -2.2319   21.8252 H   0  0  0  0  0  0  0  0  0  0  0  0
    4.4051    1.9733   17.4488 H   0  0  0  0  0  0  0  0  0  0  0  0
    8.6898   -2.3534   26.5810 H   0  0  0  0  0  0  0  0  0  0  0  0
    9.9254   -4.3899   22.9914 H   0  0  0  0  0  0  0  0  0  0  0  0
    8.4825   -0.7940   18.0623 H   0  0  0  0  0  0  0  0  0  0  0  0
    7.3765   -7.4970   25.6177 H   0  0  0  0  0  0  0  0  0  0  0  0
    8.6071   -8.5677   26.3139 H   0  0  0  0  0  0  0  0  0  0  0  0
    9.0598   -7.3717   25.0851 H   0  0  0  0  0  0  0  0  0  0  0  0
    9.2390    1.1684   24.8466 H   0  0  0  0  0  0  0  0  0  0  0  0
    7.7875    1.1860   23.8742 H   0  0  0  0  0  0  0  0  0  0  0  0
    9.7367   -6.6182   27.3685 H   0  0  0  0  0  0  0  0  0  0  0  0
    8.0565   -6.7633   27.9190 H   0  0  0  0  0  0  0  0  0  0  0  0
   10.6103    0.4565   22.8881 H   0  0  0  0  0  0  0  0  0  0  0  0
    6.7266    0.4930   16.8305 H   0  0  0  0  0  0  0  0  0  0  0  0
    9.9034   -5.4689   25.2194 H   0  0  0  0  0  0  0  0  0  0  0  0
    8.2408   -1.5631   21.0968 H   0  0  0  0  0  0  0  0  0  0  0  0
  1  3  1  0  0  0  0
  1  4  2  0  0  0  0
  2  5  1  0  0  0  0
  2  6  2  0  0  0  0
  3  7  2  0  0  0  0
  4  8  1  0  0  0  0
  5 11  2  0  0  0  0
  6 15  1  0  0  0  0
  7 16  1  0  0  0  0
  8 16  2  0  0  0  0
  9 12  2  0  0  0  0
  9 17  1  0  0  0  0
 10 13  1  0  0  0  0
 10 17  2  0  0  0  0
 11 18  1  0  0  0  0
 12 19  1  0  0  0  0
 13 19  2  0  0  0  0
 14 20  2  0  0  0  0
 14 27  1  0  0  0  0
 15 18  2  0  0  0  0
 15 20  1  0  0  0  0
 16 24  1  0  0  0  0
 17 26  1  0  0  0  0
 18 27  1  0  0  0  0
 19 28  1  0  0  0  0
 20 29  1  0  0  0  0
 21 25  1  0  0  0  0
 21 28  1  0  0  0  0
 21 30  2  0  0  0  0
 22 26  1  0  0  0  0
 22 29  1  0  0  0  0
 22 31  2  0  0  0  0
 23 25  1  0  0  0  0
 24 26  1  6  0  0  0
  1 32  1  0  0  0  0
  2 33  1  0  0  0  0
  3 34  1  0  0  0  0
  4 35  1  0  0  0  0
  5 36  1  0  0  0  0
  6 37  1  0  0  0  0
  7 38  1  0  0  0  0
  8 39  1  0  0  0  0
  9 40  1  0  0  0  0
 10 41  1  0  0  0  0
 11 42  1  0  0  0  0
 12 43  1  0  0  0  0
 13 44  1  0  0  0  0
 14 45  1  0  0  0  0
 23 46  1  0  0  0  0
 23 47  1  0  0  0  0
 23 48  1  0  0  0  0
 24 49  1  0  0  0  0
 24 50  1  0  0  0  0
 25 51  1  0  0  0  0
 25 52  1  0  0  0  0
 26 53  1  0  0  0  0
 27 54  1  0  0  0  0
 28 55  1  0  0  0  0
 29 56  1  0  0  0  0
M  END
> <clash_score>
0.6426270629863619

> <docking_score>
-5.559329986572266

> <overlap_score>
0.8434731364250183

$$$$
BENZO_284_1
  -OEChem-08232013463D

 53 56  0     1  0  0  0  0  0999 V2000
    4.2750    1.7050   20.8490 C   0  0  0  0  0  0  0  0  0  0  0  0
    3.9160    2.0630   19.5520 C   0  0  0  0  0  0  0  0  0  0  0  0
    5.4210    0.9600   21.0930 C   0  0  0  0  0  0  0  0  0  0  0  0
    9.0720   -1.1280   24.8640 C   0  0  0  0  0  0  0  0  0  0  0  0
    9.7200   -2.2600   22.8630 C   0  0  0  0  0  0  0  0  0  0  0  0
    4.6890    1.6810   18.4640 C   0  0  0  0  0  0  0  0  0  0  0  0
    8.9960   -2.3380   25.5320 C   0  0  0  0  0  0  0  0  0  0  0  0
    9.6730   -3.4710   23.5300 C   0  0  0  0  0  0  0  0  0  0  0  0
   11.9789    2.9159   22.1431 C   0  0  0  0  0  0  0  0  0  0  0  0
    7.6390   -0.2680   18.5410 C   0  0  0  0  0  0  0  0  0  0  0  0
   11.9531    4.2698   22.3953 C   0  0  0  0  0  0  0  0  0  0  0  0
   10.5610    3.0079   23.9825 C   0  0  0  0  0  0  0  0  0  0  0  0
    6.1790    0.5730   19.9990 C   0  0  0  0  0  0  0  0  0  0  0  0
    9.3350   -1.0880   23.5010 C   0  0  0  0  0  0  0  0  0  0  0  0
   11.1723    2.1848   23.0624 C   0  0  0  0  0  0  0  0  0  0  0  0
    5.8300    0.9190   18.6970 C   0  0  0  0  0  0  0  0  0  0  0  0
    9.3070   -3.5340   24.8780 C   0  0  0  0  0  0  0  0  0  0  0  0
    7.3170   -0.1610   19.8550 C   0  0  0  0  0  0  0  0  0  0  0  0
    8.4228   -5.1089   26.6141 C   0  0  0  0  0  0  0  0  0  0  0  0
    9.0420    0.3700   21.5280 C   0  0  0  0  0  0  0  0  0  0  0  0
    8.4173   -7.5520   25.9532 C   0  0  0  0  0  0  0  0  0  0  0  0
   11.0089    0.6825   23.0307 C   0  0  0  0  0  0  0  0  0  0  0  0
    8.6900   -6.5411   27.0525 C   0  0  0  0  0  0  0  0  0  0  0  0
    9.4560    0.1560   22.8130 C   0  0  1  0  0  0  0  0  0  0  0  0
    6.7580    0.3810   17.8350 N   0  0  0  0  0  0  0  0  0  0  0  0
    9.2546   -4.7423   25.5437 N   0  0  0  0  0  0  0  0  0  0  0  0
    8.1890   -0.7180   20.8700 N   0  0  0  0  0  0  0  0  0  0  0  0
    7.5768   -4.4085   27.1603 O   0  0  0  0  0  0  0  0  0  0  0  0
    9.2690    1.4140   20.9380 O   0  0  0  0  0  0  0  0  0  0  0  0
   10.9597    4.6549   23.7359 S   0  0  0  0  0  0  0  0  0  0  0  0
    3.6453    2.0152   21.6831 H   0  0  0  0  0  0  0  0  0  0  0  0
    3.0147    2.6520   19.3913 H   0  0  0  0  0  0  0  0  0  0  0  0
    5.6991    0.6995   22.1042 H   0  0  0  0  0  0  0  0  0  0  0  0
    8.9202   -0.1986   25.4206 H   0  0  0  0  0  0  0  0  0  0  0  0
   10.0631   -2.2319   21.8252 H   0  0  0  0  0  0  0  0  0  0  0  0
    4.4051    1.9733   17.4488 H   0  0  0  0  0  0  0  0  0  0  0  0
    8.6898   -2.3534   26.5810 H   0  0  0  0  0  0  0  0  0  0  0  0
    9.9254   -4.3899   22.9914 H   0  0  0  0  0  0  0  0  0  0  0  0
   12.5509    2.4750   21.3365 H   0  0  0  0  0  0  0  0  0  0  0  0
    8.4825   -0.7940   18.0623 H   0  0  0  0  0  0  0  0  0  0  0  0
   12.4707    5.0513   21.8570 H   0  0  0  0  0  0  0  0  0  0  0  0
    9.8997    2.7250   24.7898 H   0  0  0  0  0  0  0  0  0  0  0  0
    7.3765   -7.4970   25.6177 H   0  0  0  0  0  0  0  0  0  0  0  0
    8.6071   -8.5677   26.3139 H   0  0  0  0  0  0  0  0  0  0  0  0
    9.0598   -7.3717   25.0851 H   0  0  0  0  0  0  0  0  0  0  0  0
   11.6011    0.2707   22.2030 H   0  0  0  0  0  0  0  0  0  0  0  0
   11.4624    0.2744   23.9446 H   0  0  0  0  0  0  0  0  0  0  0  0
    9.7367   -6.6182   27.3685 H   0  0  0  0  0  0  0  0  0  0  0  0
    8.0565   -6.7633   27.9190 H   0  0  0  0  0  0  0  0  0  0  0  0
    8.9284    0.9668   23.5149 H   0  0  0  0  0  0  0  0  0  0  0  0
    6.7266    0.4930   16.8305 H   0  0  0  0  0  0  0  0  0  0  0  0
    9.9034   -5.4689   25.2194 H   0  0  0  0  0  0  0  0  0  0  0  0
    8.2408   -1.5631   21.0968 H   0  0  0  0  0  0  0  0  0  0  0  0
  1  2  1  0  0  0  0
  1  3  2  0  0  0  0
  2  6  2  0  0  0  0
  3 13  1  0  0  0  0
  4  7  2  0  0  0  0
  4 14  1  0  0  0  0
  5  8  1  0  0  0  0
  5 14  2  0  0  0  0
  6 16  1  0  0  0  0
  7 17  1  0  0  0  0
  8 17  2  0  0  0  0
  9 11  2  0  0  0  0
  9 15  1  0  0  0  0
 10 18  2  0  0  0  0
 10 25  1  0  0  0  0
 11 30  1  0  0  0  0
 12 15  2  0  0  0  0
 12 30  1  0  0  0  0
 13 16  2  0  0  0  0
 13 18  1  0  0  0  0
 14 24  1  0  0  0  0
 15 22  1  0  0  0  0
 16 25  1  0  0  0  0
 17 26  1  0  0  0  0
 18 27  1  0  0  0  0
 19 23  1  0  0  0  0
 19 26  1  0  0  0  0
 19 28  2  0  0  0  0
 20 24  1  0  0  0  0
 20 27  1  0  0  0  0
 20 29  2  0  0  0  0
 21 23  1  0  0  0  0
 22 24  1  1  0  0  0
  1 31  1  0  0  0  0
  2 32  1  0  0  0  0
  3 33  1  0  0  0  0
  4 34  1  0  0  0  0
  5 35  1  0  0  0  0
  6 36  1  0  0  0  0
  7 37  1  0  0  0  0
  8 38  1  0  0  0  0
  9 39  1  0  0  0  0
 10 40  1  0  0  0  0
 11 41  1  0  0  0  0
 12 42  1  0  0  0  0
 21 43  1  0  0  0  0
 21 44  1  0  0  0  0
 21 45  1  0  0  0  0
 22 46  1  0  0  0  0
 22 47  1  0  0  0  0
 23 48  1  0  0  0  0
 23 49  1  0  0  0  0
 24 50  1  0  0  0  0
 25 51  1  0  0  0  0
 26 52  1  0  0  0  0
 27 53  1  0  0  0  0
M  END
> <clash_score>
0.6426270629863619

> <docking_score>
-8.065376281738281

> <overlap_score>
0.9194599986076355

$$$$
BENZO_285_1
  -OEChem-08232013463D

 56 59  0     1  0  0  0  0  0999 V2000
   11.4726    4.9577   23.1210 C   0  0  0  0  0  0  0  0  0  0  0  0
    4.2750    1.7050   20.8490 C   0  0  0  0  0  0  0  0  0  0  0  0
   12.5103    4.1537   22.6496 C   0  0  0  0  0  0  0  0  0  0  0  0
   10.2847    4.3753   23.5633 C   0  0  0  0  0  0  0  0  0  0  0  0
    3.9160    2.0630   19.5520 C   0  0  0  0  0  0  0  0  0  0  0  0
    5.4210    0.9600   21.0930 C   0  0  0  0  0  0  0  0  0  0  0  0
   12.3602    2.7672   22.6203 C   0  0  0  0  0  0  0  0  0  0  0  0
   10.1346    2.9888   23.5339 C   0  0  0  0  0  0  0  0  0  0  0  0
    9.0720   -1.1280   24.8640 C   0  0  0  0  0  0  0  0  0  0  0  0
    9.7200   -2.2600   22.8630 C   0  0  0  0  0  0  0  0  0  0  0  0
    4.6890    1.6810   18.4640 C   0  0  0  0  0  0  0  0  0  0  0  0
    8.9960   -2.3380   25.5320 C   0  0  0  0  0  0  0  0  0  0  0  0
    9.6730   -3.4710   23.5300 C   0  0  0  0  0  0  0  0  0  0  0  0
    7.6390   -0.2680   18.5410 C   0  0  0  0  0  0  0  0  0  0  0  0
    6.1790    0.5730   19.9990 C   0  0  0  0  0  0  0  0  0  0  0  0
   11.1723    2.1848   23.0624 C   0  0  0  0  0  0  0  0  0  0  0  0
    9.3350   -1.0880   23.5010 C   0  0  0  0  0  0  0  0  0  0  0  0
    5.8300    0.9190   18.6970 C   0  0  0  0  0  0  0  0  0  0  0  0
    9.3070   -3.5340   24.8780 C   0  0  0  0  0  0  0  0  0  0  0  0
    7.3170   -0.1610   19.8550 C   0  0  0  0  0  0  0  0  0  0  0  0
    8.4228   -5.1089   26.6141 C   0  0  0  0  0  0  0  0  0  0  0  0
    9.0420    0.3700   21.5280 C   0  0  0  0  0  0  0  0  0  0  0  0
    8.4173   -7.5520   25.9532 C   0  0  0  0  0  0  0  0  0  0  0  0
   11.0089    0.6825   23.0307 C   0  0  0  0  0  0  0  0  0  0  0  0
    8.6900   -6.5411   27.0525 C   0  0  0  0  0  0  0  0  0  0  0  0
    9.4560    0.1560   22.8130 C   0  0  1  0  0  0  0  0  0  0  0  0
    6.7580    0.3810   17.8350 N   0  0  0  0  0  0  0  0  0  0  0  0
    9.2546   -4.7423   25.5437 N   0  0  0  0  0  0  0  0  0  0  0  0
    8.1890   -0.7180   20.8700 N   0  0  0  0  0  0  0  0  0  0  0  0
    7.5768   -4.4085   27.1603 O   0  0  0  0  0  0  0  0  0  0  0  0
    9.2690    1.4140   20.9380 O   0  0  0  0  0  0  0  0  0  0  0  0
   11.5901    6.0371   23.1451 H   0  0  0  0  0  0  0  0  0  0  0  0
    3.6453    2.0152   21.6831 H   0  0  0  0  0  0  0  0  0  0  0  0
   13.4357    4.6069   22.3063 H   0  0  0  0  0  0  0  0  0  0  0  0
    9.4770    5.0009   23.9314 H   0  0  0  0  0  0  0  0  0  0  0  0
    3.0147    2.6520   19.3913 H   0  0  0  0  0  0  0  0  0  0  0  0
    5.6991    0.6995   22.1042 H   0  0  0  0  0  0  0  0  0  0  0  0
   13.1740    2.1486   22.2511 H   0  0  0  0  0  0  0  0  0  0  0  0
    9.2056    2.5438   23.8803 H   0  0  0  0  0  0  0  0  0  0  0  0
    8.9202   -0.1986   25.4206 H   0  0  0  0  0  0  0  0  0  0  0  0
   10.0631   -2.2319   21.8252 H   0  0  0  0  0  0  0  0  0  0  0  0
    4.4051    1.9733   17.4488 H   0  0  0  0  0  0  0  0  0  0  0  0
    8.6898   -2.3534   26.5810 H   0  0  0  0  0  0  0  0  0  0  0  0
    9.9254   -4.3899   22.9914 H   0  0  0  0  0  0  0  0  0  0  0  0
    8.4825   -0.7940   18.0623 H   0  0  0  0  0  0  0  0  0  0  0  0
    7.3765   -7.4970   25.6177 H   0  0  0  0  0  0  0  0  0  0  0  0
    8.6071   -8.5677   26.3139 H   0  0  0  0  0  0  0  0  0  0  0  0
    9.0598   -7.3717   25.0851 H   0  0  0  0  0  0  0  0  0  0  0  0
   11.6011    0.2707   22.2030 H   0  0  0  0  0  0  0  0  0  0  0  0
   11.4624    0.2744   23.9446 H   0  0  0  0  0  0  0  0  0  0  0  0
    9.7367   -6.6182   27.3685 H   0  0  0  0  0  0  0  0  0  0  0  0
    8.0565   -6.7633   27.9190 H   0  0  0  0  0  0  0  0  0  0  0  0
    8.9284    0.9668   23.5149 H   0  0  0  0  0  0  0  0  0  0  0  0
    6.7266    0.4930   16.8305 H   0  0  0  0  0  0  0  0  0  0  0  0
    9.9034   -5.4689   25.2194 H   0  0  0  0  0  0  0  0  0  0  0  0
    8.2408   -1.5631   21.0968 H   0  0  0  0  0  0  0  0  0  0  0  0
  1  3  1  0  0  0  0
  1  4  2  0  0  0  0
  2  5  1  0  0  0  0
  2  6  2  0  0  0  0
  3  7  2  0  0  0  0
  4  8  1  0  0  0  0
  5 11  2  0  0  0  0
  6 15  1  0  0  0  0
  7 16  1  0  0  0  0
  8 16  2  0  0  0  0
  9 12  2  0  0  0  0
  9 17  1  0  0  0  0
 10 13  1  0  0  0  0
 10 17  2  0  0  0  0
 11 18  1  0  0  0  0
 12 19  1  0  0  0  0
 13 19  2  0  0  0  0
 14 20  2  0  0  0  0
 14 27  1  0  0  0  0
 15 18  2  0  0  0  0
 15 20  1  0  0  0  0
 16 24  1  0  0  0  0
 17 26  1  0  0  0  0
 18 27  1  0  0  0  0
 19 28  1  0  0  0  0
 20 29  1  0  0  0  0
 21 25  1  0  0  0  0
 21 28  1  0  0  0  0
 21 30  2  0  0  0  0
 22 26  1  0  0  0  0
 22 29  1  0  0  0  0
 22 31  2  0  0  0  0
 23 25  1  0  0  0  0
 24 26  1  1  0  0  0
  1 32  1  0  0  0  0
  2 33  1  0  0  0  0
  3 34  1  0  0  0  0
  4 35  1  0  0  0  0
  5 36  1  0  0  0  0
  6 37  1  0  0  0  0
  7 38  1  0  0  0  0
  8 39  1  0  0  0  0
  9 40  1  0  0  0  0
 10 41  1  0  0  0  0
 11 42  1  0  0  0  0
 12 43  1  0  0  0  0
 13 44  1  0  0  0  0
 14 45  1  0  0  0  0
 23 46  1  0  0  0  0
 23 47  1  0  0  0  0
 23 48  1  0  0  0  0
 24 49  1  0  0  0  0
 24 50  1  0  0  0  0
 25 51  1  0  0  0  0
 25 52  1  0  0  0  0
 26 53  1  0  0  0  0
 27 54  1  0  0  0  0
 28 55  1  0  0  0  0
 29 56  1  0  0  0  0
M  END
> <clash_score>
0.6426270629863619

> <docking_score>
-9.023681640625

> <overlap_score>
0.932054340839386

$$$$
BENZO_284_2
  -OEChem-08232013463D

 53 56  0     1  0  0  0  0  0999 V2000
    4.2750    1.7050   20.8490 C   0  0  0  0  0  0  0  0  0  0  0  0
    3.9160    2.0630   19.5520 C   0  0  0  0  0  0  0  0  0  0  0  0
    5.4210    0.9600   21.0930 C   0  0  0  0  0  0  0  0  0  0  0  0
    9.0720   -1.1280   24.8640 C   0  0  0  0  0  0  0  0  0  0  0  0
    9.7200   -2.2600   22.8630 C   0  0  0  0  0  0  0  0  0  0  0  0
    4.6890    1.6810   18.4640 C   0  0  0  0  0  0  0  0  0  0  0  0
    8.9960   -2.3380   25.5320 C   0  0  0  0  0  0  0  0  0  0  0  0
    9.6730   -3.4710   23.5300 C   0  0  0  0  0  0  0  0  0  0  0  0
   10.3314    3.2065   22.7858 C   0  0  0  0  0  0  0  0  0  0  0  0
    7.6390   -0.2680   18.5410 C   0  0  0  0  0  0  0  0  0  0  0  0
   10.3108    4.5599   22.5298 C   0  0  0  0  0  0  0  0  0  0  0  0
    8.2468    3.7959   23.6280 C   0  0  0  0  0  0  0  0  0  0  0  0
    6.1790    0.5730   19.9990 C   0  0  0  0  0  0  0  0  0  0  0  0
    9.3350   -1.0880   23.5010 C   0  0  0  0  0  0  0  0  0  0  0  0
    9.1357    2.7638   23.4219 C   0  0  0  0  0  0  0  0  0  0  0  0
    5.8300    0.9190   18.6970 C   0  0  0  0  0  0  0  0  0  0  0  0
    9.3070   -3.5340   24.8780 C   0  0  0  0  0  0  0  0  0  0  0  0
    7.3170   -0.1610   19.8550 C   0  0  0  0  0  0  0  0  0  0  0  0
    8.4228   -5.1089   26.6141 C   0  0  0  0  0  0  0  0  0  0  0  0
    9.0420    0.3700   21.5280 C   0  0  0  0  0  0  0  0  0  0  0  0
    8.4173   -7.5520   25.9532 C   0  0  0  0  0  0  0  0  0  0  0  0
    8.8757    1.3301   23.8233 C   0  0  0  0  0  0  0  0  0  0  0  0
    8.6900   -6.5411   27.0525 C   0  0  0  0  0  0  0  0  0  0  0  0
    9.4560    0.1560   22.8130 C   0  0  2  0  0  0  0  0  0  0  0  0
    6.7580    0.3810   17.8350 N   0  0  0  0  0  0  0  0  0  0  0  0
    9.2546   -4.7423   25.5437 N   0  0  0  0  0  0  0  0  0  0  0  0
    8.1890   -0.7180   20.8700 N   0  0  0  0  0  0  0  0  0  0  0  0
    7.5768   -4.4085   27.1603 O   0  0  0  0  0  0  0  0  0  0  0  0
    9.2690    1.4140   20.9380 O   0  0  0  0  0  0  0  0  0  0  0  0
    8.8543    5.2911   23.0556 S   0  0  0  0  0  0  0  0  0  0  0  0
    3.6453    2.0152   21.6831 H   0  0  0  0  0  0  0  0  0  0  0  0
    3.0147    2.6520   19.3913 H   0  0  0  0  0  0  0  0  0  0  0  0
    5.6991    0.6995   22.1042 H   0  0  0  0  0  0  0  0  0  0  0  0
    8.9202   -0.1986   25.4206 H   0  0  0  0  0  0  0  0  0  0  0  0
   10.0631   -2.2319   21.8252 H   0  0  0  0  0  0  0  0  0  0  0  0
    4.4051    1.9733   17.4488 H   0  0  0  0  0  0  0  0  0  0  0  0
    8.6898   -2.3534   26.5810 H   0  0  0  0  0  0  0  0  0  0  0  0
    9.9254   -4.3899   22.9914 H   0  0  0  0  0  0  0  0  0  0  0  0
   11.1669    2.5681   22.5277 H   0  0  0  0  0  0  0  0  0  0  0  0
    8.4825   -0.7940   18.0623 H   0  0  0  0  0  0  0  0  0  0  0  0
   11.0815    5.1544   22.0600 H   0  0  0  0  0  0  0  0  0  0  0  0
    7.2694    3.7480   24.0880 H   0  0  0  0  0  0  0  0  0  0  0  0
    7.3765   -7.4970   25.6177 H   0  0  0  0  0  0  0  0  0  0  0  0
    8.6071   -8.5677   26.3139 H   0  0  0  0  0  0  0  0  0  0  0  0
    9.0598   -7.3717   25.0851 H   0  0  0  0  0  0  0  0  0  0  0  0
    9.2390    1.1684   24.8466 H   0  0  0  0  0  0  0  0  0  0  0  0
    7.7875    1.1860   23.8742 H   0  0  0  0  0  0  0  0  0  0  0  0
    9.7367   -6.6182   27.3685 H   0  0  0  0  0  0  0  0  0  0  0  0
    8.0565   -6.7633   27.9190 H   0  0  0  0  0  0  0  0  0  0  0  0
   10.6103    0.4565   22.8881 H   0  0  0  0  0  0  0  0  0  0  0  0
    6.7266    0.4930   16.8305 H   0  0  0  0  0  0  0  0  0  0  0  0
    9.9034   -5.4689   25.2194 H   0  0  0  0  0  0  0  0  0  0  0  0
    8.2408   -1.5631   21.0968 H   0  0  0  0  0  0  0  0  0  0  0  0
  1  2  1  0  0  0  0
  1  3  2  0  0  0  0
  2  6  2  0  0  0  0
  3 13  1  0  0  0  0
  4  7  2  0  0  0  0
  4 14  1  0  0  0  0
  5  8  1  0  0  0  0
  5 14  2  0  0  0  0
  6 16  1  0  0  0  0
  7 17  1  0  0  0  0
  8 17  2  0  0  0  0
  9 11  2  0  0  0  0
  9 15  1  0  0  0  0
 10 18  2  0  0  0  0
 10 25  1  0  0  0  0
 11 30  1  0  0  0  0
 12 15  2  0  0  0  0
 12 30  1  0  0  0  0
 13 16  2  0  0  0  0
 13 18  1  0  0  0  0
 14 24  1  0  0  0  0
 15 22  1  0  0  0  0
 16 25  1  0  0  0  0
 17 26  1  0  0  0  0
 18 27  1  0  0  0  0
 19 23  1  0  0  0  0
 19 26  1  0  0  0  0
 19 28  2  0  0  0  0
 20 24  1  0  0  0  0
 20 27  1  0  0  0  0
 20 29  2  0  0  0  0
 21 23  1  0  0  0  0
 22 24  1  6  0  0  0
  1 31  1  0  0  0  0
  2 32  1  0  0  0  0
  3 33  1  0  0  0  0
  4 34  1  0  0  0  0
  5 35  1  0  0  0  0
  6 36  1  0  0  0  0
  7 37  1  0  0  0  0
  8 38  1  0  0  0  0
  9 39  1  0  0  0  0
 10 40  1  0  0  0  0
 11 41  1  0  0  0  0
 12 42  1  0  0  0  0
 21 43  1  0  0  0  0
 21 44  1  0  0  0  0
 21 45  1  0  0  0  0
 22 46  1  0  0  0  0
 22 47  1  0  0  0  0
 23 48  1  0  0  0  0
 23 49  1  0  0  0  0
 24 50  1  0  0  0  0
 25 51  1  0  0  0  0
 26 52  1  0  0  0  0
 27 53  1  0  0  0  0
M  END
> <clash_score>
0.6426270629863619

> <docking_score>
-5.946450233459473

> <overlap_score>
0.8437492251396179

$$$$
BENZO_286_2
  -OEChem-08232013463D

 56 59  0     1  0  0  0  0  0999 V2000
    4.2750    1.7050   20.8490 C   0  0  0  0  0  0  0  0  0  0  0  0
    3.9160    2.0630   19.5520 C   0  0  0  0  0  0  0  0  0  0  0  0
   10.5170    4.4086   22.3156 C   0  0  0  0  0  0  0  0  0  0  0  0
    5.4210    0.9600   21.0930 C   0  0  0  0  0  0  0  0  0  0  0  0
   10.2770    3.0858   22.6873 C   0  0  0  0  0  0  0  0  0  0  0  0
    9.0720   -1.1280   24.8640 C   0  0  0  0  0  0  0  0  0  0  0  0
    9.7200   -2.2600   22.8630 C   0  0  0  0  0  0  0  0  0  0  0  0
    4.6890    1.6810   18.4640 C   0  0  0  0  0  0  0  0  0  0  0  0
    8.9960   -2.3380   25.5320 C   0  0  0  0  0  0  0  0  0  0  0  0
    9.6730   -3.4710   23.5300 C   0  0  0  0  0  0  0  0  0  0  0  0
    9.6157    5.4095   22.6784 C   0  0  0  0  0  0  0  0  0  0  0  0
    8.2344    3.7647   23.7847 C   0  0  0  0  0  0  0  0  0  0  0  0
    7.6390   -0.2680   18.5410 C   0  0  0  0  0  0  0  0  0  0  0  0
    6.1790    0.5730   19.9990 C   0  0  0  0  0  0  0  0  0  0  0  0
    9.3350   -1.0880   23.5010 C   0  0  0  0  0  0  0  0  0  0  0  0
    9.1357    2.7638   23.4219 C   0  0  0  0  0  0  0  0  0  0  0  0
    5.8300    0.9190   18.6970 C   0  0  0  0  0  0  0  0  0  0  0  0
    9.3070   -3.5340   24.8780 C   0  0  0  0  0  0  0  0  0  0  0  0
    7.3170   -0.1610   19.8550 C   0  0  0  0  0  0  0  0  0  0  0  0
    8.4744    5.0875   23.4129 C   0  0  0  0  0  0  0  0  0  0  0  0
    8.4228   -5.1089   26.6141 C   0  0  0  0  0  0  0  0  0  0  0  0
    9.0420    0.3700   21.5280 C   0  0  0  0  0  0  0  0  0  0  0  0
    8.4173   -7.5520   25.9532 C   0  0  0  0  0  0  0  0  0  0  0  0
    8.8757    1.3301   23.8233 C   0  0  0  0  0  0  0  0  0  0  0  0
    8.6900   -6.5411   27.0525 C   0  0  0  0  0  0  0  0  0  0  0  0
    9.4560    0.1560   22.8130 C   0  0  2  0  0  0  0  0  0  0  0  0
    6.7580    0.3810   17.8350 N   0  0  0  0  0  0  0  0  0  0  0  0
    9.2546   -4.7423   25.5437 N   0  0  0  0  0  0  0  0  0  0  0  0
    8.1890   -0.7180   20.8700 N   0  0  0  0  0  0  0  0  0  0  0  0
    7.5768   -4.4085   27.1603 O   0  0  0  0  0  0  0  0  0  0  0  0
    9.2690    1.4140   20.9380 O   0  0  0  0  0  0  0  0  0  0  0  0
    7.3623    6.3227   23.8593 Cl  0  0  0  0  0  0  0  0  0  0  0  0
    3.6453    2.0152   21.6831 H   0  0  0  0  0  0  0  0  0  0  0  0
    3.0147    2.6520   19.3913 H   0  0  0  0  0  0  0  0  0  0  0  0
   11.4057    4.6588   21.7435 H   0  0  0  0  0  0  0  0  0  0  0  0
    5.6991    0.6995   22.1042 H   0  0  0  0  0  0  0  0  0  0  0  0
   10.9846    2.3124   22.4002 H   0  0  0  0  0  0  0  0  0  0  0  0
    8.9202   -0.1986   25.4206 H   0  0  0  0  0  0  0  0  0  0  0  0
   10.0631   -2.2319   21.8252 H   0  0  0  0  0  0  0  0  0  0  0  0
    4.4051    1.9733   17.4488 H   0  0  0  0  0  0  0  0  0  0  0  0
    8.6898   -2.3534   26.5810 H   0  0  0  0  0  0  0  0  0  0  0  0
    9.9254   -4.3899   22.9914 H   0  0  0  0  0  0  0  0  0  0  0  0
    9.8155    6.4361   22.3815 H   0  0  0  0  0  0  0  0  0  0  0  0
    7.3463    3.5086   24.3578 H   0  0  0  0  0  0  0  0  0  0  0  0
    8.4825   -0.7940   18.0623 H   0  0  0  0  0  0  0  0  0  0  0  0
    7.3765   -7.4970   25.6177 H   0  0  0  0  0  0  0  0  0  0  0  0
    8.6071   -8.5677   26.3139 H   0  0  0  0  0  0  0  0  0  0  0  0
    9.0598   -7.3717   25.0851 H   0  0  0  0  0  0  0  0  0  0  0  0
    9.2390    1.1684   24.8466 H   0  0  0  0  0  0  0  0  0  0  0  0
    7.7875    1.1860   23.8742 H   0  0  0  0  0  0  0  0  0  0  0  0
    9.7367   -6.6182   27.3685 H   0  0  0  0  0  0  0  0  0  0  0  0
    8.0565   -6.7633   27.9190 H   0  0  0  0  0  0  0  0  0  0  0  0
   10.6103    0.4565   22.8881 H   0  0  0  0  0  0  0  0  0  0  0  0
    6.7266    0.4930   16.8305 H   0  0  0  0  0  0  0  0  0  0  0  0
    9.9034   -5.4689   25.2194 H   0  0  0  0  0  0  0  0  0  0  0  0
    8.2408   -1.5631   21.0968 H   0  0  0  0  0  0  0  0  0  0  0  0
  1  2  1  0  0  0  0
  1  4  2  0  0  0  0
  2  8  2  0  0  0  0
  3  5  2  0  0  0  0
  3 11  1  0  0  0  0
  4 14  1  0  0  0  0
  5 16  1  0  0  0  0
  6  9  2  0  0  0  0
  6 15  1  0  0  0  0
  7 10  1  0  0  0  0
  7 15  2  0  0  0  0
  8 17  1  0  0  0  0
  9 18  1  0  0  0  0
 10 18  2  0  0  0  0
 11 20  2  0  0  0  0
 12 16  2  0  0  0  0
 12 20  1  0  0  0  0
 13 19  2  0  0  0  0
 13 27  1  0  0  0  0
 14 17  2  0  0  0  0
 14 19  1  0  0  0  0
 15 26  1  0  0  0  0
 16 24  1  0  0  0  0
 17 27  1  0  0  0  0
 18 28  1  0  0  0  0
 19 29  1  0  0  0  0
 20 32  1  0  0  0  0
 21 25  1  0  0  0  0
 21 28  1  0  0  0  0
 21 30  2  0  0  0  0
 22 26  1  0  0  0  0
 22 29  1  0  0  0  0
 22 31  2  0  0  0  0
 23 25  1  0  0  0  0
 24 26  1  6  0  0  0
  1 33  1  0  0  0  0
  2 34  1  0  0  0  0
  3 35  1  0  0  0  0
  4 36  1  0  0  0  0
  5 37  1  0  0  0  0
  6 38  1  0  0  0  0
  7 39  1  0  0  0  0
  8 40  1  0  0  0  0
  9 41  1  0  0  0  0
 10 42  1  0  0  0  0
 11 43  1  0  0  0  0
 12 44  1  0  0  0  0
 13 45  1  0  0  0  0
 23 46  1  0  0  0  0
 23 47  1  0  0  0  0
 23 48  1  0  0  0  0
 24 49  1  0  0  0  0
 24 50  1  0  0  0  0
 25 51  1  0  0  0  0
 25 52  1  0  0  0  0
 26 53  1  0  0  0  0
 27 54  1  0  0  0  0
 28 55  1  0  0  0  0
 29 56  1  0  0  0  0
M  END
> <clash_score>
0.6426270629863619

> <docking_score>
-5.461511611938477

> <overlap_score>
0.8423012495040894

$$$$
BENZO_289_1
  -OEChem-08232013463D

 61 65  0     1  0  0  0  0  0999 V2000
    9.5866    5.4188   22.6537 C   0  0  0  0  0  0  0  0  0  0  0  0
    4.2750    1.7050   20.8490 C   0  0  0  0  0  0  0  0  0  0  0  0
    8.4493    5.0927   23.3925 C   0  0  0  0  0  0  0  0  0  0  0  0
   10.4927    4.4220   22.2918 C   0  0  0  0  0  0  0  0  0  0  0  0
    3.9160    2.0630   19.5520 C   0  0  0  0  0  0  0  0  0  0  0  0
    5.4210    0.9600   21.0930 C   0  0  0  0  0  0  0  0  0  0  0  0
    8.2182    3.7698   23.7695 C   0  0  0  0  0  0  0  0  0  0  0  0
   10.2616    3.0991   22.6687 C   0  0  0  0  0  0  0  0  0  0  0  0
    9.0720   -1.1280   24.8640 C   0  0  0  0  0  0  0  0  0  0  0  0
    9.7200   -2.2600   22.8630 C   0  0  0  0  0  0  0  0  0  0  0  0
    4.6890    1.6810   18.4640 C   0  0  0  0  0  0  0  0  0  0  0  0
    8.9960   -2.3380   25.5320 C   0  0  0  0  0  0  0  0  0  0  0  0
    9.6730   -3.4710   23.5300 C   0  0  0  0  0  0  0  0  0  0  0  0
    7.6390   -0.2680   18.5410 C   0  0  0  0  0  0  0  0  0  0  0  0
    6.1790    0.5730   19.9990 C   0  0  0  0  0  0  0  0  0  0  0  0
    9.1243    2.7729   23.4075 C   0  0  0  0  0  0  0  0  0  0  0  0
    9.3350   -1.0880   23.5010 C   0  0  0  0  0  0  0  0  0  0  0  0
    5.8300    0.9190   18.6970 C   0  0  0  0  0  0  0  0  0  0  0  0
    9.3070   -3.5340   24.8780 C   0  0  0  0  0  0  0  0  0  0  0  0
    7.3170   -0.1610   19.8550 C   0  0  0  0  0  0  0  0  0  0  0  0
    9.0420    0.3700   21.5280 C   0  0  0  0  0  0  0  0  0  0  0  0
    7.2237   -6.6201   26.3005 C   0  0  0  0  0  0  0  0  0  0  0  0
    7.4295   -5.3104   27.0650 C   0  0  0  0  0  0  0  0  0  0  0  0
    7.7218   -6.5099   24.8576 C   0  0  0  0  0  0  0  0  0  0  0  0
    8.8783   -4.8360   26.9547 C   0  0  0  0  0  0  0  0  0  0  0  0
    9.1653   -6.0007   24.7991 C   0  0  0  0  0  0  0  0  0  0  0  0
    8.8746    1.3393   23.8158 C   0  0  0  0  0  0  0  0  0  0  0  0
    9.4560    0.1560   22.8130 C   0  0  1  0  0  0  0  0  0  0  0  0
    6.7580    0.3810   17.8350 N   0  0  0  0  0  0  0  0  0  0  0  0
    9.2563   -4.7385   25.5420 N   0  0  0  0  0  0  0  0  0  0  0  0
    8.1890   -0.7180   20.8700 N   0  0  0  0  0  0  0  0  0  0  0  0
    9.2690    1.4140   20.9380 O   0  0  0  0  0  0  0  0  0  0  0  0
    9.7657    6.4488   22.3592 H   0  0  0  0  0  0  0  0  0  0  0  0
    3.6453    2.0152   21.6831 H   0  0  0  0  0  0  0  0  0  0  0  0
    7.7431    5.8686   23.6735 H   0  0  0  0  0  0  0  0  0  0  0  0
   11.3777    4.6754   21.7156 H   0  0  0  0  0  0  0  0  0  0  0  0
    3.0147    2.6520   19.3913 H   0  0  0  0  0  0  0  0  0  0  0  0
    5.6991    0.6995   22.1042 H   0  0  0  0  0  0  0  0  0  0  0  0
    7.3295    3.5250   24.3452 H   0  0  0  0  0  0  0  0  0  0  0  0
   10.9731    2.3291   22.3823 H   0  0  0  0  0  0  0  0  0  0  0  0
    8.9214   -0.1986   25.4206 H   0  0  0  0  0  0  0  0  0  0  0  0
   10.0622   -2.2326   21.8251 H   0  0  0  0  0  0  0  0  0  0  0  0
    4.4051    1.9733   17.4488 H   0  0  0  0  0  0  0  0  0  0  0  0
    8.6882   -2.3542   26.5803 H   0  0  0  0  0  0  0  0  0  0  0  0
    9.9258   -4.3896   22.9914 H   0  0  0  0  0  0  0  0  0  0  0  0
    8.4825   -0.7940   18.0623 H   0  0  0  0  0  0  0  0  0  0  0  0
    7.7561   -7.4351   26.8143 H   0  0  0  0  0  0  0  0  0  0  0  0
    6.1574   -6.8886   26.3051 H   0  0  0  0  0  0  0  0  0  0  0  0
    6.7603   -4.5438   26.6651 H   0  0  0  0  0  0  0  0  0  0  0  0
    7.1686   -5.4557   28.1153 H   0  0  0  0  0  0  0  0  0  0  0  0
    7.6596   -7.4899   24.3731 H   0  0  0  0  0  0  0  0  0  0  0  0
    7.0707   -5.8316   24.2940 H   0  0  0  0  0  0  0  0  0  0  0  0
    8.9682   -3.8625   27.4435 H   0  0  0  0  0  0  0  0  0  0  0  0
    9.5389   -5.5394   27.4694 H   0  0  0  0  0  0  0  0  0  0  0  0
    9.8375   -6.7414   25.2339 H   0  0  0  0  0  0  0  0  0  0  0  0
    9.4414   -5.8513   23.7549 H   0  0  0  0  0  0  0  0  0  0  0  0
    9.2322    1.1871   24.8426 H   0  0  0  0  0  0  0  0  0  0  0  0
    7.7874    1.1856   23.8601 H   0  0  0  0  0  0  0  0  0  0  0  0
   10.6111    0.4645   22.8838 H   0  0  0  0  0  0  0  0  0  0  0  0
    6.7266    0.4930   16.8305 H   0  0  0  0  0  0  0  0  0  0  0  0
    8.2585   -1.5522   21.1129 H   0  0  0  0  0  0  0  0  0  0  0  0
  1  3  1  0  0  0  0
  1  4  2  0  0  0  0
  2  5  1  0  0  0  0
  2  6  2  0  0  0  0
  3  7  2  0  0  0  0
  4  8  1  0  0  0  0
  5 11  2  0  0  0  0
  6 15  1  0  0  0  0
  7 16  1  0  0  0  0
  8 16  2  0  0  0  0
  9 12  2  0  0  0  0
  9 17  1  0  0  0  0
 10 13  1  0  0  0  0
 10 17  2  0  0  0  0
 11 18  1  0  0  0  0
 12 19  1  0  0  0  0
 13 19  2  0  0  0  0
 14 20  2  0  0  0  0
 14 29  1  0  0  0  0
 15 18  2  0  0  0  0
 15 20  1  0  0  0  0
 16 27  1  0  0  0  0
 17 28  1  0  0  0  0
 18 29  1  0  0  0  0
 19 30  1  0  0  0  0
 20 31  1  0  0  0  0
 21 28  1  1  0  0  0
 21 31  1  0  0  0  0
 21 32  2  0  0  0  0
 22 23  1  0  0  0  0
 22 24  1  0  0  0  0
 23 25  1  0  0  0  0
 24 26  1  0  0  0  0
 25 30  1  0  0  0  0
 26 30  1  0  0  0  0
 27 28  1  0  0  0  0
  1 33  1  0  0  0  0
  2 34  1  0  0  0  0
  3 35  1  0  0  0  0
  4 36  1  0  0  0  0
  5 37  1  0  0  0  0
  6 38  1  0  0  0  0
  7 39  1  0  0  0  0
  8 40  1  0  0  0  0
  9 41  1  0  0  0  0
 10 42  1  0  0  0  0
 11 43  1  0  0  0  0
 12 44  1  0  0  0  0
 13 45  1  0  0  0  0
 14 46  1  0  0  0  0
 22 47  1  0  0  0  0
 22 48  1  0  0  0  0
 23 49  1  0  0  0  0
 23 50  1  0  0  0  0
 24 51  1  0  0  0  0
 24 52  1  0  0  0  0
 25 53  1  0  0  0  0
 25 54  1  0  0  0  0
 26 55  1  0  0  0  0
 26 56  1  0  0  0  0
 27 57  1  0  0  0  0
 27 58  1  0  0  0  0
 28 59  1  0  0  0  0
 29 60  1  0  0  0  0
 31 61  1  0  0  0  0
M  END
> <clash_score>
0

> <docking_score>
-6.104809761047363

> <overlap_score>
0.8601543307304382

$$$$
BENZO_286_1
  -OEChem-08232013463D

 56 59  0     1  0  0  0  0  0999 V2000
    4.2750    1.7050   20.8490 C   0  0  0  0  0  0  0  0  0  0  0  0
    3.9160    2.0630   19.5520 C   0  0  0  0  0  0  0  0  0  0  0  0
   10.2856    4.3750   23.5656 C   0  0  0  0  0  0  0  0  0  0  0  0
    5.4210    0.9600   21.0930 C   0  0  0  0  0  0  0  0  0  0  0  0
   10.1350    2.9887   23.5349 C   0  0  0  0  0  0  0  0  0  0  0  0
    9.0720   -1.1280   24.8640 C   0  0  0  0  0  0  0  0  0  0  0  0
    9.7200   -2.2600   22.8630 C   0  0  0  0  0  0  0  0  0  0  0  0
    4.6890    1.6810   18.4640 C   0  0  0  0  0  0  0  0  0  0  0  0
    8.9960   -2.3380   25.5320 C   0  0  0  0  0  0  0  0  0  0  0  0
    9.6730   -3.4710   23.5300 C   0  0  0  0  0  0  0  0  0  0  0  0
   11.4735    4.9575   23.1236 C   0  0  0  0  0  0  0  0  0  0  0  0
   12.3603    2.7672   22.6205 C   0  0  0  0  0  0  0  0  0  0  0  0
    7.6390   -0.2680   18.5410 C   0  0  0  0  0  0  0  0  0  0  0  0
    6.1790    0.5730   19.9990 C   0  0  0  0  0  0  0  0  0  0  0  0
    9.3350   -1.0880   23.5010 C   0  0  0  0  0  0  0  0  0  0  0  0
   11.1723    2.1848   23.0624 C   0  0  0  0  0  0  0  0  0  0  0  0
    5.8300    0.9190   18.6970 C   0  0  0  0  0  0  0  0  0  0  0  0
    9.3070   -3.5340   24.8780 C   0  0  0  0  0  0  0  0  0  0  0  0
    7.3170   -0.1610   19.8550 C   0  0  0  0  0  0  0  0  0  0  0  0
   12.5108    4.1536   22.6511 C   0  0  0  0  0  0  0  0  0  0  0  0
    8.4228   -5.1089   26.6141 C   0  0  0  0  0  0  0  0  0  0  0  0
    9.0420    0.3700   21.5280 C   0  0  0  0  0  0  0  0  0  0  0  0
    8.4173   -7.5520   25.9532 C   0  0  0  0  0  0  0  0  0  0  0  0
   11.0089    0.6825   23.0307 C   0  0  0  0  0  0  0  0  0  0  0  0
    8.6900   -6.5411   27.0525 C   0  0  0  0  0  0  0  0  0  0  0  0
    9.4560    0.1560   22.8130 C   0  0  1  0  0  0  0  0  0  0  0  0
    6.7580    0.3810   17.8350 N   0  0  0  0  0  0  0  0  0  0  0  0
    9.2546   -4.7423   25.5437 N   0  0  0  0  0  0  0  0  0  0  0  0
    8.1890   -0.7180   20.8700 N   0  0  0  0  0  0  0  0  0  0  0  0
    7.5768   -4.4085   27.1603 O   0  0  0  0  0  0  0  0  0  0  0  0
    9.2690    1.4140   20.9380 O   0  0  0  0  0  0  0  0  0  0  0  0
   13.9766    4.8727   22.1070 Cl  0  0  0  0  0  0  0  0  0  0  0  0
    3.6453    2.0152   21.6831 H   0  0  0  0  0  0  0  0  0  0  0  0
    3.0147    2.6520   19.3913 H   0  0  0  0  0  0  0  0  0  0  0  0
    9.4776    5.0007   23.9337 H   0  0  0  0  0  0  0  0  0  0  0  0
    5.6991    0.6995   22.1042 H   0  0  0  0  0  0  0  0  0  0  0  0
    9.2060    2.5434   23.8814 H   0  0  0  0  0  0  0  0  0  0  0  0
    8.9202   -0.1986   25.4206 H   0  0  0  0  0  0  0  0  0  0  0  0
   10.0631   -2.2319   21.8252 H   0  0  0  0  0  0  0  0  0  0  0  0
    4.4051    1.9733   17.4488 H   0  0  0  0  0  0  0  0  0  0  0  0
    8.6898   -2.3534   26.5810 H   0  0  0  0  0  0  0  0  0  0  0  0
    9.9254   -4.3899   22.9914 H   0  0  0  0  0  0  0  0  0  0  0  0
   11.5769    6.0394   23.1535 H   0  0  0  0  0  0  0  0  0  0  0  0
   13.1659    2.1361   22.2525 H   0  0  0  0  0  0  0  0  0  0  0  0
    8.4825   -0.7940   18.0623 H   0  0  0  0  0  0  0  0  0  0  0  0
    7.3765   -7.4970   25.6177 H   0  0  0  0  0  0  0  0  0  0  0  0
    8.6071   -8.5677   26.3139 H   0  0  0  0  0  0  0  0  0  0  0  0
    9.0598   -7.3717   25.0851 H   0  0  0  0  0  0  0  0  0  0  0  0
   11.6011    0.2707   22.2030 H   0  0  0  0  0  0  0  0  0  0  0  0
   11.4624    0.2744   23.9446 H   0  0  0  0  0  0  0  0  0  0  0  0
    9.7367   -6.6182   27.3685 H   0  0  0  0  0  0  0  0  0  0  0  0
    8.0565   -6.7633   27.9190 H   0  0  0  0  0  0  0  0  0  0  0  0
    8.9284    0.9668   23.5149 H   0  0  0  0  0  0  0  0  0  0  0  0
    6.7266    0.4930   16.8305 H   0  0  0  0  0  0  0  0  0  0  0  0
    9.9034   -5.4689   25.2194 H   0  0  0  0  0  0  0  0  0  0  0  0
    8.2408   -1.5631   21.0968 H   0  0  0  0  0  0  0  0  0  0  0  0
  1  2  1  0  0  0  0
  1  4  2  0  0  0  0
  2  8  2  0  0  0  0
  3  5  2  0  0  0  0
  3 11  1  0  0  0  0
  4 14  1  0  0  0  0
  5 16  1  0  0  0  0
  6  9  2  0  0  0  0
  6 15  1  0  0  0  0
  7 10  1  0  0  0  0
  7 15  2  0  0  0  0
  8 17  1  0  0  0  0
  9 18  1  0  0  0  0
 10 18  2  0  0  0  0
 11 20  2  0  0  0  0
 12 16  2  0  0  0  0
 12 20  1  0  0  0  0
 13 19  2  0  0  0  0
 13 27  1  0  0  0  0
 14 17  2  0  0  0  0
 14 19  1  0  0  0  0
 15 26  1  0  0  0  0
 16 24  1  0  0  0  0
 17 27  1  0  0  0  0
 18 28  1  0  0  0  0
 19 29  1  0  0  0  0
 20 32  1  0  0  0  0
 21 25  1  0  0  0  0
 21 28  1  0  0  0  0
 21 30  2  0  0  0  0
 22 26  1  0  0  0  0
 22 29  1  0  0  0  0
 22 31  2  0  0  0  0
 23 25  1  0  0  0  0
 24 26  1  1  0  0  0
  1 33  1  0  0  0  0
  2 34  1  0  0  0  0
  3 35  1  0  0  0  0
  4 36  1  0  0  0  0
  5 37  1  0  0  0  0
  6 38  1  0  0  0  0
  7 39  1  0  0  0  0
  8 40  1  0  0  0  0
  9 41  1  0  0  0  0
 10 42  1  0  0  0  0
 11 43  1  0  0  0  0
 12 44  1  0  0  0  0
 13 45  1  0  0  0  0
 23 46  1  0  0  0  0
 23 47  1  0  0  0  0
 23 48  1  0  0  0  0
 24 49  1  0  0  0  0
 24 50  1  0  0  0  0
 25 51  1  0  0  0  0
 25 52  1  0  0  0  0
 26 53  1  0  0  0  0
 27 54  1  0  0  0  0
 28 55  1  0  0  0  0
 29 56  1  0  0  0  0
M  END
> <clash_score>
0.6426270629863619

> <docking_score>
-9.467140197753906

> <overlap_score>
0.9330191016197205

$$$$
BENZO_288_1
  -OEChem-08232013463D

 58 62  0     1  0  0  0  0  0999 V2000
    4.2750    1.7050   20.8490 C   0  0  0  0  0  0  0  0  0  0  0  0
    3.9160    2.0630   19.5520 C   0  0  0  0  0  0  0  0  0  0  0  0
    5.4210    0.9600   21.0930 C   0  0  0  0  0  0  0  0  0  0  0  0
    9.0720   -1.1280   24.8640 C   0  0  0  0  0  0  0  0  0  0  0  0
    9.7200   -2.2600   22.8630 C   0  0  0  0  0  0  0  0  0  0  0  0
    4.6890    1.6810   18.4640 C   0  0  0  0  0  0  0  0  0  0  0  0
    8.9960   -2.3380   25.5320 C   0  0  0  0  0  0  0  0  0  0  0  0
    9.6730   -3.4710   23.5300 C   0  0  0  0  0  0  0  0  0  0  0  0
   10.3203    3.2228   22.7771 C   0  0  0  0  0  0  0  0  0  0  0  0
    7.6390   -0.2680   18.5410 C   0  0  0  0  0  0  0  0  0  0  0  0
   10.2891    4.5743   22.5128 C   0  0  0  0  0  0  0  0  0  0  0  0
    8.2246    3.7981   23.6013 C   0  0  0  0  0  0  0  0  0  0  0  0
    6.1790    0.5730   19.9990 C   0  0  0  0  0  0  0  0  0  0  0  0
    9.3350   -1.0880   23.5010 C   0  0  0  0  0  0  0  0  0  0  0  0
    9.1243    2.7729   23.4075 C   0  0  0  0  0  0  0  0  0  0  0  0
    5.8300    0.9190   18.6970 C   0  0  0  0  0  0  0  0  0  0  0  0
    9.3070   -3.5340   24.8780 C   0  0  0  0  0  0  0  0  0  0  0  0
    7.3170   -0.1610   19.8550 C   0  0  0  0  0  0  0  0  0  0  0  0
    9.0420    0.3700   21.5280 C   0  0  0  0  0  0  0  0  0  0  0  0
    7.2237   -6.6201   26.3005 C   0  0  0  0  0  0  0  0  0  0  0  0
    7.4295   -5.3104   27.0650 C   0  0  0  0  0  0  0  0  0  0  0  0
    7.7218   -6.5099   24.8576 C   0  0  0  0  0  0  0  0  0  0  0  0
    8.8783   -4.8360   26.9547 C   0  0  0  0  0  0  0  0  0  0  0  0
    9.1653   -6.0007   24.7991 C   0  0  0  0  0  0  0  0  0  0  0  0
    8.8746    1.3393   23.8158 C   0  0  0  0  0  0  0  0  0  0  0  0
    9.4560    0.1560   22.8130 C   0  0  1  0  0  0  0  0  0  0  0  0
    6.7580    0.3810   17.8350 N   0  0  0  0  0  0  0  0  0  0  0  0
    9.2563   -4.7385   25.5420 N   0  0  0  0  0  0  0  0  0  0  0  0
    8.1890   -0.7180   20.8700 N   0  0  0  0  0  0  0  0  0  0  0  0
    9.2690    1.4140   20.9380 O   0  0  0  0  0  0  0  0  0  0  0  0
    8.8224    5.2953   23.0240 S   0  0  0  0  0  0  0  0  0  0  0  0
    3.6453    2.0152   21.6831 H   0  0  0  0  0  0  0  0  0  0  0  0
    3.0147    2.6520   19.3913 H   0  0  0  0  0  0  0  0  0  0  0  0
    5.6991    0.6995   22.1042 H   0  0  0  0  0  0  0  0  0  0  0  0
    8.9214   -0.1986   25.4206 H   0  0  0  0  0  0  0  0  0  0  0  0
   10.0622   -2.2326   21.8251 H   0  0  0  0  0  0  0  0  0  0  0  0
    4.4051    1.9733   17.4488 H   0  0  0  0  0  0  0  0  0  0  0  0
    8.6882   -2.3542   26.5803 H   0  0  0  0  0  0  0  0  0  0  0  0
    9.9258   -4.3896   22.9914 H   0  0  0  0  0  0  0  0  0  0  0  0
   11.1634    2.5905   22.5286 H   0  0  0  0  0  0  0  0  0  0  0  0
    8.4825   -0.7940   18.0623 H   0  0  0  0  0  0  0  0  0  0  0  0
   11.0576    5.1730   22.0446 H   0  0  0  0  0  0  0  0  0  0  0  0
    7.2445    3.7440   24.0547 H   0  0  0  0  0  0  0  0  0  0  0  0
    7.7561   -7.4351   26.8143 H   0  0  0  0  0  0  0  0  0  0  0  0
    6.1574   -6.8886   26.3051 H   0  0  0  0  0  0  0  0  0  0  0  0
    6.7603   -4.5438   26.6651 H   0  0  0  0  0  0  0  0  0  0  0  0
    7.1686   -5.4557   28.1153 H   0  0  0  0  0  0  0  0  0  0  0  0
    7.6596   -7.4899   24.3731 H   0  0  0  0  0  0  0  0  0  0  0  0
    7.0707   -5.8316   24.2940 H   0  0  0  0  0  0  0  0  0  0  0  0
    8.9682   -3.8625   27.4435 H   0  0  0  0  0  0  0  0  0  0  0  0
    9.5389   -5.5394   27.4694 H   0  0  0  0  0  0  0  0  0  0  0  0
    9.8375   -6.7414   25.2339 H   0  0  0  0  0  0  0  0  0  0  0  0
    9.4414   -5.8513   23.7549 H   0  0  0  0  0  0  0  0  0  0  0  0
    9.2322    1.1871   24.8426 H   0  0  0  0  0  0  0  0  0  0  0  0
    7.7874    1.1856   23.8601 H   0  0  0  0  0  0  0  0  0  0  0  0
   10.6111    0.4645   22.8838 H   0  0  0  0  0  0  0  0  0  0  0  0
    6.7266    0.4930   16.8305 H   0  0  0  0  0  0  0  0  0  0  0  0
    8.2585   -1.5522   21.1129 H   0  0  0  0  0  0  0  0  0  0  0  0
  1  2  1  0  0  0  0
  1  3  2  0  0  0  0
  2  6  2  0  0  0  0
  3 13  1  0  0  0  0
  4  7  2  0  0  0  0
  4 14  1  0  0  0  0
  5  8  1  0  0  0  0
  5 14  2  0  0  0  0
  6 16  1  0  0  0  0
  7 17  1  0  0  0  0
  8 17  2  0  0  0  0
  9 11  2  0  0  0  0
  9 15  1  0  0  0  0
 10 18  2  0  0  0  0
 10 27  1  0  0  0  0
 11 31  1  0  0  0  0
 12 15  2  0  0  0  0
 12 31  1  0  0  0  0
 13 16  2  0  0  0  0
 13 18  1  0  0  0  0
 14 26  1  0  0  0  0
 15 25  1  0  0  0  0
 16 27  1  0  0  0  0
 17 28  1  0  0  0  0
 18 29  1  0  0  0  0
 19 26  1  1  0  0  0
 19 29  1  0  0  0  0
 19 30  2  0  0  0  0
 20 21  1  0  0  0  0
 20 22  1  0  0  0  0
 21 23  1  0  0  0  0
 22 24  1  0  0  0  0
 23 28  1  0  0  0  0
 24 28  1  0  0  0  0
 25 26  1  0  0  0  0
  1 32  1  0  0  0  0
  2 33  1  0  0  0  0
  3 34  1  0  0  0  0
  4 35  1  0  0  0  0
  5 36  1  0  0  0  0
  6 37  1  0  0  0  0
  7 38  1  0  0  0  0
  8 39  1  0  0  0  0
  9 40  1  0  0  0  0
 10 41  1  0  0  0  0
 11 42  1  0  0  0  0
 12 43  1  0  0  0  0
 20 44  1  0  0  0  0
 20 45  1  0  0  0  0
 21 46  1  0  0  0  0
 21 47  1  0  0  0  0
 22 48  1  0  0  0  0
 22 49  1  0  0  0  0
 23 50  1  0  0  0  0
 23 51  1  0  0  0  0
 24 52  1  0  0  0  0
 24 53  1  0  0  0  0
 25 54  1  0  0  0  0
 25 55  1  0  0  0  0
 26 56  1  0  0  0  0
 27 57  1  0  0  0  0
 29 58  1  0  0  0  0
M  END
> <clash_score>
0

> <docking_score>
-6.495887756347656

> <overlap_score>
0.8605926632881165

$$$$
BENZO_289_2
  -OEChem-08232013463D

 61 65  0     1  0  0  0  0  0999 V2000
   11.4754    4.9665   23.0809 C   0  0  0  0  0  0  0  0  0  0  0  0
    4.2750    1.7050   20.8490 C   0  0  0  0  0  0  0  0  0  0  0  0
   12.5125    4.1581   22.6155 C   0  0  0  0  0  0  0  0  0  0  0  0
   10.2875    4.3882   23.5284 C   0  0  0  0  0  0  0  0  0  0  0  0
    3.9160    2.0630   19.5520 C   0  0  0  0  0  0  0  0  0  0  0  0
    5.4210    0.9600   21.0930 C   0  0  0  0  0  0  0  0  0  0  0  0
   12.3617    2.7716   22.5975 C   0  0  0  0  0  0  0  0  0  0  0  0
   10.1367    3.0017   23.5105 C   0  0  0  0  0  0  0  0  0  0  0  0
    9.0720   -1.1280   24.8640 C   0  0  0  0  0  0  0  0  0  0  0  0
    9.7200   -2.2600   22.8630 C   0  0  0  0  0  0  0  0  0  0  0  0
    4.6890    1.6810   18.4640 C   0  0  0  0  0  0  0  0  0  0  0  0
    8.9960   -2.3380   25.5320 C   0  0  0  0  0  0  0  0  0  0  0  0
    9.6730   -3.4710   23.5300 C   0  0  0  0  0  0  0  0  0  0  0  0
    7.6390   -0.2680   18.5410 C   0  0  0  0  0  0  0  0  0  0  0  0
    6.1790    0.5730   19.9990 C   0  0  0  0  0  0  0  0  0  0  0  0
   11.1738    2.1933   23.0450 C   0  0  0  0  0  0  0  0  0  0  0  0
    9.3350   -1.0880   23.5010 C   0  0  0  0  0  0  0  0  0  0  0  0
    5.8300    0.9190   18.6970 C   0  0  0  0  0  0  0  0  0  0  0  0
    9.3070   -3.5340   24.8780 C   0  0  0  0  0  0  0  0  0  0  0  0
    7.3170   -0.1610   19.8550 C   0  0  0  0  0  0  0  0  0  0  0  0
    9.0420    0.3700   21.5280 C   0  0  0  0  0  0  0  0  0  0  0  0
    7.3637   -6.1365   27.1885 C   0  0  0  0  0  0  0  0  0  0  0  0
    8.1962   -4.9739   27.7340 C   0  0  0  0  0  0  0  0  0  0  0  0
    7.1943   -6.0395   25.6706 C   0  0  0  0  0  0  0  0  0  0  0  0
    9.5197   -4.8493   26.9795 C   0  0  0  0  0  0  0  0  0  0  0  0
    8.5443   -5.8838   24.9636 C   0  0  0  0  0  0  0  0  0  0  0  0
   11.0096    0.6909   23.0256 C   0  0  0  0  0  0  0  0  0  0  0  0
    9.4560    0.1560   22.8130 C   0  0  2  0  0  0  0  0  0  0  0  0
    6.7580    0.3810   17.8350 N   0  0  0  0  0  0  0  0  0  0  0  0
    9.2563   -4.7385   25.5420 N   0  0  0  0  0  0  0  0  0  0  0  0
    8.1890   -0.7180   20.8700 N   0  0  0  0  0  0  0  0  0  0  0  0
    9.2690    1.4140   20.9380 O   0  0  0  0  0  0  0  0  0  0  0  0
   11.5935    6.0460   23.0961 H   0  0  0  0  0  0  0  0  0  0  0  0
    3.6453    2.0152   21.6831 H   0  0  0  0  0  0  0  0  0  0  0  0
   13.4379    4.6081   22.2680 H   0  0  0  0  0  0  0  0  0  0  0  0
    9.4802    5.0172   23.8919 H   0  0  0  0  0  0  0  0  0  0  0  0
    3.0147    2.6520   19.3913 H   0  0  0  0  0  0  0  0  0  0  0  0
    5.6991    0.6995   22.1042 H   0  0  0  0  0  0  0  0  0  0  0  0
   13.1750    2.1496   22.2330 H   0  0  0  0  0  0  0  0  0  0  0  0
    9.2076    2.5600   23.8610 H   0  0  0  0  0  0  0  0  0  0  0  0
    8.9214   -0.1986   25.4206 H   0  0  0  0  0  0  0  0  0  0  0  0
   10.0622   -2.2326   21.8251 H   0  0  0  0  0  0  0  0  0  0  0  0
    4.4051    1.9733   17.4488 H   0  0  0  0  0  0  0  0  0  0  0  0
    8.6882   -2.3542   26.5803 H   0  0  0  0  0  0  0  0  0  0  0  0
    9.9258   -4.3896   22.9914 H   0  0  0  0  0  0  0  0  0  0  0  0
    8.4825   -0.7940   18.0623 H   0  0  0  0  0  0  0  0  0  0  0  0
    7.8484   -7.0905   27.4464 H   0  0  0  0  0  0  0  0  0  0  0  0
    6.3761   -6.1442   27.6721 H   0  0  0  0  0  0  0  0  0  0  0  0
    7.6308   -4.0428   27.6404 H   0  0  0  0  0  0  0  0  0  0  0  0
    8.3917   -5.1316   28.7967 H   0  0  0  0  0  0  0  0  0  0  0  0
    6.6889   -6.9376   25.3006 H   0  0  0  0  0  0  0  0  0  0  0  0
    6.5516   -5.1860   25.4256 H   0  0  0  0  0  0  0  0  0  0  0  0
   10.0494   -3.9643   27.3413 H   0  0  0  0  0  0  0  0  0  0  0  0
   10.1432   -5.7258   27.1775 H   0  0  0  0  0  0  0  0  0  0  0  0
    9.1338   -6.7931   25.0863 H   0  0  0  0  0  0  0  0  0  0  0  0
    8.3657   -5.7262   23.8995 H   0  0  0  0  0  0  0  0  0  0  0  0
   11.6022    0.2720   22.2019 H   0  0  0  0  0  0  0  0  0  0  0  0
   11.4622    0.2902   23.9433 H   0  0  0  0  0  0  0  0  0  0  0  0
    8.9292    0.9747   23.5105 H   0  0  0  0  0  0  0  0  0  0  0  0
    6.7266    0.4930   16.8305 H   0  0  0  0  0  0  0  0  0  0  0  0
    8.2585   -1.5522   21.1129 H   0  0  0  0  0  0  0  0  0  0  0  0
  1  3  1  0  0  0  0
  1  4  2  0  0  0  0
  2  5  1  0  0  0  0
  2  6  2  0  0  0  0
  3  7  2  0  0  0  0
  4  8  1  0  0  0  0
  5 11  2  0  0  0  0
  6 15  1  0  0  0  0
  7 16  1  0  0  0  0
  8 16  2  0  0  0  0
  9 12  2  0  0  0  0
  9 17  1  0  0  0  0
 10 13  1  0  0  0  0
 10 17  2  0  0  0  0
 11 18  1  0  0  0  0
 12 19  1  0  0  0  0
 13 19  2  0  0  0  0
 14 20  2  0  0  0  0
 14 29  1  0  0  0  0
 15 18  2  0  0  0  0
 15 20  1  0  0  0  0
 16 27  1  0  0  0  0
 17 28  1  0  0  0  0
 18 29  1  0  0  0  0
 19 30  1  0  0  0  0
 20 31  1  0  0  0  0
 21 28  1  6  0  0  0
 21 31  1  0  0  0  0
 21 32  2  0  0  0  0
 22 23  1  0  0  0  0
 22 24  1  0  0  0  0
 23 25  1  0  0  0  0
 24 26  1  0  0  0  0
 25 30  1  0  0  0  0
 26 30  1  0  0  0  0
 27 28  1  0  0  0  0
  1 33  1  0  0  0  0
  2 34  1  0  0  0  0
  3 35  1  0  0  0  0
  4 36  1  0  0  0  0
  5 37  1  0  0  0  0
  6 38  1  0  0  0  0
  7 39  1  0  0  0  0
  8 40  1  0  0  0  0
  9 41  1  0  0  0  0
 10 42  1  0  0  0  0
 11 43  1  0  0  0  0
 12 44  1  0  0  0  0
 13 45  1  0  0  0  0
 14 46  1  0  0  0  0
 22 47  1  0  0  0  0
 22 48  1  0  0  0  0
 23 49  1  0  0  0  0
 23 50  1  0  0  0  0
 24 51  1  0  0  0  0
 24 52  1  0  0  0  0
 25 53  1  0  0  0  0
 25 54  1  0  0  0  0
 26 55  1  0  0  0  0
 26 56  1  0  0  0  0
 27 57  1  0  0  0  0
 27 58  1  0  0  0  0
 28 59  1  0  0  0  0
 29 60  1  0  0  0  0
 31 61  1  0  0  0  0
M  END
> <clash_score>
0

> <docking_score>
-9.735734939575195

> <overlap_score>
0.9432650208473206

$$$$
BENZO_287_2
  -OEChem-08232013463D

 56 59  0     1  0  0  0  0  0999 V2000
    4.2750    1.7050   20.8490 C   0  0  0  0  0  0  0  0  0  0  0  0
    3.9160    2.0630   19.5520 C   0  0  0  0  0  0  0  0  0  0  0  0
    5.4210    0.9600   21.0930 C   0  0  0  0  0  0  0  0  0  0  0  0
    9.0720   -1.1280   24.8640 C   0  0  0  0  0  0  0  0  0  0  0  0
    9.7200   -2.2600   22.8630 C   0  0  0  0  0  0  0  0  0  0  0  0
    4.6890    1.6810   18.4640 C   0  0  0  0  0  0  0  0  0  0  0  0
    8.9960   -2.3380   25.5320 C   0  0  0  0  0  0  0  0  0  0  0  0
    9.6730   -3.4710   23.5300 C   0  0  0  0  0  0  0  0  0  0  0  0
   10.2230    3.2711   22.6855 C   0  0  0  0  0  0  0  0  0  0  0  0
    8.3607    3.8650   23.6924 C   0  0  0  0  0  0  0  0  0  0  0  0
    7.6390   -0.2680   18.5410 C   0  0  0  0  0  0  0  0  0  0  0  0
    6.1790    0.5730   19.9990 C   0  0  0  0  0  0  0  0  0  0  0  0
    9.3350   -1.0880   23.5010 C   0  0  0  0  0  0  0  0  0  0  0  0
    9.1357    2.7638   23.4219 C   0  0  0  0  0  0  0  0  0  0  0  0
    5.8300    0.9190   18.6970 C   0  0  0  0  0  0  0  0  0  0  0  0
    9.3070   -3.5340   24.8780 C   0  0  0  0  0  0  0  0  0  0  0  0
    7.3170   -0.1610   19.8550 C   0  0  0  0  0  0  0  0  0  0  0  0
    8.4228   -5.1089   26.6141 C   0  0  0  0  0  0  0  0  0  0  0  0
    9.0420    0.3700   21.5280 C   0  0  0  0  0  0  0  0  0  0  0  0
    8.4173   -7.5520   25.9532 C   0  0  0  0  0  0  0  0  0  0  0  0
    8.5727    6.3003   23.1419 C   0  0  0  0  0  0  0  0  0  0  0  0
    8.8757    1.3301   23.8233 C   0  0  0  0  0  0  0  0  0  0  0  0
    8.6900   -6.5411   27.0525 C   0  0  0  0  0  0  0  0  0  0  0  0
    9.4560    0.1560   22.8130 C   0  0  2  0  0  0  0  0  0  0  0  0
   10.1488    4.5917   22.4999 N   0  0  0  0  0  0  0  0  0  0  0  0
    6.7580    0.3810   17.8350 N   0  0  0  0  0  0  0  0  0  0  0  0
    9.0056    4.9236   23.1235 N   0  0  0  0  0  0  0  0  0  0  0  0
    9.2546   -4.7423   25.5437 N   0  0  0  0  0  0  0  0  0  0  0  0
    8.1890   -0.7180   20.8700 N   0  0  0  0  0  0  0  0  0  0  0  0
    7.5768   -4.4085   27.1603 O   0  0  0  0  0  0  0  0  0  0  0  0
    9.2690    1.4140   20.9380 O   0  0  0  0  0  0  0  0  0  0  0  0
    3.6453    2.0152   21.6831 H   0  0  0  0  0  0  0  0  0  0  0  0
    3.0147    2.6520   19.3913 H   0  0  0  0  0  0  0  0  0  0  0  0
    5.6991    0.6995   22.1042 H   0  0  0  0  0  0  0  0  0  0  0  0
    8.9202   -0.1986   25.4206 H   0  0  0  0  0  0  0  0  0  0  0  0
   10.0631   -2.2319   21.8252 H   0  0  0  0  0  0  0  0  0  0  0  0
    4.4051    1.9733   17.4488 H   0  0  0  0  0  0  0  0  0  0  0  0
    8.6898   -2.3534   26.5810 H   0  0  0  0  0  0  0  0  0  0  0  0
    9.9254   -4.3899   22.9914 H   0  0  0  0  0  0  0  0  0  0  0  0
   11.0671    2.7354   22.2746 H   0  0  0  0  0  0  0  0  0  0  0  0
    7.4277    3.9824   24.2269 H   0  0  0  0  0  0  0  0  0  0  0  0
    8.4825   -0.7940   18.0623 H   0  0  0  0  0  0  0  0  0  0  0  0
    7.3765   -7.4970   25.6177 H   0  0  0  0  0  0  0  0  0  0  0  0
    8.6071   -8.5677   26.3139 H   0  0  0  0  0  0  0  0  0  0  0  0
    9.0598   -7.3717   25.0851 H   0  0  0  0  0  0  0  0  0  0  0  0
    8.9983    6.7758   24.0295 H   0  0  0  0  0  0  0  0  0  0  0  0
    8.9199    6.8033   22.2351 H   0  0  0  0  0  0  0  0  0  0  0  0
    7.4802    6.3352   23.1748 H   0  0  0  0  0  0  0  0  0  0  0  0
    9.2390    1.1684   24.8466 H   0  0  0  0  0  0  0  0  0  0  0  0
    7.7875    1.1860   23.8742 H   0  0  0  0  0  0  0  0  0  0  0  0
    9.7367   -6.6182   27.3685 H   0  0  0  0  0  0  0  0  0  0  0  0
    8.0565   -6.7633   27.9190 H   0  0  0  0  0  0  0  0  0  0  0  0
   10.6103    0.4565   22.8881 H   0  0  0  0  0  0  0  0  0  0  0  0
    6.7266    0.4930   16.8305 H   0  0  0  0  0  0  0  0  0  0  0  0
    9.9034   -5.4689   25.2194 H   0  0  0  0  0  0  0  0  0  0  0  0
    8.2408   -1.5631   21.0968 H   0  0  0  0  0  0  0  0  0  0  0  0
  1  2  1  0  0  0  0
  1  3  2  0  0  0  0
  2  6  2  0  0  0  0
  3 12  1  0  0  0  0
  4  7  2  0  0  0  0
  4 13  1  0  0  0  0
  5  8  1  0  0  0  0
  5 13  2  0  0  0  0
  6 15  1  0  0  0  0
  7 16  1  0  0  0  0
  8 16  2  0  0  0  0
  9 14  1  0  0  0  0
  9 25  2  0  0  0  0
 10 14  2  0  0  0  0
 10 27  1  0  0  0  0
 11 17  2  0  0  0  0
 11 26  1  0  0  0  0
 12 15  2  0  0  0  0
 12 17  1  0  0  0  0
 13 24  1  0  0  0  0
 14 22  1  0  0  0  0
 15 26  1  0  0  0  0
 16 28  1  0  0  0  0
 17 29  1  0  0  0  0
 18 23  1  0  0  0  0
 18 28  1  0  0  0  0
 18 30  2  0  0  0  0
 19 24  1  0  0  0  0
 19 29  1  0  0  0  0
 19 31  2  0  0  0  0
 20 23  1  0  0  0  0
 21 27  1  0  0  0  0
 22 24  1  6  0  0  0
 25 27  1  0  0  0  0
  1 32  1  0  0  0  0
  2 33  1  0  0  0  0
  3 34  1  0  0  0  0
  4 35  1  0  0  0  0
  5 36  1  0  0  0  0
  6 37  1  0  0  0  0
  7 38  1  0  0  0  0
  8 39  1  0  0  0  0
  9 40  1  0  0  0  0
 10 41  1  0  0  0  0
 11 42  1  0  0  0  0
 20 43  1  0  0  0  0
 20 44  1  0  0  0  0
 20 45  1  0  0  0  0
 21 46  1  0  0  0  0
 21 47  1  0  0  0  0
 21 48  1  0  0  0  0
 22 49  1  0  0  0  0
 22 50  1  0  0  0  0
 23 51  1  0  0  0  0
 23 52  1  0  0  0  0
 24 53  1  0  0  0  0
 26 54  1  0  0  0  0
 28 55  1  0  0  0  0
 29 56  1  0  0  0  0
M  END
> <clash_score>
0.6426270629863619

> <docking_score>
-5.287745475769043

> <overlap_score>
0.8392736315727234

$$$$
BENZO_288_2
  -OEChem-08232013463D

 58 62  0     1  0  0  0  0  0999 V2000
    4.2750    1.7050   20.8490 C   0  0  0  0  0  0  0  0  0  0  0  0
    3.9160    2.0630   19.5520 C   0  0  0  0  0  0  0  0  0  0  0  0
    5.4210    0.9600   21.0930 C   0  0  0  0  0  0  0  0  0  0  0  0
    9.0720   -1.1280   24.8640 C   0  0  0  0  0  0  0  0  0  0  0  0
    9.7200   -2.2600   22.8630 C   0  0  0  0  0  0  0  0  0  0  0  0
    4.6890    1.6810   18.4640 C   0  0  0  0  0  0  0  0  0  0  0  0
    8.9960   -2.3380   25.5320 C   0  0  0  0  0  0  0  0  0  0  0  0
    9.6730   -3.4710   23.5300 C   0  0  0  0  0  0  0  0  0  0  0  0
   11.9814    2.9163   22.1204 C   0  0  0  0  0  0  0  0  0  0  0  0
    7.6390   -0.2680   18.5410 C   0  0  0  0  0  0  0  0  0  0  0  0
   11.9562    4.2724   22.3613 C   0  0  0  0  0  0  0  0  0  0  0  0
   10.5621    3.0244   23.9578 C   0  0  0  0  0  0  0  0  0  0  0  0
    6.1790    0.5730   19.9990 C   0  0  0  0  0  0  0  0  0  0  0  0
    9.3350   -1.0880   23.5010 C   0  0  0  0  0  0  0  0  0  0  0  0
   11.1738    2.1933   23.0450 C   0  0  0  0  0  0  0  0  0  0  0  0
    5.8300    0.9190   18.6970 C   0  0  0  0  0  0  0  0  0  0  0  0
    9.3070   -3.5340   24.8780 C   0  0  0  0  0  0  0  0  0  0  0  0
    7.3170   -0.1610   19.8550 C   0  0  0  0  0  0  0  0  0  0  0  0
    9.0420    0.3700   21.5280 C   0  0  0  0  0  0  0  0  0  0  0  0
    7.3637   -6.1365   27.1885 C   0  0  0  0  0  0  0  0  0  0  0  0
    8.1962   -4.9739   27.7340 C   0  0  0  0  0  0  0  0  0  0  0  0
    7.1943   -6.0395   25.6706 C   0  0  0  0  0  0  0  0  0  0  0  0
    9.5197   -4.8493   26.9795 C   0  0  0  0  0  0  0  0  0  0  0  0
    8.5443   -5.8838   24.9636 C   0  0  0  0  0  0  0  0  0  0  0  0
   11.0096    0.6909   23.0256 C   0  0  0  0  0  0  0  0  0  0  0  0
    9.4560    0.1560   22.8130 C   0  0  2  0  0  0  0  0  0  0  0  0
    6.7580    0.3810   17.8350 N   0  0  0  0  0  0  0  0  0  0  0  0
    9.2563   -4.7385   25.5420 N   0  0  0  0  0  0  0  0  0  0  0  0
    8.1890   -0.7180   20.8700 N   0  0  0  0  0  0  0  0  0  0  0  0
    9.2690    1.4140   20.9380 O   0  0  0  0  0  0  0  0  0  0  0  0
   10.9619    4.6690   23.6979 S   0  0  0  0  0  0  0  0  0  0  0  0
    3.6453    2.0152   21.6831 H   0  0  0  0  0  0  0  0  0  0  0  0
    3.0147    2.6520   19.3913 H   0  0  0  0  0  0  0  0  0  0  0  0
    5.6991    0.6995   22.1042 H   0  0  0  0  0  0  0  0  0  0  0  0
    8.9214   -0.1986   25.4206 H   0  0  0  0  0  0  0  0  0  0  0  0
   10.0622   -2.2326   21.8251 H   0  0  0  0  0  0  0  0  0  0  0  0
    4.4051    1.9733   17.4488 H   0  0  0  0  0  0  0  0  0  0  0  0
    8.6882   -2.3542   26.5803 H   0  0  0  0  0  0  0  0  0  0  0  0
    9.9258   -4.3896   22.9914 H   0  0  0  0  0  0  0  0  0  0  0  0
   12.5539    2.4685   21.3179 H   0  0  0  0  0  0  0  0  0  0  0  0
    8.4825   -0.7940   18.0623 H   0  0  0  0  0  0  0  0  0  0  0  0
   12.4745    5.0491   21.8170 H   0  0  0  0  0  0  0  0  0  0  0  0
    9.9000    2.7485   24.7669 H   0  0  0  0  0  0  0  0  0  0  0  0
    7.8484   -7.0905   27.4464 H   0  0  0  0  0  0  0  0  0  0  0  0
    6.3761   -6.1442   27.6721 H   0  0  0  0  0  0  0  0  0  0  0  0
    7.6308   -4.0428   27.6404 H   0  0  0  0  0  0  0  0  0  0  0  0
    8.3917   -5.1316   28.7967 H   0  0  0  0  0  0  0  0  0  0  0  0
    6.6889   -6.9376   25.3006 H   0  0  0  0  0  0  0  0  0  0  0  0
    6.5516   -5.1860   25.4256 H   0  0  0  0  0  0  0  0  0  0  0  0
   10.0494   -3.9643   27.3413 H   0  0  0  0  0  0  0  0  0  0  0  0
   10.1432   -5.7258   27.1775 H   0  0  0  0  0  0  0  0  0  0  0  0
    9.1338   -6.7931   25.0863 H   0  0  0  0  0  0  0  0  0  0  0  0
    8.3657   -5.7262   23.8995 H   0  0  0  0  0  0  0  0  0  0  0  0
   11.6022    0.2720   22.2019 H   0  0  0  0  0  0  0  0  0  0  0  0
   11.4622    0.2902   23.9433 H   0  0  0  0  0  0  0  0  0  0  0  0
    8.9292    0.9747   23.5105 H   0  0  0  0  0  0  0  0  0  0  0  0
    6.7266    0.4930   16.8305 H   0  0  0  0  0  0  0  0  0  0  0  0
    8.2585   -1.5522   21.1129 H   0  0  0  0  0  0  0  0  0  0  0  0
  1  2  1  0  0  0  0
  1  3  2  0  0  0  0
  2  6  2  0  0  0  0
  3 13  1  0  0  0  0
  4  7  2  0  0  0  0
  4 14  1  0  0  0  0
  5  8  1  0  0  0  0
  5 14  2  0  0  0  0
  6 16  1  0  0  0  0
  7 17  1  0  0  0  0
  8 17  2  0  0  0  0
  9 11  2  0  0  0  0
  9 15  1  0  0  0  0
 10 18  2  0  0  0  0
 10 27  1  0  0  0  0
 11 31  1  0  0  0  0
 12 15  2  0  0  0  0
 12 31  1  0  0  0  0
 13 16  2  0  0  0  0
 13 18  1  0  0  0  0
 14 26  1  0  0  0  0
 15 25  1  0  0  0  0
 16 27  1  0  0  0  0
 17 28  1  0  0  0  0
 18 29  1  0  0  0  0
 19 26  1  6  0  0  0
 19 29  1  0  0  0  0
 19 30  2  0  0  0  0
 20 21  1  0  0  0  0
 20 22  1  0  0  0  0
 21 23  1  0  0  0  0
 22 24  1  0  0  0  0
 23 28  1  0  0  0  0
 24 28  1  0  0  0  0
 25 26  1  0  0  0  0
  1 32  1  0  0  0  0
  2 33  1  0  0  0  0
  3 34  1  0  0  0  0
  4 35  1  0  0  0  0
  5 36  1  0  0  0  0
  6 37  1  0  0  0  0
  7 38  1  0  0  0  0
  8 39  1  0  0  0  0
  9 40  1  0  0  0  0
 10 41  1  0  0  0  0
 11 42  1  0  0  0  0
 12 43  1  0  0  0  0
 20 44  1  0  0  0  0
 20 45  1  0  0  0  0
 21 46  1  0  0  0  0
 21 47  1  0  0  0  0
 22 48  1  0  0  0  0
 22 49  1  0  0  0  0
 23 50  1  0  0  0  0
 23 51  1  0  0  0  0
 24 52  1  0  0  0  0
 24 53  1  0  0  0  0
 25 54  1  0  0  0  0
 25 55  1  0  0  0  0
 26 56  1  0  0  0  0
 27 57  1  0  0  0  0
 29 58  1  0  0  0  0
M  END
> <clash_score>
0

> <docking_score>
-8.793741226196289

> <overlap_score>
0.930773138999939

$$$$
BENZO_287_1
  -OEChem-08232013463D

 56 59  0     1  0  0  0  0  0999 V2000
    4.2750    1.7050   20.8490 C   0  0  0  0  0  0  0  0  0  0  0  0
    3.9160    2.0630   19.5520 C   0  0  0  0  0  0  0  0  0  0  0  0
    5.4210    0.9600   21.0930 C   0  0  0  0  0  0  0  0  0  0  0  0
    9.0720   -1.1280   24.8640 C   0  0  0  0  0  0  0  0  0  0  0  0
    9.7200   -2.2600   22.8630 C   0  0  0  0  0  0  0  0  0  0  0  0
    4.6890    1.6810   18.4640 C   0  0  0  0  0  0  0  0  0  0  0  0
    8.9960   -2.3380   25.5320 C   0  0  0  0  0  0  0  0  0  0  0  0
    9.6730   -3.4710   23.5300 C   0  0  0  0  0  0  0  0  0  0  0  0
   10.2428    3.1456   23.5034 C   0  0  0  0  0  0  0  0  0  0  0  0
   12.2645    2.9188   22.6690 C   0  0  0  0  0  0  0  0  0  0  0  0
    7.6390   -0.2680   18.5410 C   0  0  0  0  0  0  0  0  0  0  0  0
    6.1790    0.5730   19.9990 C   0  0  0  0  0  0  0  0  0  0  0  0
    9.3350   -1.0880   23.5010 C   0  0  0  0  0  0  0  0  0  0  0  0
   11.1723    2.1848   23.0624 C   0  0  0  0  0  0  0  0  0  0  0  0
    5.8300    0.9190   18.6970 C   0  0  0  0  0  0  0  0  0  0  0  0
    9.3070   -3.5340   24.8780 C   0  0  0  0  0  0  0  0  0  0  0  0
    7.3170   -0.1610   19.8550 C   0  0  0  0  0  0  0  0  0  0  0  0
    8.4228   -5.1089   26.6141 C   0  0  0  0  0  0  0  0  0  0  0  0
    9.0420    0.3700   21.5280 C   0  0  0  0  0  0  0  0  0  0  0  0
    8.4173   -7.5520   25.9532 C   0  0  0  0  0  0  0  0  0  0  0  0
   12.7694    5.3728   22.6294 C   0  0  0  0  0  0  0  0  0  0  0  0
   11.0089    0.6825   23.0307 C   0  0  0  0  0  0  0  0  0  0  0  0
    8.6900   -6.5411   27.0525 C   0  0  0  0  0  0  0  0  0  0  0  0
    9.4560    0.1560   22.8130 C   0  0  1  0  0  0  0  0  0  0  0  0
   10.7043    4.3948   23.4002 N   0  0  0  0  0  0  0  0  0  0  0  0
    6.7580    0.3810   17.8350 N   0  0  0  0  0  0  0  0  0  0  0  0
   11.9358    4.2239   22.8900 N   0  0  0  0  0  0  0  0  0  0  0  0
    9.2546   -4.7423   25.5437 N   0  0  0  0  0  0  0  0  0  0  0  0
    8.1890   -0.7180   20.8700 N   0  0  0  0  0  0  0  0  0  0  0  0
    7.5768   -4.4085   27.1603 O   0  0  0  0  0  0  0  0  0  0  0  0
    9.2690    1.4140   20.9380 O   0  0  0  0  0  0  0  0  0  0  0  0
    3.6453    2.0152   21.6831 H   0  0  0  0  0  0  0  0  0  0  0  0
    3.0147    2.6520   19.3913 H   0  0  0  0  0  0  0  0  0  0  0  0
    5.6991    0.6995   22.1042 H   0  0  0  0  0  0  0  0  0  0  0  0
    8.9202   -0.1986   25.4206 H   0  0  0  0  0  0  0  0  0  0  0  0
   10.0631   -2.2319   21.8252 H   0  0  0  0  0  0  0  0  0  0  0  0
    4.4051    1.9733   17.4488 H   0  0  0  0  0  0  0  0  0  0  0  0
    8.6898   -2.3534   26.5810 H   0  0  0  0  0  0  0  0  0  0  0  0
    9.9254   -4.3899   22.9914 H   0  0  0  0  0  0  0  0  0  0  0  0
    9.2482    2.9901   23.8969 H   0  0  0  0  0  0  0  0  0  0  0  0
   13.2243    2.6307   22.2620 H   0  0  0  0  0  0  0  0  0  0  0  0
    8.4825   -0.7940   18.0623 H   0  0  0  0  0  0  0  0  0  0  0  0
    7.3765   -7.4970   25.6177 H   0  0  0  0  0  0  0  0  0  0  0  0
    8.6071   -8.5677   26.3139 H   0  0  0  0  0  0  0  0  0  0  0  0
    9.0598   -7.3717   25.0851 H   0  0  0  0  0  0  0  0  0  0  0  0
   12.5744    5.7060   21.6066 H   0  0  0  0  0  0  0  0  0  0  0  0
   12.5290    6.1664   23.3423 H   0  0  0  0  0  0  0  0  0  0  0  0
   13.8196    5.0915   22.7473 H   0  0  0  0  0  0  0  0  0  0  0  0
   11.6011    0.2707   22.2030 H   0  0  0  0  0  0  0  0  0  0  0  0
   11.4624    0.2744   23.9446 H   0  0  0  0  0  0  0  0  0  0  0  0
    9.7367   -6.6182   27.3685 H   0  0  0  0  0  0  0  0  0  0  0  0
    8.0565   -6.7633   27.9190 H   0  0  0  0  0  0  0  0  0  0  0  0
    8.9284    0.9668   23.5149 H   0  0  0  0  0  0  0  0  0  0  0  0
    6.7266    0.4930   16.8305 H   0  0  0  0  0  0  0  0  0  0  0  0
    9.9034   -5.4689   25.2194 H   0  0  0  0  0  0  0  0  0  0  0  0
    8.2408   -1.5631   21.0968 H   0  0  0  0  0  0  0  0  0  0  0  0
  1  2  1  0  0  0  0
  1  3  2  0  0  0  0
  2  6  2  0  0  0  0
  3 12  1  0  0  0  0
  4  7  2  0  0  0  0
  4 13  1  0  0  0  0
  5  8  1  0  0  0  0
  5 13  2  0  0  0  0
  6 15  1  0  0  0  0
  7 16  1  0  0  0  0
  8 16  2  0  0  0  0
  9 14  1  0  0  0  0
  9 25  2  0  0  0  0
 10 14  2  0  0  0  0
 10 27  1  0  0  0  0
 11 17  2  0  0  0  0
 11 26  1  0  0  0  0
 12 15  2  0  0  0  0
 12 17  1  0  0  0  0
 13 24  1  0  0  0  0
 14 22  1  0  0  0  0
 15 26  1  0  0  0  0
 16 28  1  0  0  0  0
 17 29  1  0  0  0  0
 18 23  1  0  0  0  0
 18 28  1  0  0  0  0
 18 30  2  0  0  0  0
 19 24  1  0  0  0  0
 19 29  1  0  0  0  0
 19 31  2  0  0  0  0
 20 23  1  0  0  0  0
 21 27  1  0  0  0  0
 22 24  1  1  0  0  0
 25 27  1  0  0  0  0
  1 32  1  0  0  0  0
  2 33  1  0  0  0  0
  3 34  1  0  0  0  0
  4 35  1  0  0  0  0
  5 36  1  0  0  0  0
  6 37  1  0  0  0  0
  7 38  1  0  0  0  0
  8 39  1  0  0  0  0
  9 40  1  0  0  0  0
 10 41  1  0  0  0  0
 11 42  1  0  0  0  0
 20 43  1  0  0  0  0
 20 44  1  0  0  0  0
 20 45  1  0  0  0  0
 21 46  1  0  0  0  0
 21 47  1  0  0  0  0
 21 48  1  0  0  0  0
 22 49  1  0  0  0  0
 22 50  1  0  0  0  0
 23 51  1  0  0  0  0
 23 52  1  0  0  0  0
 24 53  1  0  0  0  0
 26 54  1  0  0  0  0
 28 55  1  0  0  0  0
 29 56  1  0  0  0  0
M  END
> <clash_score>
0.6426270629863619

> <docking_score>
-8.929828643798828

> <overlap_score>
0.9281452298164368

$$$$
BENZO_293_1
  -OEChem-08232013463D

 49 52  0     1  0  0  0  0  0999 V2000
   11.4726    4.9577   23.1210 C   0  0  0  0  0  0  0  0  0  0  0  0
    4.2750    1.7050   20.8490 C   0  0  0  0  0  0  0  0  0  0  0  0
   12.5103    4.1537   22.6496 C   0  0  0  0  0  0  0  0  0  0  0  0
   10.2847    4.3753   23.5633 C   0  0  0  0  0  0  0  0  0  0  0  0
    3.9160    2.0630   19.5520 C   0  0  0  0  0  0  0  0  0  0  0  0
    5.4210    0.9600   21.0930 C   0  0  0  0  0  0  0  0  0  0  0  0
   12.3602    2.7672   22.6203 C   0  0  0  0  0  0  0  0  0  0  0  0
   10.1346    2.9888   23.5339 C   0  0  0  0  0  0  0  0  0  0  0  0
    8.9960   -2.3380   25.5320 C   0  0  0  0  0  0  0  0  0  0  0  0
    9.6730   -3.4710   23.5300 C   0  0  0  0  0  0  0  0  0  0  0  0
    9.0720   -1.1280   24.8640 C   0  0  0  0  0  0  0  0  0  0  0  0
    9.7200   -2.2600   22.8630 C   0  0  0  0  0  0  0  0  0  0  0  0
    4.6890    1.6810   18.4640 C   0  0  0  0  0  0  0  0  0  0  0  0
    7.6390   -0.2680   18.5410 C   0  0  0  0  0  0  0  0  0  0  0  0
    6.1790    0.5730   19.9990 C   0  0  0  0  0  0  0  0  0  0  0  0
    9.3070   -3.5340   24.8780 C   0  0  0  0  0  0  0  0  0  0  0  0
   11.1723    2.1848   23.0624 C   0  0  0  0  0  0  0  0  0  0  0  0
    9.3350   -1.0880   23.5010 C   0  0  0  0  0  0  0  0  0  0  0  0
    5.8300    0.9190   18.6970 C   0  0  0  0  0  0  0  0  0  0  0  0
    7.3170   -0.1610   19.8550 C   0  0  0  0  0  0  0  0  0  0  0  0
    9.0420    0.3700   21.5280 C   0  0  0  0  0  0  0  0  0  0  0  0
    9.2507   -4.8268   25.5895 C   0  0  0  0  0  0  0  0  0  0  0  0
   11.0089    0.6825   23.0307 C   0  0  0  0  0  0  0  0  0  0  0  0
    9.4560    0.1560   22.8130 C   0  0  1  0  0  0  0  0  0  0  0  0
    6.7580    0.3810   17.8350 N   0  0  0  0  0  0  0  0  0  0  0  0
    8.1890   -0.7180   20.8700 N   0  0  0  0  0  0  0  0  0  0  0  0
    9.2690    1.4140   20.9380 O   0  0  0  0  0  0  0  0  0  0  0  0
   11.5901    6.0371   23.1451 H   0  0  0  0  0  0  0  0  0  0  0  0
    3.6453    2.0152   21.6831 H   0  0  0  0  0  0  0  0  0  0  0  0
   13.4357    4.6069   22.3063 H   0  0  0  0  0  0  0  0  0  0  0  0
    9.4770    5.0009   23.9314 H   0  0  0  0  0  0  0  0  0  0  0  0
    3.0147    2.6520   19.3913 H   0  0  0  0  0  0  0  0  0  0  0  0
    5.6991    0.6995   22.1042 H   0  0  0  0  0  0  0  0  0  0  0  0
   13.1740    2.1486   22.2511 H   0  0  0  0  0  0  0  0  0  0  0  0
    9.2056    2.5438   23.8803 H   0  0  0  0  0  0  0  0  0  0  0  0
    8.6904   -2.3557   26.5808 H   0  0  0  0  0  0  0  0  0  0  0  0
    9.9249   -4.3911   22.9935 H   0  0  0  0  0  0  0  0  0  0  0  0
    8.9209   -0.1987   25.4207 H   0  0  0  0  0  0  0  0  0  0  0  0
   10.0640   -2.2315   21.8255 H   0  0  0  0  0  0  0  0  0  0  0  0
    4.4051    1.9733   17.4488 H   0  0  0  0  0  0  0  0  0  0  0  0
    8.4825   -0.7940   18.0623 H   0  0  0  0  0  0  0  0  0  0  0  0
    8.2506   -5.2684   25.5009 H   0  0  0  0  0  0  0  0  0  0  0  0
    9.9820   -5.5375   25.1832 H   0  0  0  0  0  0  0  0  0  0  0  0
    9.4843   -4.7055   26.6554 H   0  0  0  0  0  0  0  0  0  0  0  0
   11.6011    0.2707   22.2030 H   0  0  0  0  0  0  0  0  0  0  0  0
   11.4624    0.2744   23.9446 H   0  0  0  0  0  0  0  0  0  0  0  0
    8.9284    0.9668   23.5149 H   0  0  0  0  0  0  0  0  0  0  0  0
    6.7266    0.4930   16.8305 H   0  0  0  0  0  0  0  0  0  0  0  0
    8.2408   -1.5631   21.0968 H   0  0  0  0  0  0  0  0  0  0  0  0
  1  3  1  0  0  0  0
  1  4  2  0  0  0  0
  2  5  1  0  0  0  0
  2  6  2  0  0  0  0
  3  7  2  0  0  0  0
  4  8  1  0  0  0  0
  5 13  2  0  0  0  0
  6 15  1  0  0  0  0
  7 17  1  0  0  0  0
  8 17  2  0  0  0  0
  9 11  2  0  0  0  0
  9 16  1  0  0  0  0
 10 12  1  0  0  0  0
 10 16  2  0  0  0  0
 11 18  1  0  0  0  0
 12 18  2  0  0  0  0
 13 19  1  0  0  0  0
 14 20  2  0  0  0  0
 14 25  1  0  0  0  0
 15 19  2  0  0  0  0
 15 20  1  0  0  0  0
 16 22  1  0  0  0  0
 17 23  1  0  0  0  0
 18 24  1  0  0  0  0
 19 25  1  0  0  0  0
 20 26  1  0  0  0  0
 21 24  1  0  0  0  0
 21 26  1  0  0  0  0
 21 27  2  0  0  0  0
 23 24  1  1  0  0  0
  1 28  1  0  0  0  0
  2 29  1  0  0  0  0
  3 30  1  0  0  0  0
  4 31  1  0  0  0  0
  5 32  1  0  0  0  0
  6 33  1  0  0  0  0
  7 34  1  0  0  0  0
  8 35  1  0  0  0  0
  9 36  1  0  0  0  0
 10 37  1  0  0  0  0
 11 38  1  0  0  0  0
 12 39  1  0  0  0  0
 13 40  1  0  0  0  0
 14 41  1  0  0  0  0
 22 42  1  0  0  0  0
 22 43  1  0  0  0  0
 22 44  1  0  0  0  0
 23 45  1  0  0  0  0
 23 46  1  0  0  0  0
 24 47  1  0  0  0  0
 25 48  1  0  0  0  0
 26 49  1  0  0  0  0
M  END
> <clash_score>
0

> <docking_score>
-10.041603088378906

> <overlap_score>
0.8897682428359985

$$$$
BENZO_292_2
  -OEChem-08232013463D

 46 49  0     1  0  0  0  0  0999 V2000
    4.2750    1.7050   20.8490 C   0  0  0  0  0  0  0  0  0  0  0  0
    3.9160    2.0630   19.5520 C   0  0  0  0  0  0  0  0  0  0  0  0
    5.4210    0.9600   21.0930 C   0  0  0  0  0  0  0  0  0  0  0  0
    8.9960   -2.3380   25.5320 C   0  0  0  0  0  0  0  0  0  0  0  0
    9.6730   -3.4710   23.5300 C   0  0  0  0  0  0  0  0  0  0  0  0
    9.0720   -1.1280   24.8640 C   0  0  0  0  0  0  0  0  0  0  0  0
    9.7200   -2.2600   22.8630 C   0  0  0  0  0  0  0  0  0  0  0  0
    4.6890    1.6810   18.4640 C   0  0  0  0  0  0  0  0  0  0  0  0
   10.3314    3.2065   22.7858 C   0  0  0  0  0  0  0  0  0  0  0  0
    7.6390   -0.2680   18.5410 C   0  0  0  0  0  0  0  0  0  0  0  0
   10.3108    4.5599   22.5298 C   0  0  0  0  0  0  0  0  0  0  0  0
    8.2468    3.7959   23.6280 C   0  0  0  0  0  0  0  0  0  0  0  0
    6.1790    0.5730   19.9990 C   0  0  0  0  0  0  0  0  0  0  0  0
    9.3070   -3.5340   24.8780 C   0  0  0  0  0  0  0  0  0  0  0  0
    9.3350   -1.0880   23.5010 C   0  0  0  0  0  0  0  0  0  0  0  0
    9.1357    2.7638   23.4219 C   0  0  0  0  0  0  0  0  0  0  0  0
    5.8300    0.9190   18.6970 C   0  0  0  0  0  0  0  0  0  0  0  0
    7.3170   -0.1610   19.8550 C   0  0  0  0  0  0  0  0  0  0  0  0
    9.0420    0.3700   21.5280 C   0  0  0  0  0  0  0  0  0  0  0  0
    9.2507   -4.8268   25.5895 C   0  0  0  0  0  0  0  0  0  0  0  0
    8.8757    1.3301   23.8233 C   0  0  0  0  0  0  0  0  0  0  0  0
    9.4560    0.1560   22.8130 C   0  0  2  0  0  0  0  0  0  0  0  0
    6.7580    0.3810   17.8350 N   0  0  0  0  0  0  0  0  0  0  0  0
    8.1890   -0.7180   20.8700 N   0  0  0  0  0  0  0  0  0  0  0  0
    9.2690    1.4140   20.9380 O   0  0  0  0  0  0  0  0  0  0  0  0
    8.8543    5.2911   23.0556 S   0  0  0  0  0  0  0  0  0  0  0  0
    3.6453    2.0152   21.6831 H   0  0  0  0  0  0  0  0  0  0  0  0
    3.0147    2.6520   19.3913 H   0  0  0  0  0  0  0  0  0  0  0  0
    5.6991    0.6995   22.1042 H   0  0  0  0  0  0  0  0  0  0  0  0
    8.6904   -2.3557   26.5808 H   0  0  0  0  0  0  0  0  0  0  0  0
    9.9249   -4.3911   22.9935 H   0  0  0  0  0  0  0  0  0  0  0  0
    8.9209   -0.1987   25.4207 H   0  0  0  0  0  0  0  0  0  0  0  0
   10.0640   -2.2315   21.8255 H   0  0  0  0  0  0  0  0  0  0  0  0
    4.4051    1.9733   17.4488 H   0  0  0  0  0  0  0  0  0  0  0  0
   11.1669    2.5681   22.5277 H   0  0  0  0  0  0  0  0  0  0  0  0
    8.4825   -0.7940   18.0623 H   0  0  0  0  0  0  0  0  0  0  0  0
   11.0815    5.1544   22.0600 H   0  0  0  0  0  0  0  0  0  0  0  0
    7.2694    3.7480   24.0880 H   0  0  0  0  0  0  0  0  0  0  0  0
    8.2506   -5.2684   25.5009 H   0  0  0  0  0  0  0  0  0  0  0  0
    9.9820   -5.5375   25.1832 H   0  0  0  0  0  0  0  0  0  0  0  0
    9.4843   -4.7055   26.6554 H   0  0  0  0  0  0  0  0  0  0  0  0
    9.2390    1.1684   24.8466 H   0  0  0  0  0  0  0  0  0  0  0  0
    7.7875    1.1860   23.8742 H   0  0  0  0  0  0  0  0  0  0  0  0
   10.6103    0.4565   22.8881 H   0  0  0  0  0  0  0  0  0  0  0  0
    6.7266    0.4930   16.8305 H   0  0  0  0  0  0  0  0  0  0  0  0
    8.2408   -1.5631   21.0968 H   0  0  0  0  0  0  0  0  0  0  0  0
  1  2  1  0  0  0  0
  1  3  2  0  0  0  0
  2  8  2  0  0  0  0
  3 13  1  0  0  0  0
  4  6  2  0  0  0  0
  4 14  1  0  0  0  0
  5  7  1  0  0  0  0
  5 14  2  0  0  0  0
  6 15  1  0  0  0  0
  7 15  2  0  0  0  0
  8 17  1  0  0  0  0
  9 11  2  0  0  0  0
  9 16  1  0  0  0  0
 10 18  2  0  0  0  0
 10 23  1  0  0  0  0
 11 26  1  0  0  0  0
 12 16  2  0  0  0  0
 12 26  1  0  0  0  0
 13 17  2  0  0  0  0
 13 18  1  0  0  0  0
 14 20  1  0  0  0  0
 15 22  1  0  0  0  0
 16 21  1  0  0  0  0
 17 23  1  0  0  0  0
 18 24  1  0  0  0  0
 19 22  1  0  0  0  0
 19 24  1  0  0  0  0
 19 25  2  0  0  0  0
 21 22  1  6  0  0  0
  1 27  1  0  0  0  0
  2 28  1  0  0  0  0
  3 29  1  0  0  0  0
  4 30  1  0  0  0  0
  5 31  1  0  0  0  0
  6 32  1  0  0  0  0
  7 33  1  0  0  0  0
  8 34  1  0  0  0  0
  9 35  1  0  0  0  0
 10 36  1  0  0  0  0
 11 37  1  0  0  0  0
 12 38  1  0  0  0  0
 20 39  1  0  0  0  0
 20 40  1  0  0  0  0
 20 41  1  0  0  0  0
 21 42  1  0  0  0  0
 21 43  1  0  0  0  0
 22 44  1  0  0  0  0
 23 45  1  0  0  0  0
 24 46  1  0  0  0  0
M  END
> <clash_score>
0

> <docking_score>
-6.964373588562012

> <overlap_score>
0.800769567489624

$$$$
BENZO_292_1
  -OEChem-08232013463D

 46 49  0     1  0  0  0  0  0999 V2000
    4.2750    1.7050   20.8490 C   0  0  0  0  0  0  0  0  0  0  0  0
    3.9160    2.0630   19.5520 C   0  0  0  0  0  0  0  0  0  0  0  0
    5.4210    0.9600   21.0930 C   0  0  0  0  0  0  0  0  0  0  0  0
    8.9960   -2.3380   25.5320 C   0  0  0  0  0  0  0  0  0  0  0  0
    9.6730   -3.4710   23.5300 C   0  0  0  0  0  0  0  0  0  0  0  0
    9.0720   -1.1280   24.8640 C   0  0  0  0  0  0  0  0  0  0  0  0
    9.7200   -2.2600   22.8630 C   0  0  0  0  0  0  0  0  0  0  0  0
    4.6890    1.6810   18.4640 C   0  0  0  0  0  0  0  0  0  0  0  0
   11.9789    2.9159   22.1431 C   0  0  0  0  0  0  0  0  0  0  0  0
    7.6390   -0.2680   18.5410 C   0  0  0  0  0  0  0  0  0  0  0  0
   11.9531    4.2698   22.3953 C   0  0  0  0  0  0  0  0  0  0  0  0
   10.5610    3.0079   23.9825 C   0  0  0  0  0  0  0  0  0  0  0  0
    6.1790    0.5730   19.9990 C   0  0  0  0  0  0  0  0  0  0  0  0
    9.3070   -3.5340   24.8780 C   0  0  0  0  0  0  0  0  0  0  0  0
    9.3350   -1.0880   23.5010 C   0  0  0  0  0  0  0  0  0  0  0  0
   11.1723    2.1848   23.0624 C   0  0  0  0  0  0  0  0  0  0  0  0
    5.8300    0.9190   18.6970 C   0  0  0  0  0  0  0  0  0  0  0  0
    7.3170   -0.1610   19.8550 C   0  0  0  0  0  0  0  0  0  0  0  0
    9.0420    0.3700   21.5280 C   0  0  0  0  0  0  0  0  0  0  0  0
    9.2507   -4.8268   25.5895 C   0  0  0  0  0  0  0  0  0  0  0  0
   11.0089    0.6825   23.0307 C   0  0  0  0  0  0  0  0  0  0  0  0
    9.4560    0.1560   22.8130 C   0  0  1  0  0  0  0  0  0  0  0  0
    6.7580    0.3810   17.8350 N   0  0  0  0  0  0  0  0  0  0  0  0
    8.1890   -0.7180   20.8700 N   0  0  0  0  0  0  0  0  0  0  0  0
    9.2690    1.4140   20.9380 O   0  0  0  0  0  0  0  0  0  0  0  0
   10.9597    4.6549   23.7359 S   0  0  0  0  0  0  0  0  0  0  0  0
    3.6453    2.0152   21.6831 H   0  0  0  0  0  0  0  0  0  0  0  0
    3.0147    2.6520   19.3913 H   0  0  0  0  0  0  0  0  0  0  0  0
    5.6991    0.6995   22.1042 H   0  0  0  0  0  0  0  0  0  0  0  0
    8.6904   -2.3557   26.5808 H   0  0  0  0  0  0  0  0  0  0  0  0
    9.9249   -4.3911   22.9935 H   0  0  0  0  0  0  0  0  0  0  0  0
    8.9209   -0.1987   25.4207 H   0  0  0  0  0  0  0  0  0  0  0  0
   10.0640   -2.2315   21.8255 H   0  0  0  0  0  0  0  0  0  0  0  0
    4.4051    1.9733   17.4488 H   0  0  0  0  0  0  0  0  0  0  0  0
   12.5509    2.4750   21.3365 H   0  0  0  0  0  0  0  0  0  0  0  0
    8.4825   -0.7940   18.0623 H   0  0  0  0  0  0  0  0  0  0  0  0
   12.4707    5.0513   21.8570 H   0  0  0  0  0  0  0  0  0  0  0  0
    9.8997    2.7250   24.7898 H   0  0  0  0  0  0  0  0  0  0  0  0
    8.2506   -5.2684   25.5009 H   0  0  0  0  0  0  0  0  0  0  0  0
    9.9820   -5.5375   25.1832 H   0  0  0  0  0  0  0  0  0  0  0  0
    9.4843   -4.7055   26.6554 H   0  0  0  0  0  0  0  0  0  0  0  0
   11.6011    0.2707   22.2030 H   0  0  0  0  0  0  0  0  0  0  0  0
   11.4624    0.2744   23.9446 H   0  0  0  0  0  0  0  0  0  0  0  0
    8.9284    0.9668   23.5149 H   0  0  0  0  0  0  0  0  0  0  0  0
    6.7266    0.4930   16.8305 H   0  0  0  0  0  0  0  0  0  0  0  0
    8.2408   -1.5631   21.0968 H   0  0  0  0  0  0  0  0  0  0  0  0
  1  2  1  0  0  0  0
  1  3  2  0  0  0  0
  2  8  2  0  0  0  0
  3 13  1  0  0  0  0
  4  6  2  0  0  0  0
  4 14  1  0  0  0  0
  5  7  1  0  0  0  0
  5 14  2  0  0  0  0
  6 15  1  0  0  0  0
  7 15  2  0  0  0  0
  8 17  1  0  0  0  0
  9 11  2  0  0  0  0
  9 16  1  0  0  0  0
 10 18  2  0  0  0  0
 10 23  1  0  0  0  0
 11 26  1  0  0  0  0
 12 16  2  0  0  0  0
 12 26  1  0  0  0  0
 13 17  2  0  0  0  0
 13 18  1  0  0  0  0
 14 20  1  0  0  0  0
 15 22  1  0  0  0  0
 16 21  1  0  0  0  0
 17 23  1  0  0  0  0
 18 24  1  0  0  0  0
 19 22  1  0  0  0  0
 19 24  1  0  0  0  0
 19 25  2  0  0  0  0
 21 22  1  1  0  0  0
  1 27  1  0  0  0  0
  2 28  1  0  0  0  0
  3 29  1  0  0  0  0
  4 30  1  0  0  0  0
  5 31  1  0  0  0  0
  6 32  1  0  0  0  0
  7 33  1  0  0  0  0
  8 34  1  0  0  0  0
  9 35  1  0  0  0  0
 10 36  1  0  0  0  0
 11 37  1  0  0  0  0
 12 38  1  0  0  0  0
 20 39  1  0  0  0  0
 20 40  1  0  0  0  0
 20 41  1  0  0  0  0
 21 42  1  0  0  0  0
 21 43  1  0  0  0  0
 22 44  1  0  0  0  0
 23 45  1  0  0  0  0
 24 46  1  0  0  0  0
M  END
> <clash_score>
0

> <docking_score>
-9.08329963684082

> <overlap_score>
0.87698894739151

$$$$
BENZO_293_2
  -OEChem-08232013463D

 49 52  0     1  0  0  0  0  0999 V2000
    9.6170    5.4099   22.6808 C   0  0  0  0  0  0  0  0  0  0  0  0
    4.2750    1.7050   20.8490 C   0  0  0  0  0  0  0  0  0  0  0  0
    8.4752    5.0878   23.4143 C   0  0  0  0  0  0  0  0  0  0  0  0
   10.5182    4.4090   22.3177 C   0  0  0  0  0  0  0  0  0  0  0  0
    3.9160    2.0630   19.5520 C   0  0  0  0  0  0  0  0  0  0  0  0
    5.4210    0.9600   21.0930 C   0  0  0  0  0  0  0  0  0  0  0  0
    8.2345    3.7648   23.7849 C   0  0  0  0  0  0  0  0  0  0  0  0
   10.2775    3.0860   22.6883 C   0  0  0  0  0  0  0  0  0  0  0  0
    8.9960   -2.3380   25.5320 C   0  0  0  0  0  0  0  0  0  0  0  0
    9.6730   -3.4710   23.5300 C   0  0  0  0  0  0  0  0  0  0  0  0
    9.0720   -1.1280   24.8640 C   0  0  0  0  0  0  0  0  0  0  0  0
    9.7200   -2.2600   22.8630 C   0  0  0  0  0  0  0  0  0  0  0  0
    4.6890    1.6810   18.4640 C   0  0  0  0  0  0  0  0  0  0  0  0
    7.6390   -0.2680   18.5410 C   0  0  0  0  0  0  0  0  0  0  0  0
    6.1790    0.5730   19.9990 C   0  0  0  0  0  0  0  0  0  0  0  0
    9.3070   -3.5340   24.8780 C   0  0  0  0  0  0  0  0  0  0  0  0
    9.1357    2.7638   23.4219 C   0  0  0  0  0  0  0  0  0  0  0  0
    9.3350   -1.0880   23.5010 C   0  0  0  0  0  0  0  0  0  0  0  0
    5.8300    0.9190   18.6970 C   0  0  0  0  0  0  0  0  0  0  0  0
    7.3170   -0.1610   19.8550 C   0  0  0  0  0  0  0  0  0  0  0  0
    9.0420    0.3700   21.5280 C   0  0  0  0  0  0  0  0  0  0  0  0
    9.2507   -4.8268   25.5895 C   0  0  0  0  0  0  0  0  0  0  0  0
    8.8757    1.3301   23.8233 C   0  0  0  0  0  0  0  0  0  0  0  0
    9.4560    0.1560   22.8130 C   0  0  2  0  0  0  0  0  0  0  0  0
    6.7580    0.3810   17.8350 N   0  0  0  0  0  0  0  0  0  0  0  0
    8.1890   -0.7180   20.8700 N   0  0  0  0  0  0  0  0  0  0  0  0
    9.2690    1.4140   20.9380 O   0  0  0  0  0  0  0  0  0  0  0  0
    9.8035    6.4400   22.3912 H   0  0  0  0  0  0  0  0  0  0  0  0
    3.6453    2.0152   21.6831 H   0  0  0  0  0  0  0  0  0  0  0  0
    7.7728    5.8668   23.6961 H   0  0  0  0  0  0  0  0  0  0  0  0
   11.4067    4.6593   21.7457 H   0  0  0  0  0  0  0  0  0  0  0  0
    3.0147    2.6520   19.3913 H   0  0  0  0  0  0  0  0  0  0  0  0
    5.6991    0.6995   22.1042 H   0  0  0  0  0  0  0  0  0  0  0  0
    7.3424    3.5231   24.3565 H   0  0  0  0  0  0  0  0  0  0  0  0
   10.9853    2.3128   22.4011 H   0  0  0  0  0  0  0  0  0  0  0  0
    8.6904   -2.3557   26.5808 H   0  0  0  0  0  0  0  0  0  0  0  0
    9.9249   -4.3911   22.9935 H   0  0  0  0  0  0  0  0  0  0  0  0
    8.9209   -0.1987   25.4207 H   0  0  0  0  0  0  0  0  0  0  0  0
   10.0640   -2.2315   21.8255 H   0  0  0  0  0  0  0  0  0  0  0  0
    4.4051    1.9733   17.4488 H   0  0  0  0  0  0  0  0  0  0  0  0
    8.4825   -0.7940   18.0623 H   0  0  0  0  0  0  0  0  0  0  0  0
    8.2506   -5.2684   25.5009 H   0  0  0  0  0  0  0  0  0  0  0  0
    9.9820   -5.5375   25.1832 H   0  0  0  0  0  0  0  0  0  0  0  0
    9.4843   -4.7055   26.6554 H   0  0  0  0  0  0  0  0  0  0  0  0
    9.2390    1.1684   24.8466 H   0  0  0  0  0  0  0  0  0  0  0  0
    7.7875    1.1860   23.8742 H   0  0  0  0  0  0  0  0  0  0  0  0
   10.6103    0.4565   22.8881 H   0  0  0  0  0  0  0  0  0  0  0  0
    6.7266    0.4930   16.8305 H   0  0  0  0  0  0  0  0  0  0  0  0
    8.2408   -1.5631   21.0968 H   0  0  0  0  0  0  0  0  0  0  0  0
  1  3  1  0  0  0  0
  1  4  2  0  0  0  0
  2  5  1  0  0  0  0
  2  6  2  0  0  0  0
  3  7  2  0  0  0  0
  4  8  1  0  0  0  0
  5 13  2  0  0  0  0
  6 15  1  0  0  0  0
  7 17  1  0  0  0  0
  8 17  2  0  0  0  0
  9 11  2  0  0  0  0
  9 16  1  0  0  0  0
 10 12  1  0  0  0  0
 10 16  2  0  0  0  0
 11 18  1  0  0  0  0
 12 18  2  0  0  0  0
 13 19  1  0  0  0  0
 14 20  2  0  0  0  0
 14 25  1  0  0  0  0
 15 19  2  0  0  0  0
 15 20  1  0  0  0  0
 16 22  1  0  0  0  0
 17 23  1  0  0  0  0
 18 24  1  0  0  0  0
 19 25  1  0  0  0  0
 20 26  1  0  0  0  0
 21 24  1  0  0  0  0
 21 26  1  0  0  0  0
 21 27  2  0  0  0  0
 23 24  1  6  0  0  0
  1 28  1  0  0  0  0
  2 29  1  0  0  0  0
  3 30  1  0  0  0  0
  4 31  1  0  0  0  0
  5 32  1  0  0  0  0
  6 33  1  0  0  0  0
  7 34  1  0  0  0  0
  8 35  1  0  0  0  0
  9 36  1  0  0  0  0
 10 37  1  0  0  0  0
 11 38  1  0  0  0  0
 12 39  1  0  0  0  0
 13 40  1  0  0  0  0
 14 41  1  0  0  0  0
 22 42  1  0  0  0  0
 22 43  1  0  0  0  0
 22 44  1  0  0  0  0
 23 45  1  0  0  0  0
 23 46  1  0  0  0  0
 24 47  1  0  0  0  0
 25 48  1  0  0  0  0
 26 49  1  0  0  0  0
M  END
> <clash_score>
0

> <docking_score>
-6.577252388000488

> <overlap_score>
0.8005931377410889

$$$$
BENZO_290_1
  -OEChem-08232013463D

 61 65  0     1  0  0  0  0  0999 V2000
    4.2750    1.7050   20.8490 C   0  0  0  0  0  0  0  0  0  0  0  0
    3.9160    2.0630   19.5520 C   0  0  0  0  0  0  0  0  0  0  0  0
   10.4915    4.4215   22.2896 C   0  0  0  0  0  0  0  0  0  0  0  0
    5.4210    0.9600   21.0930 C   0  0  0  0  0  0  0  0  0  0  0  0
   10.2610    3.0989   22.6678 C   0  0  0  0  0  0  0  0  0  0  0  0
    9.0720   -1.1280   24.8640 C   0  0  0  0  0  0  0  0  0  0  0  0
    9.7200   -2.2600   22.8630 C   0  0  0  0  0  0  0  0  0  0  0  0
    4.6890    1.6810   18.4640 C   0  0  0  0  0  0  0  0  0  0  0  0
    8.9960   -2.3380   25.5320 C   0  0  0  0  0  0  0  0  0  0  0  0
    9.6730   -3.4710   23.5300 C   0  0  0  0  0  0  0  0  0  0  0  0
    9.5853    5.4184   22.6514 C   0  0  0  0  0  0  0  0  0  0  0  0
    8.2180    3.7697   23.7693 C   0  0  0  0  0  0  0  0  0  0  0  0
    7.6390   -0.2680   18.5410 C   0  0  0  0  0  0  0  0  0  0  0  0
    6.1790    0.5730   19.9990 C   0  0  0  0  0  0  0  0  0  0  0  0
    9.3350   -1.0880   23.5010 C   0  0  0  0  0  0  0  0  0  0  0  0
    9.1243    2.7729   23.4075 C   0  0  0  0  0  0  0  0  0  0  0  0
    5.8300    0.9190   18.6970 C   0  0  0  0  0  0  0  0  0  0  0  0
    9.3070   -3.5340   24.8780 C   0  0  0  0  0  0  0  0  0  0  0  0
    7.3170   -0.1610   19.8550 C   0  0  0  0  0  0  0  0  0  0  0  0
    8.4486    5.0925   23.3912 C   0  0  0  0  0  0  0  0  0  0  0  0
    9.0420    0.3700   21.5280 C   0  0  0  0  0  0  0  0  0  0  0  0
    7.2237   -6.6201   26.3005 C   0  0  0  0  0  0  0  0  0  0  0  0
    7.4295   -5.3104   27.0650 C   0  0  0  0  0  0  0  0  0  0  0  0
    7.7218   -6.5099   24.8576 C   0  0  0  0  0  0  0  0  0  0  0  0
    8.8783   -4.8360   26.9547 C   0  0  0  0  0  0  0  0  0  0  0  0
    9.1653   -6.0007   24.7991 C   0  0  0  0  0  0  0  0  0  0  0  0
    8.8746    1.3393   23.8158 C   0  0  0  0  0  0  0  0  0  0  0  0
    9.4560    0.1560   22.8130 C   0  0  1  0  0  0  0  0  0  0  0  0
    6.7580    0.3810   17.8350 N   0  0  0  0  0  0  0  0  0  0  0  0
    9.2563   -4.7385   25.5420 N   0  0  0  0  0  0  0  0  0  0  0  0
    8.1890   -0.7180   20.8700 N   0  0  0  0  0  0  0  0  0  0  0  0
    9.2690    1.4140   20.9380 O   0  0  0  0  0  0  0  0  0  0  0  0
    7.3302    6.3225   23.8362 Cl  0  0  0  0  0  0  0  0  0  0  0  0
    3.6453    2.0152   21.6831 H   0  0  0  0  0  0  0  0  0  0  0  0
    3.0147    2.6520   19.3913 H   0  0  0  0  0  0  0  0  0  0  0  0
   11.3767    4.6749   21.7135 H   0  0  0  0  0  0  0  0  0  0  0  0
    5.6991    0.6995   22.1042 H   0  0  0  0  0  0  0  0  0  0  0  0
   10.9724    2.3287   22.3814 H   0  0  0  0  0  0  0  0  0  0  0  0
    8.9214   -0.1986   25.4206 H   0  0  0  0  0  0  0  0  0  0  0  0
   10.0622   -2.2326   21.8251 H   0  0  0  0  0  0  0  0  0  0  0  0
    4.4051    1.9733   17.4488 H   0  0  0  0  0  0  0  0  0  0  0  0
    8.6882   -2.3542   26.5803 H   0  0  0  0  0  0  0  0  0  0  0  0
    9.9258   -4.3896   22.9914 H   0  0  0  0  0  0  0  0  0  0  0  0
    9.7776    6.4450   22.3495 H   0  0  0  0  0  0  0  0  0  0  0  0
    7.3335    3.5106   24.3465 H   0  0  0  0  0  0  0  0  0  0  0  0
    8.4825   -0.7940   18.0623 H   0  0  0  0  0  0  0  0  0  0  0  0
    7.7561   -7.4351   26.8143 H   0  0  0  0  0  0  0  0  0  0  0  0
    6.1574   -6.8886   26.3051 H   0  0  0  0  0  0  0  0  0  0  0  0
    6.7603   -4.5438   26.6651 H   0  0  0  0  0  0  0  0  0  0  0  0
    7.1686   -5.4557   28.1153 H   0  0  0  0  0  0  0  0  0  0  0  0
    7.6596   -7.4899   24.3731 H   0  0  0  0  0  0  0  0  0  0  0  0
    7.0707   -5.8316   24.2940 H   0  0  0  0  0  0  0  0  0  0  0  0
    8.9682   -3.8625   27.4435 H   0  0  0  0  0  0  0  0  0  0  0  0
    9.5389   -5.5394   27.4694 H   0  0  0  0  0  0  0  0  0  0  0  0
    9.8375   -6.7414   25.2339 H   0  0  0  0  0  0  0  0  0  0  0  0
    9.4414   -5.8513   23.7549 H   0  0  0  0  0  0  0  0  0  0  0  0
    9.2322    1.1871   24.8426 H   0  0  0  0  0  0  0  0  0  0  0  0
    7.7874    1.1856   23.8601 H   0  0  0  0  0  0  0  0  0  0  0  0
   10.6111    0.4645   22.8838 H   0  0  0  0  0  0  0  0  0  0  0  0
    6.7266    0.4930   16.8305 H   0  0  0  0  0  0  0  0  0  0  0  0
    8.2585   -1.5522   21.1129 H   0  0  0  0  0  0  0  0  0  0  0  0
  1  2  1  0  0  0  0
  1  4  2  0  0  0  0
  2  8  2  0  0  0  0
  3  5  2  0  0  0  0
  3 11  1  0  0  0  0
  4 14  1  0  0  0  0
  5 16  1  0  0  0  0
  6  9  2  0  0  0  0
  6 15  1  0  0  0  0
  7 10  1  0  0  0  0
  7 15  2  0  0  0  0
  8 17  1  0  0  0  0
  9 18  1  0  0  0  0
 10 18  2  0  0  0  0
 11 20  2  0  0  0  0
 12 16  2  0  0  0  0
 12 20  1  0  0  0  0
 13 19  2  0  0  0  0
 13 29  1  0  0  0  0
 14 17  2  0  0  0  0
 14 19  1  0  0  0  0
 15 28  1  0  0  0  0
 16 27  1  0  0  0  0
 17 29  1  0  0  0  0
 18 30  1  0  0  0  0
 19 31  1  0  0  0  0
 20 33  1  0  0  0  0
 21 28  1  1  0  0  0
 21 31  1  0  0  0  0
 21 32  2  0  0  0  0
 22 23  1  0  0  0  0
 22 24  1  0  0  0  0
 23 25  1  0  0  0  0
 24 26  1  0  0  0  0
 25 30  1  0  0  0  0
 26 30  1  0  0  0  0
 27 28  1  0  0  0  0
  1 34  1  0  0  0  0
  2 35  1  0  0  0  0
  3 36  1  0  0  0  0
  4 37  1  0  0  0  0
  5 38  1  0  0  0  0
  6 39  1  0  0  0  0
  7 40  1  0  0  0  0
  8 41  1  0  0  0  0
  9 42  1  0  0  0  0
 10 43  1  0  0  0  0
 11 44  1  0  0  0  0
 12 45  1  0  0  0  0
 13 46  1  0  0  0  0
 22 47  1  0  0  0  0
 22 48  1  0  0  0  0
 23 49  1  0  0  0  0
 23 50  1  0  0  0  0
 24 51  1  0  0  0  0
 24 52  1  0  0  0  0
 25 53  1  0  0  0  0
 25 54  1  0  0  0  0
 26 55  1  0  0  0  0
 26 56  1  0  0  0  0
 27 57  1  0  0  0  0
 27 58  1  0  0  0  0
 28 59  1  0  0  0  0
 29 60  1  0  0  0  0
 31 61  1  0  0  0  0
M  END
> <clash_score>
0

> <docking_score>
-6.003657341003418

> <overlap_score>
0.8589621782302856

$$$$
BENZO_291_2
  -OEChem-08232013463D

 61 65  0     1  0  0  0  0  0999 V2000
    4.2750    1.7050   20.8490 C   0  0  0  0  0  0  0  0  0  0  0  0
    3.9160    2.0630   19.5520 C   0  0  0  0  0  0  0  0  0  0  0  0
    5.4210    0.9600   21.0930 C   0  0  0  0  0  0  0  0  0  0  0  0
    9.0720   -1.1280   24.8640 C   0  0  0  0  0  0  0  0  0  0  0  0
    9.7200   -2.2600   22.8630 C   0  0  0  0  0  0  0  0  0  0  0  0
    4.6890    1.6810   18.4640 C   0  0  0  0  0  0  0  0  0  0  0  0
    8.9960   -2.3380   25.5320 C   0  0  0  0  0  0  0  0  0  0  0  0
    9.6730   -3.4710   23.5300 C   0  0  0  0  0  0  0  0  0  0  0  0
    8.3074    3.5997   22.6132 C   0  0  0  0  0  0  0  0  0  0  0  0
   10.2002    3.5628   23.7316 C   0  0  0  0  0  0  0  0  0  0  0  0
    7.6390   -0.2680   18.5410 C   0  0  0  0  0  0  0  0  0  0  0  0
    6.1790    0.5730   19.9990 C   0  0  0  0  0  0  0  0  0  0  0  0
    9.3350   -1.0880   23.5010 C   0  0  0  0  0  0  0  0  0  0  0  0
    9.1243    2.7729   23.4075 C   0  0  0  0  0  0  0  0  0  0  0  0
    5.8300    0.9190   18.6970 C   0  0  0  0  0  0  0  0  0  0  0  0
    9.3070   -3.5340   24.8780 C   0  0  0  0  0  0  0  0  0  0  0  0
    7.3170   -0.1610   19.8550 C   0  0  0  0  0  0  0  0  0  0  0  0
    9.0420    0.3700   21.5280 C   0  0  0  0  0  0  0  0  0  0  0  0
    8.0667   -7.3160   25.1085 C   0  0  0  0  0  0  0  0  0  0  0  0
    9.3319   -6.8814   24.3649 C   0  0  0  0  0  0  0  0  0  0  0  0
    7.2362   -6.1096   25.5522 C   0  0  0  0  0  0  0  0  0  0  0  0
   10.1245   -5.8640   25.1853 C   0  0  0  0  0  0  0  0  0  0  0  0
    8.0817   -5.1052   26.3413 C   0  0  0  0  0  0  0  0  0  0  0  0
   10.8288    5.9272   23.1903 C   0  0  0  0  0  0  0  0  0  0  0  0
    8.8746    1.3393   23.8158 C   0  0  0  0  0  0  0  0  0  0  0  0
    9.4560    0.1560   22.8130 C   0  0  2  0  0  0  0  0  0  0  0  0
    8.8203    4.8212   22.4432 N   0  0  0  0  0  0  0  0  0  0  0  0
    6.7580    0.3810   17.8350 N   0  0  0  0  0  0  0  0  0  0  0  0
    9.9711    4.7678   23.1353 N   0  0  0  0  0  0  0  0  0  0  0  0
    9.2563   -4.7384   25.5420 N   0  0  0  0  0  0  0  0  0  0  0  0
    8.1890   -0.7180   20.8700 N   0  0  0  0  0  0  0  0  0  0  0  0
    9.2690    1.4140   20.9380 O   0  0  0  0  0  0  0  0  0  0  0  0
    3.6453    2.0152   21.6831 H   0  0  0  0  0  0  0  0  0  0  0  0
    3.0147    2.6520   19.3913 H   0  0  0  0  0  0  0  0  0  0  0  0
    5.6991    0.6995   22.1042 H   0  0  0  0  0  0  0  0  0  0  0  0
    8.9214   -0.1986   25.4206 H   0  0  0  0  0  0  0  0  0  0  0  0
   10.0622   -2.2326   21.8251 H   0  0  0  0  0  0  0  0  0  0  0  0
    4.4051    1.9733   17.4488 H   0  0  0  0  0  0  0  0  0  0  0  0
    8.6882   -2.3542   26.5803 H   0  0  0  0  0  0  0  0  0  0  0  0
    9.9258   -4.3896   22.9914 H   0  0  0  0  0  0  0  0  0  0  0  0
    7.3589    3.3655   22.1508 H   0  0  0  0  0  0  0  0  0  0  0  0
   11.0867    3.3751   24.3222 H   0  0  0  0  0  0  0  0  0  0  0  0
    8.4825   -0.7940   18.0623 H   0  0  0  0  0  0  0  0  0  0  0  0
    7.4598   -7.9634   24.4571 H   0  0  0  0  0  0  0  0  0  0  0  0
    8.3410   -7.9201   25.9853 H   0  0  0  0  0  0  0  0  0  0  0  0
    9.9559   -7.7558   24.1617 H   0  0  0  0  0  0  0  0  0  0  0  0
    9.0580   -6.4449   23.4022 H   0  0  0  0  0  0  0  0  0  0  0  0
    6.8081   -5.6166   24.6732 H   0  0  0  0  0  0  0  0  0  0  0  0
    6.3966   -6.4479   26.1707 H   0  0  0  0  0  0  0  0  0  0  0  0
   10.5035   -6.3556   26.0849 H   0  0  0  0  0  0  0  0  0  0  0  0
   10.9797   -5.5057   24.6053 H   0  0  0  0  0  0  0  0  0  0  0  0
    7.4889   -4.2178   26.5663 H   0  0  0  0  0  0  0  0  0  0  0  0
    8.3867   -5.5668   27.2810 H   0  0  0  0  0  0  0  0  0  0  0  0
   11.5265    5.8708   22.3506 H   0  0  0  0  0  0  0  0  0  0  0  0
   10.2207    6.8336   23.1218 H   0  0  0  0  0  0  0  0  0  0  0  0
   11.3712    5.9308   24.1399 H   0  0  0  0  0  0  0  0  0  0  0  0
    9.2322    1.1871   24.8426 H   0  0  0  0  0  0  0  0  0  0  0  0
    7.7874    1.1856   23.8601 H   0  0  0  0  0  0  0  0  0  0  0  0
   10.6111    0.4645   22.8838 H   0  0  0  0  0  0  0  0  0  0  0  0
    6.7266    0.4930   16.8305 H   0  0  0  0  0  0  0  0  0  0  0  0
    8.2585   -1.5522   21.1129 H   0  0  0  0  0  0  0  0  0  0  0  0
  1  2  1  0  0  0  0
  1  3  2  0  0  0  0
  2  6  2  0  0  0  0
  3 12  1  0  0  0  0
  4  7  2  0  0  0  0
  4 13  1  0  0  0  0
  5  8  1  0  0  0  0
  5 13  2  0  0  0  0
  6 15  1  0  0  0  0
  7 16  1  0  0  0  0
  8 16  2  0  0  0  0
  9 14  1  0  0  0  0
  9 27  2  0  0  0  0
 10 14  2  0  0  0  0
 10 29  1  0  0  0  0
 11 17  2  0  0  0  0
 11 28  1  0  0  0  0
 12 15  2  0  0  0  0
 12 17  1  0  0  0  0
 13 26  1  0  0  0  0
 14 25  1  0  0  0  0
 15 28  1  0  0  0  0
 16 30  1  0  0  0  0
 17 31  1  0  0  0  0
 18 26  1  0  0  0  0
 18 31  1  0  0  0  0
 18 32  2  0  0  0  0
 19 20  1  0  0  0  0
 19 21  1  0  0  0  0
 20 22  1  0  0  0  0
 21 23  1  0  0  0  0
 22 30  1  0  0  0  0
 23 30  1  0  0  0  0
 24 29  1  0  0  0  0
 25 26  1  6  0  0  0
 27 29  1  0  0  0  0
  1 33  1  0  0  0  0
  2 34  1  0  0  0  0
  3 35  1  0  0  0  0
  4 36  1  0  0  0  0
  5 37  1  0  0  0  0
  6 38  1  0  0  0  0
  7 39  1  0  0  0  0
  8 40  1  0  0  0  0
  9 41  1  0  0  0  0
 10 42  1  0  0  0  0
 11 43  1  0  0  0  0
 19 44  1  0  0  0  0
 19 45  1  0  0  0  0
 20 46  1  0  0  0  0
 20 47  1  0  0  0  0
 21 48  1  0  0  0  0
 21 49  1  0  0  0  0
 22 50  1  0  0  0  0
 22 51  1  0  0  0  0
 23 52  1  0  0  0  0
 23 53  1  0  0  0  0
 24 54  1  0  0  0  0
 24 55  1  0  0  0  0
 24 56  1  0  0  0  0
 25 57  1  0  0  0  0
 25 58  1  0  0  0  0
 26 59  1  0  0  0  0
 28 60  1  0  0  0  0
 31 61  1  0  0  0  0
M  END
> <clash_score>
0.6917505343088597

> <docking_score>
-6.055760383605957

> <overlap_score>
0.8535326719284058

$$$$
BENZO_290_2
  -OEChem-08232013463D

 61 65  0     1  0  0  0  0  0999 V2000
    4.2750    1.7050   20.8490 C   0  0  0  0  0  0  0  0  0  0  0  0
    3.9160    2.0630   19.5520 C   0  0  0  0  0  0  0  0  0  0  0  0
   10.2883    4.3880   23.5308 C   0  0  0  0  0  0  0  0  0  0  0  0
    5.4210    0.9600   21.0930 C   0  0  0  0  0  0  0  0  0  0  0  0
   10.1370    3.0016   23.5115 C   0  0  0  0  0  0  0  0  0  0  0  0
    9.0720   -1.1280   24.8640 C   0  0  0  0  0  0  0  0  0  0  0  0
    9.7200   -2.2600   22.8630 C   0  0  0  0  0  0  0  0  0  0  0  0
    4.6890    1.6810   18.4640 C   0  0  0  0  0  0  0  0  0  0  0  0
    8.9960   -2.3380   25.5320 C   0  0  0  0  0  0  0  0  0  0  0  0
    9.6730   -3.4710   23.5300 C   0  0  0  0  0  0  0  0  0  0  0  0
   11.4763    4.9663   23.0834 C   0  0  0  0  0  0  0  0  0  0  0  0
   12.3618    2.7715   22.5978 C   0  0  0  0  0  0  0  0  0  0  0  0
    7.6390   -0.2680   18.5410 C   0  0  0  0  0  0  0  0  0  0  0  0
    6.1790    0.5730   19.9990 C   0  0  0  0  0  0  0  0  0  0  0  0
    9.3350   -1.0880   23.5010 C   0  0  0  0  0  0  0  0  0  0  0  0
   11.1738    2.1933   23.0450 C   0  0  0  0  0  0  0  0  0  0  0  0
    5.8300    0.9190   18.6970 C   0  0  0  0  0  0  0  0  0  0  0  0
    9.3070   -3.5340   24.8780 C   0  0  0  0  0  0  0  0  0  0  0  0
    7.3170   -0.1610   19.8550 C   0  0  0  0  0  0  0  0  0  0  0  0
   12.5130    4.1581   22.6170 C   0  0  0  0  0  0  0  0  0  0  0  0
    9.0420    0.3700   21.5280 C   0  0  0  0  0  0  0  0  0  0  0  0
    7.3637   -6.1365   27.1885 C   0  0  0  0  0  0  0  0  0  0  0  0
    8.1962   -4.9739   27.7340 C   0  0  0  0  0  0  0  0  0  0  0  0
    7.1943   -6.0395   25.6706 C   0  0  0  0  0  0  0  0  0  0  0  0
    9.5197   -4.8493   26.9795 C   0  0  0  0  0  0  0  0  0  0  0  0
    8.5443   -5.8838   24.9636 C   0  0  0  0  0  0  0  0  0  0  0  0
   11.0096    0.6909   23.0256 C   0  0  0  0  0  0  0  0  0  0  0  0
    9.4560    0.1560   22.8130 C   0  0  2  0  0  0  0  0  0  0  0  0
    6.7580    0.3810   17.8350 N   0  0  0  0  0  0  0  0  0  0  0  0
    9.2563   -4.7385   25.5420 N   0  0  0  0  0  0  0  0  0  0  0  0
    8.1890   -0.7180   20.8700 N   0  0  0  0  0  0  0  0  0  0  0  0
    9.2690    1.4140   20.9380 O   0  0  0  0  0  0  0  0  0  0  0  0
   13.9789    4.8720   22.0663 Cl  0  0  0  0  0  0  0  0  0  0  0  0
    3.6453    2.0152   21.6831 H   0  0  0  0  0  0  0  0  0  0  0  0
    3.0147    2.6520   19.3913 H   0  0  0  0  0  0  0  0  0  0  0  0
    9.4808    5.0171   23.8942 H   0  0  0  0  0  0  0  0  0  0  0  0
    5.6991    0.6995   22.1042 H   0  0  0  0  0  0  0  0  0  0  0  0
    9.2080    2.5596   23.8620 H   0  0  0  0  0  0  0  0  0  0  0  0
    8.9214   -0.1986   25.4206 H   0  0  0  0  0  0  0  0  0  0  0  0
   10.0622   -2.2326   21.8251 H   0  0  0  0  0  0  0  0  0  0  0  0
    4.4051    1.9733   17.4488 H   0  0  0  0  0  0  0  0  0  0  0  0
    8.6882   -2.3542   26.5803 H   0  0  0  0  0  0  0  0  0  0  0  0
    9.9258   -4.3896   22.9914 H   0  0  0  0  0  0  0  0  0  0  0  0
   11.5802    6.0484   23.1045 H   0  0  0  0  0  0  0  0  0  0  0  0
   13.1669    2.1371   22.2345 H   0  0  0  0  0  0  0  0  0  0  0  0
    8.4825   -0.7940   18.0623 H   0  0  0  0  0  0  0  0  0  0  0  0
    7.8484   -7.0905   27.4464 H   0  0  0  0  0  0  0  0  0  0  0  0
    6.3761   -6.1442   27.6721 H   0  0  0  0  0  0  0  0  0  0  0  0
    7.6308   -4.0428   27.6404 H   0  0  0  0  0  0  0  0  0  0  0  0
    8.3917   -5.1316   28.7967 H   0  0  0  0  0  0  0  0  0  0  0  0
    6.6889   -6.9376   25.3006 H   0  0  0  0  0  0  0  0  0  0  0  0
    6.5516   -5.1860   25.4256 H   0  0  0  0  0  0  0  0  0  0  0  0
   10.0494   -3.9643   27.3413 H   0  0  0  0  0  0  0  0  0  0  0  0
   10.1432   -5.7258   27.1775 H   0  0  0  0  0  0  0  0  0  0  0  0
    9.1338   -6.7931   25.0863 H   0  0  0  0  0  0  0  0  0  0  0  0
    8.3657   -5.7262   23.8995 H   0  0  0  0  0  0  0  0  0  0  0  0
   11.6022    0.2720   22.2019 H   0  0  0  0  0  0  0  0  0  0  0  0
   11.4622    0.2902   23.9433 H   0  0  0  0  0  0  0  0  0  0  0  0
    8.9292    0.9747   23.5105 H   0  0  0  0  0  0  0  0  0  0  0  0
    6.7266    0.4930   16.8305 H   0  0  0  0  0  0  0  0  0  0  0  0
    8.2585   -1.5522   21.1129 H   0  0  0  0  0  0  0  0  0  0  0  0
  1  2  1  0  0  0  0
  1  4  2  0  0  0  0
  2  8  2  0  0  0  0
  3  5  2  0  0  0  0
  3 11  1  0  0  0  0
  4 14  1  0  0  0  0
  5 16  1  0  0  0  0
  6  9  2  0  0  0  0
  6 15  1  0  0  0  0
  7 10  1  0  0  0  0
  7 15  2  0  0  0  0
  8 17  1  0  0  0  0
  9 18  1  0  0  0  0
 10 18  2  0  0  0  0
 11 20  2  0  0  0  0
 12 16  2  0  0  0  0
 12 20  1  0  0  0  0
 13 19  2  0  0  0  0
 13 29  1  0  0  0  0
 14 17  2  0  0  0  0
 14 19  1  0  0  0  0
 15 28  1  0  0  0  0
 16 27  1  0  0  0  0
 17 29  1  0  0  0  0
 18 30  1  0  0  0  0
 19 31  1  0  0  0  0
 20 33  1  0  0  0  0
 21 28  1  6  0  0  0
 21 31  1  0  0  0  0
 21 32  2  0  0  0  0
 22 23  1  0  0  0  0
 22 24  1  0  0  0  0
 23 25  1  0  0  0  0
 24 26  1  0  0  0  0
 25 30  1  0  0  0  0
 26 30  1  0  0  0  0
 27 28  1  0  0  0  0
  1 34  1  0  0  0  0
  2 35  1  0  0  0  0
  3 36  1  0  0  0  0
  4 37  1  0  0  0  0
  5 38  1  0  0  0  0
  6 39  1  0  0  0  0
  7 40  1  0  0  0  0
  8 41  1  0  0  0  0
  9 42  1  0  0  0  0
 10 43  1  0  0  0  0
 11 44  1  0  0  0  0
 12 45  1  0  0  0  0
 13 46  1  0  0  0  0
 22 47  1  0  0  0  0
 22 48  1  0  0  0  0
 23 49  1  0  0  0  0
 23 50  1  0  0  0  0
 24 51  1  0  0  0  0
 24 52  1  0  0  0  0
 25 53  1  0  0  0  0
 25 54  1  0  0  0  0
 26 55  1  0  0  0  0
 26 56  1  0  0  0  0
 27 57  1  0  0  0  0
 27 58  1  0  0  0  0
 28 59  1  0  0  0  0
 29 60  1  0  0  0  0
 31 61  1  0  0  0  0
M  END
> <clash_score>
0

> <docking_score>
-10.16466236114502

> <overlap_score>
0.9441561102867126

$$$$
BENZO_291_1
  -OEChem-08232013463D

 61 65  0     1  0  0  0  0  0999 V2000
    4.2750    1.7050   20.8490 C   0  0  0  0  0  0  0  0  0  0  0  0
    3.9160    2.0630   19.5520 C   0  0  0  0  0  0  0  0  0  0  0  0
    5.4210    0.9600   21.0930 C   0  0  0  0  0  0  0  0  0  0  0  0
    9.0720   -1.1280   24.8640 C   0  0  0  0  0  0  0  0  0  0  0  0
    9.7200   -2.2600   22.8630 C   0  0  0  0  0  0  0  0  0  0  0  0
    4.6890    1.6810   18.4640 C   0  0  0  0  0  0  0  0  0  0  0  0
    8.9960   -2.3380   25.5320 C   0  0  0  0  0  0  0  0  0  0  0  0
    9.6730   -3.4710   23.5300 C   0  0  0  0  0  0  0  0  0  0  0  0
   10.2449    3.1582   23.4786 C   0  0  0  0  0  0  0  0  0  0  0  0
   12.2661    2.9236   22.6451 C   0  0  0  0  0  0  0  0  0  0  0  0
    7.6390   -0.2680   18.5410 C   0  0  0  0  0  0  0  0  0  0  0  0
    6.1790    0.5730   19.9990 C   0  0  0  0  0  0  0  0  0  0  0  0
    9.3350   -1.0880   23.5010 C   0  0  0  0  0  0  0  0  0  0  0  0
   11.1738    2.1933   23.0450 C   0  0  0  0  0  0  0  0  0  0  0  0
    5.8300    0.9190   18.6970 C   0  0  0  0  0  0  0  0  0  0  0  0
    9.3070   -3.5340   24.8780 C   0  0  0  0  0  0  0  0  0  0  0  0
    7.3170   -0.1610   19.8550 C   0  0  0  0  0  0  0  0  0  0  0  0
    9.0420    0.3700   21.5280 C   0  0  0  0  0  0  0  0  0  0  0  0
    7.3637   -6.1365   27.1885 C   0  0  0  0  0  0  0  0  0  0  0  0
    8.1962   -4.9739   27.7340 C   0  0  0  0  0  0  0  0  0  0  0  0
    7.1943   -6.0395   25.6706 C   0  0  0  0  0  0  0  0  0  0  0  0
    9.5197   -4.8493   26.9795 C   0  0  0  0  0  0  0  0  0  0  0  0
    8.5443   -5.8838   24.9636 C   0  0  0  0  0  0  0  0  0  0  0  0
   12.7722    5.3769   22.5852 C   0  0  0  0  0  0  0  0  0  0  0  0
   11.0096    0.6909   23.0256 C   0  0  0  0  0  0  0  0  0  0  0  0
    9.4560    0.1560   22.8130 C   0  0  1  0  0  0  0  0  0  0  0  0
   10.7069    4.4063   23.3651 N   0  0  0  0  0  0  0  0  0  0  0  0
    6.7580    0.3810   17.8350 N   0  0  0  0  0  0  0  0  0  0  0  0
   11.9381    4.2306   22.8556 N   0  0  0  0  0  0  0  0  0  0  0  0
    9.2563   -4.7385   25.5420 N   0  0  0  0  0  0  0  0  0  0  0  0
    8.1890   -0.7180   20.8700 N   0  0  0  0  0  0  0  0  0  0  0  0
    9.2690    1.4140   20.9380 O   0  0  0  0  0  0  0  0  0  0  0  0
    3.6453    2.0152   21.6831 H   0  0  0  0  0  0  0  0  0  0  0  0
    3.0147    2.6520   19.3913 H   0  0  0  0  0  0  0  0  0  0  0  0
    5.6991    0.6995   22.1042 H   0  0  0  0  0  0  0  0  0  0  0  0
    8.9214   -0.1986   25.4206 H   0  0  0  0  0  0  0  0  0  0  0  0
   10.0622   -2.2326   21.8251 H   0  0  0  0  0  0  0  0  0  0  0  0
    4.4051    1.9733   17.4488 H   0  0  0  0  0  0  0  0  0  0  0  0
    8.6882   -2.3542   26.5803 H   0  0  0  0  0  0  0  0  0  0  0  0
    9.9258   -4.3896   22.9914 H   0  0  0  0  0  0  0  0  0  0  0  0
    9.2505    3.0064   23.8739 H   0  0  0  0  0  0  0  0  0  0  0  0
   13.2256    2.6317   22.2400 H   0  0  0  0  0  0  0  0  0  0  0  0
    8.4825   -0.7940   18.0623 H   0  0  0  0  0  0  0  0  0  0  0  0
    7.8484   -7.0905   27.4464 H   0  0  0  0  0  0  0  0  0  0  0  0
    6.3761   -6.1442   27.6721 H   0  0  0  0  0  0  0  0  0  0  0  0
    7.6308   -4.0428   27.6404 H   0  0  0  0  0  0  0  0  0  0  0  0
    8.3917   -5.1316   28.7967 H   0  0  0  0  0  0  0  0  0  0  0  0
    6.6889   -6.9376   25.3006 H   0  0  0  0  0  0  0  0  0  0  0  0
    6.5516   -5.1860   25.4256 H   0  0  0  0  0  0  0  0  0  0  0  0
   10.0494   -3.9643   27.3413 H   0  0  0  0  0  0  0  0  0  0  0  0
   10.1432   -5.7258   27.1775 H   0  0  0  0  0  0  0  0  0  0  0  0
    9.1338   -6.7931   25.0863 H   0  0  0  0  0  0  0  0  0  0  0  0
    8.3657   -5.7262   23.8995 H   0  0  0  0  0  0  0  0  0  0  0  0
   12.5768    5.7019   21.5598 H   0  0  0  0  0  0  0  0  0  0  0  0
   12.5325    6.1764   23.2918 H   0  0  0  0  0  0  0  0  0  0  0  0
   13.8223    5.0961   22.7049 H   0  0  0  0  0  0  0  0  0  0  0  0
   11.6022    0.2720   22.2019 H   0  0  0  0  0  0  0  0  0  0  0  0
   11.4622    0.2902   23.9433 H   0  0  0  0  0  0  0  0  0  0  0  0
    8.9292    0.9747   23.5105 H   0  0  0  0  0  0  0  0  0  0  0  0
    6.7266    0.4930   16.8305 H   0  0  0  0  0  0  0  0  0  0  0  0
    8.2585   -1.5522   21.1129 H   0  0  0  0  0  0  0  0  0  0  0  0
  1  2  1  0  0  0  0
  1  3  2  0  0  0  0
  2  6  2  0  0  0  0
  3 12  1  0  0  0  0
  4  7  2  0  0  0  0
  4 13  1  0  0  0  0
  5  8  1  0  0  0  0
  5 13  2  0  0  0  0
  6 15  1  0  0  0  0
  7 16  1  0  0  0  0
  8 16  2  0  0  0  0
  9 14  1  0  0  0  0
  9 27  2  0  0  0  0
 10 14  2  0  0  0  0
 10 29  1  0  0  0  0
 11 17  2  0  0  0  0
 11 28  1  0  0  0  0
 12 15  2  0  0  0  0
 12 17  1  0  0  0  0
 13 26  1  0  0  0  0
 14 25  1  0  0  0  0
 15 28  1  0  0  0  0
 16 30  1  0  0  0  0
 17 31  1  0  0  0  0
 18 26  1  0  0  0  0
 18 31  1  0  0  0  0
 18 32  2  0  0  0  0
 19 20  1  0  0  0  0
 19 21  1  0  0  0  0
 20 22  1  0  0  0  0
 21 23  1  0  0  0  0
 22 30  1  0  0  0  0
 23 30  1  0  0  0  0
 24 29  1  0  0  0  0
 25 26  1  1  0  0  0
 27 29  1  0  0  0  0
  1 33  1  0  0  0  0
  2 34  1  0  0  0  0
  3 35  1  0  0  0  0
  4 36  1  0  0  0  0
  5 37  1  0  0  0  0
  6 38  1  0  0  0  0
  7 39  1  0  0  0  0
  8 40  1  0  0  0  0
  9 41  1  0  0  0  0
 10 42  1  0  0  0  0
 11 43  1  0  0  0  0
 19 44  1  0  0  0  0
 19 45  1  0  0  0  0
 20 46  1  0  0  0  0
 20 47  1  0  0  0  0
 21 48  1  0  0  0  0
 21 49  1  0  0  0  0
 22 50  1  0  0  0  0
 22 51  1  0  0  0  0
 23 52  1  0  0  0  0
 23 53  1  0  0  0  0
 24 54  1  0  0  0  0
 24 55  1  0  0  0  0
 24 56  1  0  0  0  0
 25 57  1  0  0  0  0
 25 58  1  0  0  0  0
 26 59  1  0  0  0  0
 28 60  1  0  0  0  0
 31 61  1  0  0  0  0
M  END
> <clash_score>
0

> <docking_score>
-9.638818740844727

> <overlap_score>
0.9394319653511047

$$$$
BENZO_294_1
  -OEChem-08232013463D

 49 52  0     1  0  0  0  0  0999 V2000
    4.2750    1.7050   20.8490 C   0  0  0  0  0  0  0  0  0  0  0  0
    3.9160    2.0630   19.5520 C   0  0  0  0  0  0  0  0  0  0  0  0
   10.2856    4.3750   23.5656 C   0  0  0  0  0  0  0  0  0  0  0  0
    5.4210    0.9600   21.0930 C   0  0  0  0  0  0  0  0  0  0  0  0
   10.1350    2.9887   23.5349 C   0  0  0  0  0  0  0  0  0  0  0  0
    8.9960   -2.3380   25.5320 C   0  0  0  0  0  0  0  0  0  0  0  0
    9.6730   -3.4710   23.5300 C   0  0  0  0  0  0  0  0  0  0  0  0
    9.0720   -1.1280   24.8640 C   0  0  0  0  0  0  0  0  0  0  0  0
    9.7200   -2.2600   22.8630 C   0  0  0  0  0  0  0  0  0  0  0  0
    4.6890    1.6810   18.4640 C   0  0  0  0  0  0  0  0  0  0  0  0
   11.4735    4.9575   23.1236 C   0  0  0  0  0  0  0  0  0  0  0  0
   12.3603    2.7672   22.6205 C   0  0  0  0  0  0  0  0  0  0  0  0
    7.6390   -0.2680   18.5410 C   0  0  0  0  0  0  0  0  0  0  0  0
    6.1790    0.5730   19.9990 C   0  0  0  0  0  0  0  0  0  0  0  0
    9.3070   -3.5340   24.8780 C   0  0  0  0  0  0  0  0  0  0  0  0
    9.3350   -1.0880   23.5010 C   0  0  0  0  0  0  0  0  0  0  0  0
   11.1723    2.1848   23.0624 C   0  0  0  0  0  0  0  0  0  0  0  0
    5.8300    0.9190   18.6970 C   0  0  0  0  0  0  0  0  0  0  0  0
    7.3170   -0.1610   19.8550 C   0  0  0  0  0  0  0  0  0  0  0  0
   12.5108    4.1536   22.6511 C   0  0  0  0  0  0  0  0  0  0  0  0
    9.0420    0.3700   21.5280 C   0  0  0  0  0  0  0  0  0  0  0  0
    9.2507   -4.8268   25.5895 C   0  0  0  0  0  0  0  0  0  0  0  0
   11.0089    0.6825   23.0307 C   0  0  0  0  0  0  0  0  0  0  0  0
    9.4560    0.1560   22.8130 C   0  0  1  0  0  0  0  0  0  0  0  0
    6.7580    0.3810   17.8350 N   0  0  0  0  0  0  0  0  0  0  0  0
    8.1890   -0.7180   20.8700 N   0  0  0  0  0  0  0  0  0  0  0  0
    9.2690    1.4140   20.9380 O   0  0  0  0  0  0  0  0  0  0  0  0
   13.9766    4.8727   22.1070 Cl  0  0  0  0  0  0  0  0  0  0  0  0
    3.6453    2.0152   21.6831 H   0  0  0  0  0  0  0  0  0  0  0  0
    3.0147    2.6520   19.3913 H   0  0  0  0  0  0  0  0  0  0  0  0
    9.4776    5.0007   23.9337 H   0  0  0  0  0  0  0  0  0  0  0  0
    5.6991    0.6995   22.1042 H   0  0  0  0  0  0  0  0  0  0  0  0
    9.2060    2.5434   23.8814 H   0  0  0  0  0  0  0  0  0  0  0  0
    8.6904   -2.3557   26.5808 H   0  0  0  0  0  0  0  0  0  0  0  0
    9.9249   -4.3911   22.9935 H   0  0  0  0  0  0  0  0  0  0  0  0
    8.9209   -0.1987   25.4207 H   0  0  0  0  0  0  0  0  0  0  0  0
   10.0640   -2.2315   21.8255 H   0  0  0  0  0  0  0  0  0  0  0  0
    4.4051    1.9733   17.4488 H   0  0  0  0  0  0  0  0  0  0  0  0
   11.5769    6.0394   23.1535 H   0  0  0  0  0  0  0  0  0  0  0  0
   13.1659    2.1361   22.2525 H   0  0  0  0  0  0  0  0  0  0  0  0
    8.4825   -0.7940   18.0623 H   0  0  0  0  0  0  0  0  0  0  0  0
    8.2506   -5.2684   25.5009 H   0  0  0  0  0  0  0  0  0  0  0  0
    9.9820   -5.5375   25.1832 H   0  0  0  0  0  0  0  0  0  0  0  0
    9.4843   -4.7055   26.6554 H   0  0  0  0  0  0  0  0  0  0  0  0
   11.6011    0.2707   22.2030 H   0  0  0  0  0  0  0  0  0  0  0  0
   11.4624    0.2744   23.9446 H   0  0  0  0  0  0  0  0  0  0  0  0
    8.9284    0.9668   23.5149 H   0  0  0  0  0  0  0  0  0  0  0  0
    6.7266    0.4930   16.8305 H   0  0  0  0  0  0  0  0  0  0  0  0
    8.2408   -1.5631   21.0968 H   0  0  0  0  0  0  0  0  0  0  0  0
  1  2  1  0  0  0  0
  1  4  2  0  0  0  0
  2 10  2  0  0  0  0
  3  5  2  0  0  0  0
  3 11  1  0  0  0  0
  4 14  1  0  0  0  0
  5 17  1  0  0  0  0
  6  8  2  0  0  0  0
  6 15  1  0  0  0  0
  7  9  1  0  0  0  0
  7 15  2  0  0  0  0
  8 16  1  0  0  0  0
  9 16  2  0  0  0  0
 10 18  1  0  0  0  0
 11 20  2  0  0  0  0
 12 17  2  0  0  0  0
 12 20  1  0  0  0  0
 13 19  2  0  0  0  0
 13 25  1  0  0  0  0
 14 18  2  0  0  0  0
 14 19  1  0  0  0  0
 15 22  1  0  0  0  0
 16 24  1  0  0  0  0
 17 23  1  0  0  0  0
 18 25  1  0  0  0  0
 19 26  1  0  0  0  0
 20 28  1  0  0  0  0
 21 24  1  0  0  0  0
 21 26  1  0  0  0  0
 21 27  2  0  0  0  0
 23 24  1  1  0  0  0
  1 29  1  0  0  0  0
  2 30  1  0  0  0  0
  3 31  1  0  0  0  0
  4 32  1  0  0  0  0
  5 33  1  0  0  0  0
  6 34  1  0  0  0  0
  7 35  1  0  0  0  0
  8 36  1  0  0  0  0
  9 37  1  0  0  0  0
 10 38  1  0  0  0  0
 11 39  1  0  0  0  0
 12 40  1  0  0  0  0
 13 41  1  0  0  0  0
 22 42  1  0  0  0  0
 22 43  1  0  0  0  0
 22 44  1  0  0  0  0
 23 45  1  0  0  0  0
 23 46  1  0  0  0  0
 24 47  1  0  0  0  0
 25 48  1  0  0  0  0
 26 49  1  0  0  0  0
M  END
> <clash_score>
0

> <docking_score>
-10.485058784484863

> <overlap_score>
0.8907982110977173

$$$$
BENZO_294_2
  -OEChem-08232013463D

 49 52  0     1  0  0  0  0  0999 V2000
    4.2750    1.7050   20.8490 C   0  0  0  0  0  0  0  0  0  0  0  0
    3.9160    2.0630   19.5520 C   0  0  0  0  0  0  0  0  0  0  0  0
    8.4741    5.0874   23.4171 C   0  0  0  0  0  0  0  0  0  0  0  0
    5.4210    0.9600   21.0930 C   0  0  0  0  0  0  0  0  0  0  0  0
    8.2342    3.7639   23.7862 C   0  0  0  0  0  0  0  0  0  0  0  0
    8.9960   -2.3380   25.5320 C   0  0  0  0  0  0  0  0  0  0  0  0
    9.6730   -3.4710   23.5300 C   0  0  0  0  0  0  0  0  0  0  0  0
    9.0720   -1.1280   24.8640 C   0  0  0  0  0  0  0  0  0  0  0  0
    9.7200   -2.2600   22.8630 C   0  0  0  0  0  0  0  0  0  0  0  0
    4.6890    1.6810   18.4640 C   0  0  0  0  0  0  0  0  0  0  0  0
    9.6155    5.4109   22.6835 C   0  0  0  0  0  0  0  0  0  0  0  0
   10.2772    3.0873   22.6883 C   0  0  0  0  0  0  0  0  0  0  0  0
    7.6390   -0.2680   18.5410 C   0  0  0  0  0  0  0  0  0  0  0  0
    6.1790    0.5730   19.9990 C   0  0  0  0  0  0  0  0  0  0  0  0
    9.3070   -3.5340   24.8780 C   0  0  0  0  0  0  0  0  0  0  0  0
    9.3350   -1.0880   23.5010 C   0  0  0  0  0  0  0  0  0  0  0  0
    9.1357    2.7638   23.4219 C   0  0  0  0  0  0  0  0  0  0  0  0
    5.8300    0.9190   18.6970 C   0  0  0  0  0  0  0  0  0  0  0  0
    7.3170   -0.1610   19.8550 C   0  0  0  0  0  0  0  0  0  0  0  0
   10.5171    4.4109   22.3191 C   0  0  0  0  0  0  0  0  0  0  0  0
    9.0420    0.3700   21.5280 C   0  0  0  0  0  0  0  0  0  0  0  0
    9.2507   -4.8268   25.5895 C   0  0  0  0  0  0  0  0  0  0  0  0
    8.8757    1.3301   23.8233 C   0  0  0  0  0  0  0  0  0  0  0  0
    9.4560    0.1560   22.8130 C   0  0  2  0  0  0  0  0  0  0  0  0
    6.7580    0.3810   17.8350 N   0  0  0  0  0  0  0  0  0  0  0  0
    8.1890   -0.7180   20.8700 N   0  0  0  0  0  0  0  0  0  0  0  0
    9.2690    1.4140   20.9380 O   0  0  0  0  0  0  0  0  0  0  0  0
   11.9257    4.8108   21.4150 Cl  0  0  0  0  0  0  0  0  0  0  0  0
    3.6453    2.0152   21.6831 H   0  0  0  0  0  0  0  0  0  0  0  0
    3.0147    2.6520   19.3913 H   0  0  0  0  0  0  0  0  0  0  0  0
    7.7719    5.8659   23.7012 H   0  0  0  0  0  0  0  0  0  0  0  0
    5.6991    0.6995   22.1042 H   0  0  0  0  0  0  0  0  0  0  0  0
    7.3423    3.5209   24.3579 H   0  0  0  0  0  0  0  0  0  0  0  0
    8.6904   -2.3557   26.5808 H   0  0  0  0  0  0  0  0  0  0  0  0
    9.9249   -4.3911   22.9935 H   0  0  0  0  0  0  0  0  0  0  0  0
    8.9209   -0.1987   25.4207 H   0  0  0  0  0  0  0  0  0  0  0  0
   10.0640   -2.2315   21.8255 H   0  0  0  0  0  0  0  0  0  0  0  0
    4.4051    1.9733   17.4488 H   0  0  0  0  0  0  0  0  0  0  0  0
    9.7898    6.4468   22.4029 H   0  0  0  0  0  0  0  0  0  0  0  0
   10.9768    2.3039   22.4061 H   0  0  0  0  0  0  0  0  0  0  0  0
    8.4825   -0.7940   18.0623 H   0  0  0  0  0  0  0  0  0  0  0  0
    8.2506   -5.2684   25.5009 H   0  0  0  0  0  0  0  0  0  0  0  0
    9.9820   -5.5375   25.1832 H   0  0  0  0  0  0  0  0  0  0  0  0
    9.4843   -4.7055   26.6554 H   0  0  0  0  0  0  0  0  0  0  0  0
    9.2390    1.1684   24.8466 H   0  0  0  0  0  0  0  0  0  0  0  0
    7.7875    1.1860   23.8742 H   0  0  0  0  0  0  0  0  0  0  0  0
   10.6103    0.4565   22.8881 H   0  0  0  0  0  0  0  0  0  0  0  0
    6.7266    0.4930   16.8305 H   0  0  0  0  0  0  0  0  0  0  0  0
    8.2408   -1.5631   21.0968 H   0  0  0  0  0  0  0  0  0  0  0  0
  1  2  1  0  0  0  0
  1  4  2  0  0  0  0
  2 10  2  0  0  0  0
  3  5  2  0  0  0  0
  3 11  1  0  0  0  0
  4 14  1  0  0  0  0
  5 17  1  0  0  0  0
  6  8  2  0  0  0  0
  6 15  1  0  0  0  0
  7  9  1  0  0  0  0
  7 15  2  0  0  0  0
  8 16  1  0  0  0  0
  9 16  2  0  0  0  0
 10 18  1  0  0  0  0
 11 20  2  0  0  0  0
 12 17  2  0  0  0  0
 12 20  1  0  0  0  0
 13 19  2  0  0  0  0
 13 25  1  0  0  0  0
 14 18  2  0  0  0  0
 14 19  1  0  0  0  0
 15 22  1  0  0  0  0
 16 24  1  0  0  0  0
 17 23  1  0  0  0  0
 18 25  1  0  0  0  0
 19 26  1  0  0  0  0
 20 28  1  0  0  0  0
 21 24  1  0  0  0  0
 21 26  1  0  0  0  0
 21 27  2  0  0  0  0
 23 24  1  6  0  0  0
  1 29  1  0  0  0  0
  2 30  1  0  0  0  0
  3 31  1  0  0  0  0
  4 32  1  0  0  0  0
  5 33  1  0  0  0  0
  6 34  1  0  0  0  0
  7 35  1  0  0  0  0
  8 36  1  0  0  0  0
  9 37  1  0  0  0  0
 10 38  1  0  0  0  0
 11 39  1  0  0  0  0
 12 40  1  0  0  0  0
 13 41  1  0  0  0  0
 22 42  1  0  0  0  0
 22 43  1  0  0  0  0
 22 44  1  0  0  0  0
 23 45  1  0  0  0  0
 23 46  1  0  0  0  0
 24 47  1  0  0  0  0
 25 48  1  0  0  0  0
 26 49  1  0  0  0  0
M  END
> <clash_score>
0

> <docking_score>
-5.930401802062988

> <overlap_score>
0.8013743162155151

$$$$
BENZO_295_2
  -OEChem-08232013463D

 49 52  0     1  0  0  0  0  0999 V2000
    4.2750    1.7050   20.8490 C   0  0  0  0  0  0  0  0  0  0  0  0
    3.9160    2.0630   19.5520 C   0  0  0  0  0  0  0  0  0  0  0  0
    5.4210    0.9600   21.0930 C   0  0  0  0  0  0  0  0  0  0  0  0
    8.9960   -2.3380   25.5320 C   0  0  0  0  0  0  0  0  0  0  0  0
    9.6730   -3.4710   23.5300 C   0  0  0  0  0  0  0  0  0  0  0  0
    9.0720   -1.1280   24.8640 C   0  0  0  0  0  0  0  0  0  0  0  0
    9.7200   -2.2600   22.8630 C   0  0  0  0  0  0  0  0  0  0  0  0
    4.6890    1.6810   18.4640 C   0  0  0  0  0  0  0  0  0  0  0  0
    8.3456    3.8954   23.6994 C   0  0  0  0  0  0  0  0  0  0  0  0
   10.1996    3.2552   22.7054 C   0  0  0  0  0  0  0  0  0  0  0  0
    7.6390   -0.2680   18.5410 C   0  0  0  0  0  0  0  0  0  0  0  0
    6.1790    0.5730   19.9990 C   0  0  0  0  0  0  0  0  0  0  0  0
    9.3070   -3.5340   24.8780 C   0  0  0  0  0  0  0  0  0  0  0  0
    9.3350   -1.0880   23.5010 C   0  0  0  0  0  0  0  0  0  0  0  0
    9.1357    2.7638   23.4219 C   0  0  0  0  0  0  0  0  0  0  0  0
    5.8300    0.9190   18.6970 C   0  0  0  0  0  0  0  0  0  0  0  0
    7.3170   -0.1610   19.8550 C   0  0  0  0  0  0  0  0  0  0  0  0
    9.0420    0.3700   21.5280 C   0  0  0  0  0  0  0  0  0  0  0  0
    9.2507   -4.8268   25.5895 C   0  0  0  0  0  0  0  0  0  0  0  0
   10.8452    5.5494   21.9318 C   0  0  0  0  0  0  0  0  0  0  0  0
    8.8757    1.3301   23.8233 C   0  0  0  0  0  0  0  0  0  0  0  0
    9.4560    0.1560   22.8130 C   0  0  2  0  0  0  0  0  0  0  0  0
    8.8634    5.0209   23.2001 N   0  0  0  0  0  0  0  0  0  0  0  0
    6.7580    0.3810   17.8350 N   0  0  0  0  0  0  0  0  0  0  0  0
    9.9903    4.5990   22.6017 N   0  0  0  0  0  0  0  0  0  0  0  0
    8.1890   -0.7180   20.8700 N   0  0  0  0  0  0  0  0  0  0  0  0
    9.2690    1.4140   20.9380 O   0  0  0  0  0  0  0  0  0  0  0  0
    3.6453    2.0152   21.6831 H   0  0  0  0  0  0  0  0  0  0  0  0
    3.0147    2.6520   19.3913 H   0  0  0  0  0  0  0  0  0  0  0  0
    5.6991    0.6995   22.1042 H   0  0  0  0  0  0  0  0  0  0  0  0
    8.6904   -2.3557   26.5808 H   0  0  0  0  0  0  0  0  0  0  0  0
    9.9249   -4.3911   22.9935 H   0  0  0  0  0  0  0  0  0  0  0  0
    8.9209   -0.1987   25.4207 H   0  0  0  0  0  0  0  0  0  0  0  0
   10.0640   -2.2315   21.8255 H   0  0  0  0  0  0  0  0  0  0  0  0
    4.4051    1.9733   17.4488 H   0  0  0  0  0  0  0  0  0  0  0  0
    7.4142    3.9495   24.2451 H   0  0  0  0  0  0  0  0  0  0  0  0
   11.0668    2.7753   22.2725 H   0  0  0  0  0  0  0  0  0  0  0  0
    8.4825   -0.7940   18.0623 H   0  0  0  0  0  0  0  0  0  0  0  0
    8.2506   -5.2684   25.5009 H   0  0  0  0  0  0  0  0  0  0  0  0
    9.9820   -5.5375   25.1832 H   0  0  0  0  0  0  0  0  0  0  0  0
    9.4843   -4.7055   26.6554 H   0  0  0  0  0  0  0  0  0  0  0  0
   10.5189    5.6214   20.8909 H   0  0  0  0  0  0  0  0  0  0  0  0
   10.7656    6.5219   22.4255 H   0  0  0  0  0  0  0  0  0  0  0  0
   11.8814    5.2042   21.9858 H   0  0  0  0  0  0  0  0  0  0  0  0
    9.2390    1.1684   24.8466 H   0  0  0  0  0  0  0  0  0  0  0  0
    7.7875    1.1860   23.8742 H   0  0  0  0  0  0  0  0  0  0  0  0
   10.6103    0.4565   22.8881 H   0  0  0  0  0  0  0  0  0  0  0  0
    6.7266    0.4930   16.8305 H   0  0  0  0  0  0  0  0  0  0  0  0
    8.2408   -1.5631   21.0968 H   0  0  0  0  0  0  0  0  0  0  0  0
  1  2  1  0  0  0  0
  1  3  2  0  0  0  0
  2  8  2  0  0  0  0
  3 12  1  0  0  0  0
  4  6  2  0  0  0  0
  4 13  1  0  0  0  0
  5  7  1  0  0  0  0
  5 13  2  0  0  0  0
  6 14  1  0  0  0  0
  7 14  2  0  0  0  0
  8 16  1  0  0  0  0
  9 15  1  0  0  0  0
  9 23  2  0  0  0  0
 10 15  2  0  0  0  0
 10 25  1  0  0  0  0
 11 17  2  0  0  0  0
 11 24  1  0  0  0  0
 12 16  2  0  0  0  0
 12 17  1  0  0  0  0
 13 19  1  0  0  0  0
 14 22  1  0  0  0  0
 15 21  1  0  0  0  0
 16 24  1  0  0  0  0
 17 26  1  0  0  0  0
 18 22  1  0  0  0  0
 18 26  1  0  0  0  0
 18 27  2  0  0  0  0
 20 25  1  0  0  0  0
 21 22  1  6  0  0  0
 23 25  1  0  0  0  0
  1 28  1  0  0  0  0
  2 29  1  0  0  0  0
  3 30  1  0  0  0  0
  4 31  1  0  0  0  0
  5 32  1  0  0  0  0
  6 33  1  0  0  0  0
  7 34  1  0  0  0  0
  8 35  1  0  0  0  0
  9 36  1  0  0  0  0
 10 37  1  0  0  0  0
 11 38  1  0  0  0  0
 19 39  1  0  0  0  0
 19 40  1  0  0  0  0
 19 41  1  0  0  0  0
 20 42  1  0  0  0  0
 20 43  1  0  0  0  0
 20 44  1  0  0  0  0
 21 45  1  0  0  0  0
 21 46  1  0  0  0  0
 22 47  1  0  0  0  0
 24 48  1  0  0  0  0
 26 49  1  0  0  0  0
M  END
> <clash_score>
0.6141445834656358

> <docking_score>
-6.210681915283203

> <overlap_score>
0.7964432239532471

$$$$
BENZO_295_1
  -OEChem-08232013463D

 49 52  0     1  0  0  0  0  0999 V2000
    4.2750    1.7050   20.8490 C   0  0  0  0  0  0  0  0  0  0  0  0
    3.9160    2.0630   19.5520 C   0  0  0  0  0  0  0  0  0  0  0  0
    5.4210    0.9600   21.0930 C   0  0  0  0  0  0  0  0  0  0  0  0
    8.9960   -2.3380   25.5320 C   0  0  0  0  0  0  0  0  0  0  0  0
    9.6730   -3.4710   23.5300 C   0  0  0  0  0  0  0  0  0  0  0  0
    9.0720   -1.1280   24.8640 C   0  0  0  0  0  0  0  0  0  0  0  0
    9.7200   -2.2600   22.8630 C   0  0  0  0  0  0  0  0  0  0  0  0
    4.6890    1.6810   18.4640 C   0  0  0  0  0  0  0  0  0  0  0  0
   10.2428    3.1456   23.5034 C   0  0  0  0  0  0  0  0  0  0  0  0
   12.2645    2.9188   22.6690 C   0  0  0  0  0  0  0  0  0  0  0  0
    7.6390   -0.2680   18.5410 C   0  0  0  0  0  0  0  0  0  0  0  0
    6.1790    0.5730   19.9990 C   0  0  0  0  0  0  0  0  0  0  0  0
    9.3070   -3.5340   24.8780 C   0  0  0  0  0  0  0  0  0  0  0  0
    9.3350   -1.0880   23.5010 C   0  0  0  0  0  0  0  0  0  0  0  0
   11.1723    2.1848   23.0624 C   0  0  0  0  0  0  0  0  0  0  0  0
    5.8300    0.9190   18.6970 C   0  0  0  0  0  0  0  0  0  0  0  0
    7.3170   -0.1610   19.8550 C   0  0  0  0  0  0  0  0  0  0  0  0
    9.0420    0.3700   21.5280 C   0  0  0  0  0  0  0  0  0  0  0  0
    9.2507   -4.8268   25.5895 C   0  0  0  0  0  0  0  0  0  0  0  0
   12.7694    5.3728   22.6294 C   0  0  0  0  0  0  0  0  0  0  0  0
   11.0089    0.6825   23.0307 C   0  0  0  0  0  0  0  0  0  0  0  0
    9.4560    0.1560   22.8130 C   0  0  1  0  0  0  0  0  0  0  0  0
   10.7043    4.3948   23.4002 N   0  0  0  0  0  0  0  0  0  0  0  0
    6.7580    0.3810   17.8350 N   0  0  0  0  0  0  0  0  0  0  0  0
   11.9358    4.2239   22.8900 N   0  0  0  0  0  0  0  0  0  0  0  0
    8.1890   -0.7180   20.8700 N   0  0  0  0  0  0  0  0  0  0  0  0
    9.2690    1.4140   20.9380 O   0  0  0  0  0  0  0  0  0  0  0  0
    3.6453    2.0152   21.6831 H   0  0  0  0  0  0  0  0  0  0  0  0
    3.0147    2.6520   19.3913 H   0  0  0  0  0  0  0  0  0  0  0  0
    5.6991    0.6995   22.1042 H   0  0  0  0  0  0  0  0  0  0  0  0
    8.6904   -2.3557   26.5808 H   0  0  0  0  0  0  0  0  0  0  0  0
    9.9249   -4.3911   22.9935 H   0  0  0  0  0  0  0  0  0  0  0  0
    8.9209   -0.1987   25.4207 H   0  0  0  0  0  0  0  0  0  0  0  0
   10.0640   -2.2315   21.8255 H   0  0  0  0  0  0  0  0  0  0  0  0
    4.4051    1.9733   17.4488 H   0  0  0  0  0  0  0  0  0  0  0  0
    9.2482    2.9901   23.8969 H   0  0  0  0  0  0  0  0  0  0  0  0
   13.2243    2.6307   22.2620 H   0  0  0  0  0  0  0  0  0  0  0  0
    8.4825   -0.7940   18.0623 H   0  0  0  0  0  0  0  0  0  0  0  0
    8.2506   -5.2684   25.5009 H   0  0  0  0  0  0  0  0  0  0  0  0
    9.9820   -5.5375   25.1832 H   0  0  0  0  0  0  0  0  0  0  0  0
    9.4843   -4.7055   26.6554 H   0  0  0  0  0  0  0  0  0  0  0  0
   12.5744    5.7060   21.6066 H   0  0  0  0  0  0  0  0  0  0  0  0
   12.5290    6.1664   23.3423 H   0  0  0  0  0  0  0  0  0  0  0  0
   13.8196    5.0915   22.7473 H   0  0  0  0  0  0  0  0  0  0  0  0
   11.6011    0.2707   22.2030 H   0  0  0  0  0  0  0  0  0  0  0  0
   11.4624    0.2744   23.9446 H   0  0  0  0  0  0  0  0  0  0  0  0
    8.9284    0.9668   23.5149 H   0  0  0  0  0  0  0  0  0  0  0  0
    6.7266    0.4930   16.8305 H   0  0  0  0  0  0  0  0  0  0  0  0
    8.2408   -1.5631   21.0968 H   0  0  0  0  0  0  0  0  0  0  0  0
  1  2  1  0  0  0  0
  1  3  2  0  0  0  0
  2  8  2  0  0  0  0
  3 12  1  0  0  0  0
  4  6  2  0  0  0  0
  4 13  1  0  0  0  0
  5  7  1  0  0  0  0
  5 13  2  0  0  0  0
  6 14  1  0  0  0  0
  7 14  2  0  0  0  0
  8 16  1  0  0  0  0
  9 15  1  0  0  0  0
  9 23  2  0  0  0  0
 10 15  2  0  0  0  0
 10 25  1  0  0  0  0
 11 17  2  0  0  0  0
 11 24  1  0  0  0  0
 12 16  2  0  0  0  0
 12 17  1  0  0  0  0
 13 19  1  0  0  0  0
 14 22  1  0  0  0  0
 15 21  1  0  0  0  0
 16 24  1  0  0  0  0
 17 26  1  0  0  0  0
 18 22  1  0  0  0  0
 18 26  1  0  0  0  0
 18 27  2  0  0  0  0
 20 25  1  0  0  0  0
 21 22  1  1  0  0  0
 23 25  1  0  0  0  0
  1 28  1  0  0  0  0
  2 29  1  0  0  0  0
  3 30  1  0  0  0  0
  4 31  1  0  0  0  0
  5 32  1  0  0  0  0
  6 33  1  0  0  0  0
  7 34  1  0  0  0  0
  8 35  1  0  0  0  0
  9 36  1  0  0  0  0
 10 37  1  0  0  0  0
 11 38  1  0  0  0  0
 19 39  1  0  0  0  0
 19 40  1  0  0  0  0
 19 41  1  0  0  0  0
 20 42  1  0  0  0  0
 20 43  1  0  0  0  0
 20 44  1  0  0  0  0
 21 45  1  0  0  0  0
 21 46  1  0  0  0  0
 22 47  1  0  0  0  0
 24 48  1  0  0  0  0
 26 49  1  0  0  0  0
M  END
> <clash_score>
0

> <docking_score>
-9.947749137878418

> <overlap_score>
0.8858461976051331

$$$$
BENZO_296_1
  -OEChem-08232013463D

 47 50  0     1  0  0  0  0  0999 V2000
    4.2750    1.7050   20.8490 C   0  0  0  0  0  0  0  0  0  0  0  0
    3.9160    2.0630   19.5520 C   0  0  0  0  0  0  0  0  0  0  0  0
    5.4210    0.9600   21.0930 C   0  0  0  0  0  0  0  0  0  0  0  0
    9.0720   -1.1280   24.8640 C   0  0  0  0  0  0  0  0  0  0  0  0
    9.7200   -2.2600   22.8630 C   0  0  0  0  0  0  0  0  0  0  0  0
    4.6890    1.6810   18.4640 C   0  0  0  0  0  0  0  0  0  0  0  0
    8.9960   -2.3380   25.5320 C   0  0  0  0  0  0  0  0  0  0  0  0
    9.6730   -3.4710   23.5300 C   0  0  0  0  0  0  0  0  0  0  0  0
   11.9789    2.9159   22.1431 C   0  0  0  0  0  0  0  0  0  0  0  0
    7.6390   -0.2680   18.5410 C   0  0  0  0  0  0  0  0  0  0  0  0
   11.9531    4.2698   22.3953 C   0  0  0  0  0  0  0  0  0  0  0  0
   10.5610    3.0079   23.9825 C   0  0  0  0  0  0  0  0  0  0  0  0
    6.1790    0.5730   19.9990 C   0  0  0  0  0  0  0  0  0  0  0  0
    9.3350   -1.0880   23.5010 C   0  0  0  0  0  0  0  0  0  0  0  0
   11.1723    2.1848   23.0624 C   0  0  0  0  0  0  0  0  0  0  0  0
    5.8300    0.9190   18.6970 C   0  0  0  0  0  0  0  0  0  0  0  0
    7.3170   -0.1610   19.8550 C   0  0  0  0  0  0  0  0  0  0  0  0
    9.3070   -3.5340   24.8780 C   0  0  0  0  0  0  0  0  0  0  0  0
    9.0420    0.3700   21.5280 C   0  0  0  0  0  0  0  0  0  0  0  0
    9.5904   -5.8808   24.7807 C   0  0  0  0  0  0  0  0  0  0  0  0
   11.0089    0.6825   23.0307 C   0  0  0  0  0  0  0  0  0  0  0  0
    9.4560    0.1560   22.8130 C   0  0  1  0  0  0  0  0  0  0  0  0
    6.7580    0.3810   17.8350 N   0  0  0  0  0  0  0  0  0  0  0  0
    8.1890   -0.7180   20.8700 N   0  0  0  0  0  0  0  0  0  0  0  0
    9.2690    1.4140   20.9380 O   0  0  0  0  0  0  0  0  0  0  0  0
    9.2567   -4.7121   25.5280 O   0  0  0  0  0  0  0  0  0  0  0  0
   10.9597    4.6549   23.7359 S   0  0  0  0  0  0  0  0  0  0  0  0
    3.6453    2.0152   21.6831 H   0  0  0  0  0  0  0  0  0  0  0  0
    3.0147    2.6520   19.3913 H   0  0  0  0  0  0  0  0  0  0  0  0
    5.6991    0.6995   22.1042 H   0  0  0  0  0  0  0  0  0  0  0  0
    8.9224   -0.1986   25.4209 H   0  0  0  0  0  0  0  0  0  0  0  0
   10.0638   -2.2321   21.8253 H   0  0  0  0  0  0  0  0  0  0  0  0
    4.4051    1.9733   17.4488 H   0  0  0  0  0  0  0  0  0  0  0  0
    8.6903   -2.3588   26.5807 H   0  0  0  0  0  0  0  0  0  0  0  0
    9.9258   -4.3917   22.9962 H   0  0  0  0  0  0  0  0  0  0  0  0
   12.5509    2.4750   21.3365 H   0  0  0  0  0  0  0  0  0  0  0  0
    8.4825   -0.7940   18.0623 H   0  0  0  0  0  0  0  0  0  0  0  0
   12.4707    5.0513   21.8570 H   0  0  0  0  0  0  0  0  0  0  0  0
    9.8997    2.7250   24.7898 H   0  0  0  0  0  0  0  0  0  0  0  0
    9.5095   -6.7607   25.4235 H   0  0  0  0  0  0  0  0  0  0  0  0
   10.6094   -5.7898   24.3961 H   0  0  0  0  0  0  0  0  0  0  0  0
    8.8947   -5.9784   23.9439 H   0  0  0  0  0  0  0  0  0  0  0  0
   11.6011    0.2707   22.2030 H   0  0  0  0  0  0  0  0  0  0  0  0
   11.4624    0.2744   23.9446 H   0  0  0  0  0  0  0  0  0  0  0  0
    8.9284    0.9668   23.5149 H   0  0  0  0  0  0  0  0  0  0  0  0
    6.7266    0.4930   16.8305 H   0  0  0  0  0  0  0  0  0  0  0  0
    8.2408   -1.5631   21.0968 H   0  0  0  0  0  0  0  0  0  0  0  0
  1  2  1  0  0  0  0
  1  3  2  0  0  0  0
  2  6  2  0  0  0  0
  3 13  1  0  0  0  0
  4  7  2  0  0  0  0
  4 14  1  0  0  0  0
  5  8  1  0  0  0  0
  5 14  2  0  0  0  0
  6 16  1  0  0  0  0
  7 18  1  0  0  0  0
  8 18  2  0  0  0  0
  9 11  2  0  0  0  0
  9 15  1  0  0  0  0
 10 17  2  0  0  0  0
 10 23  1  0  0  0  0
 11 27  1  0  0  0  0
 12 15  2  0  0  0  0
 12 27  1  0  0  0  0
 13 16  2  0  0  0  0
 13 17  1  0  0  0  0
 14 22  1  0  0  0  0
 15 21  1  0  0  0  0
 16 23  1  0  0  0  0
 17 24  1  0  0  0  0
 18 26  1  0  0  0  0
 19 22  1  0  0  0  0
 19 24  1  0  0  0  0
 19 25  2  0  0  0  0
 20 26  1  0  0  0  0
 21 22  1  1  0  0  0
  1 28  1  0  0  0  0
  2 29  1  0  0  0  0
  3 30  1  0  0  0  0
  4 31  1  0  0  0  0
  5 32  1  0  0  0  0
  6 33  1  0  0  0  0
  7 34  1  0  0  0  0
  8 35  1  0  0  0  0
  9 36  1  0  0  0  0
 10 37  1  0  0  0  0
 11 38  1  0  0  0  0
 12 39  1  0  0  0  0
 20 40  1  0  0  0  0
 20 41  1  0  0  0  0
 20 42  1  0  0  0  0
 21 43  1  0  0  0  0
 21 44  1  0  0  0  0
 22 45  1  0  0  0  0
 23 46  1  0  0  0  0
 24 47  1  0  0  0  0
M  END
> <clash_score>
0

> <docking_score>
-8.790185928344727

> <overlap_score>
0.901969850063324

$$$$
BENZO_297_1
  -OEChem-08232013463D

 50 53  0     1  0  0  0  0  0999 V2000
   11.4726    4.9577   23.1210 C   0  0  0  0  0  0  0  0  0  0  0  0
    4.2750    1.7050   20.8490 C   0  0  0  0  0  0  0  0  0  0  0  0
   12.5103    4.1537   22.6496 C   0  0  0  0  0  0  0  0  0  0  0  0
   10.2847    4.3753   23.5633 C   0  0  0  0  0  0  0  0  0  0  0  0
    3.9160    2.0630   19.5520 C   0  0  0  0  0  0  0  0  0  0  0  0
    5.4210    0.9600   21.0930 C   0  0  0  0  0  0  0  0  0  0  0  0
   12.3602    2.7672   22.6203 C   0  0  0  0  0  0  0  0  0  0  0  0
   10.1346    2.9888   23.5339 C   0  0  0  0  0  0  0  0  0  0  0  0
    9.0720   -1.1280   24.8640 C   0  0  0  0  0  0  0  0  0  0  0  0
    9.7200   -2.2600   22.8630 C   0  0  0  0  0  0  0  0  0  0  0  0
    4.6890    1.6810   18.4640 C   0  0  0  0  0  0  0  0  0  0  0  0
    8.9960   -2.3380   25.5320 C   0  0  0  0  0  0  0  0  0  0  0  0
    9.6730   -3.4710   23.5300 C   0  0  0  0  0  0  0  0  0  0  0  0
    7.6390   -0.2680   18.5410 C   0  0  0  0  0  0  0  0  0  0  0  0
    6.1790    0.5730   19.9990 C   0  0  0  0  0  0  0  0  0  0  0  0
   11.1723    2.1848   23.0624 C   0  0  0  0  0  0  0  0  0  0  0  0
    9.3350   -1.0880   23.5010 C   0  0  0  0  0  0  0  0  0  0  0  0
    5.8300    0.9190   18.6970 C   0  0  0  0  0  0  0  0  0  0  0  0
    7.3170   -0.1610   19.8550 C   0  0  0  0  0  0  0  0  0  0  0  0
    9.3070   -3.5340   24.8780 C   0  0  0  0  0  0  0  0  0  0  0  0
    9.0420    0.3700   21.5280 C   0  0  0  0  0  0  0  0  0  0  0  0
    8.8744   -4.6797   26.9022 C   0  0  0  0  0  0  0  0  0  0  0  0
   11.0089    0.6825   23.0307 C   0  0  0  0  0  0  0  0  0  0  0  0
    9.4560    0.1560   22.8130 C   0  0  1  0  0  0  0  0  0  0  0  0
    6.7580    0.3810   17.8350 N   0  0  0  0  0  0  0  0  0  0  0  0
    8.1890   -0.7180   20.8700 N   0  0  0  0  0  0  0  0  0  0  0  0
    9.2690    1.4140   20.9380 O   0  0  0  0  0  0  0  0  0  0  0  0
    9.2567   -4.7121   25.5280 O   0  0  0  0  0  0  0  0  0  0  0  0
   11.5901    6.0371   23.1451 H   0  0  0  0  0  0  0  0  0  0  0  0
    3.6453    2.0152   21.6831 H   0  0  0  0  0  0  0  0  0  0  0  0
   13.4357    4.6069   22.3063 H   0  0  0  0  0  0  0  0  0  0  0  0
    9.4770    5.0009   23.9314 H   0  0  0  0  0  0  0  0  0  0  0  0
    3.0147    2.6520   19.3913 H   0  0  0  0  0  0  0  0  0  0  0  0
    5.6991    0.6995   22.1042 H   0  0  0  0  0  0  0  0  0  0  0  0
   13.1740    2.1486   22.2511 H   0  0  0  0  0  0  0  0  0  0  0  0
    9.2056    2.5438   23.8803 H   0  0  0  0  0  0  0  0  0  0  0  0
    8.9224   -0.1986   25.4209 H   0  0  0  0  0  0  0  0  0  0  0  0
   10.0638   -2.2321   21.8253 H   0  0  0  0  0  0  0  0  0  0  0  0
    4.4051    1.9733   17.4488 H   0  0  0  0  0  0  0  0  0  0  0  0
    8.6903   -2.3588   26.5807 H   0  0  0  0  0  0  0  0  0  0  0  0
    9.9258   -4.3917   22.9962 H   0  0  0  0  0  0  0  0  0  0  0  0
    8.4825   -0.7940   18.0623 H   0  0  0  0  0  0  0  0  0  0  0  0
    8.8744   -5.6954   27.3053 H   0  0  0  0  0  0  0  0  0  0  0  0
    7.8781   -4.2399   26.9939 H   0  0  0  0  0  0  0  0  0  0  0  0
    9.5920   -4.0702   27.4565 H   0  0  0  0  0  0  0  0  0  0  0  0
   11.6011    0.2707   22.2030 H   0  0  0  0  0  0  0  0  0  0  0  0
   11.4624    0.2744   23.9446 H   0  0  0  0  0  0  0  0  0  0  0  0
    8.9284    0.9668   23.5149 H   0  0  0  0  0  0  0  0  0  0  0  0
    6.7266    0.4930   16.8305 H   0  0  0  0  0  0  0  0  0  0  0  0
    8.2408   -1.5631   21.0968 H   0  0  0  0  0  0  0  0  0  0  0  0
  1  3  1  0  0  0  0
  1  4  2  0  0  0  0
  2  5  1  0  0  0  0
  2  6  2  0  0  0  0
  3  7  2  0  0  0  0
  4  8  1  0  0  0  0
  5 11  2  0  0  0  0
  6 15  1  0  0  0  0
  7 16  1  0  0  0  0
  8 16  2  0  0  0  0
  9 12  2  0  0  0  0
  9 17  1  0  0  0  0
 10 13  1  0  0  0  0
 10 17  2  0  0  0  0
 11 18  1  0  0  0  0
 12 20  1  0  0  0  0
 13 20  2  0  0  0  0
 14 19  2  0  0  0  0
 14 25  1  0  0  0  0
 15 18  2  0  0  0  0
 15 19  1  0  0  0  0
 16 23  1  0  0  0  0
 17 24  1  0  0  0  0
 18 25  1  0  0  0  0
 19 26  1  0  0  0  0
 20 28  1  0  0  0  0
 21 24  1  0  0  0  0
 21 26  1  0  0  0  0
 21 27  2  0  0  0  0
 22 28  1  0  0  0  0
 23 24  1  1  0  0  0
  1 29  1  0  0  0  0
  2 30  1  0  0  0  0
  3 31  1  0  0  0  0
  4 32  1  0  0  0  0
  5 33  1  0  0  0  0
  6 34  1  0  0  0  0
  7 35  1  0  0  0  0
  8 36  1  0  0  0  0
  9 37  1  0  0  0  0
 10 38  1  0  0  0  0
 11 39  1  0  0  0  0
 12 40  1  0  0  0  0
 13 41  1  0  0  0  0
 14 42  1  0  0  0  0
 22 43  1  0  0  0  0
 22 44  1  0  0  0  0
 22 45  1  0  0  0  0
 23 46  1  0  0  0  0
 23 47  1  0  0  0  0
 24 48  1  0  0  0  0
 25 49  1  0  0  0  0
 26 50  1  0  0  0  0
M  END
> <clash_score>
0

> <docking_score>
-9.775984764099121

> <overlap_score>
0.9121972918510437

$$$$
BENZO_296_2
  -OEChem-08232013463D

 47 50  0     1  0  0  0  0  0999 V2000
    4.2750    1.7050   20.8490 C   0  0  0  0  0  0  0  0  0  0  0  0
    3.9160    2.0630   19.5520 C   0  0  0  0  0  0  0  0  0  0  0  0
    5.4210    0.9600   21.0930 C   0  0  0  0  0  0  0  0  0  0  0  0
    9.0720   -1.1280   24.8640 C   0  0  0  0  0  0  0  0  0  0  0  0
    9.7200   -2.2600   22.8630 C   0  0  0  0  0  0  0  0  0  0  0  0
    4.6890    1.6810   18.4640 C   0  0  0  0  0  0  0  0  0  0  0  0
    8.9960   -2.3380   25.5320 C   0  0  0  0  0  0  0  0  0  0  0  0
    9.6730   -3.4710   23.5300 C   0  0  0  0  0  0  0  0  0  0  0  0
   10.3314    3.2065   22.7858 C   0  0  0  0  0  0  0  0  0  0  0  0
    7.6390   -0.2680   18.5410 C   0  0  0  0  0  0  0  0  0  0  0  0
   10.3108    4.5599   22.5298 C   0  0  0  0  0  0  0  0  0  0  0  0
    8.2468    3.7959   23.6280 C   0  0  0  0  0  0  0  0  0  0  0  0
    6.1790    0.5730   19.9990 C   0  0  0  0  0  0  0  0  0  0  0  0
    9.3350   -1.0880   23.5010 C   0  0  0  0  0  0  0  0  0  0  0  0
    9.1357    2.7638   23.4219 C   0  0  0  0  0  0  0  0  0  0  0  0
    5.8300    0.9190   18.6970 C   0  0  0  0  0  0  0  0  0  0  0  0
    7.3170   -0.1610   19.8550 C   0  0  0  0  0  0  0  0  0  0  0  0
    9.3070   -3.5340   24.8780 C   0  0  0  0  0  0  0  0  0  0  0  0
    9.0420    0.3700   21.5280 C   0  0  0  0  0  0  0  0  0  0  0  0
    9.5904   -5.8808   24.7807 C   0  0  0  0  0  0  0  0  0  0  0  0
    8.8757    1.3301   23.8233 C   0  0  0  0  0  0  0  0  0  0  0  0
    9.4560    0.1560   22.8130 C   0  0  2  0  0  0  0  0  0  0  0  0
    6.7580    0.3810   17.8350 N   0  0  0  0  0  0  0  0  0  0  0  0
    8.1890   -0.7180   20.8700 N   0  0  0  0  0  0  0  0  0  0  0  0
    9.2690    1.4140   20.9380 O   0  0  0  0  0  0  0  0  0  0  0  0
    9.2567   -4.7121   25.5280 O   0  0  0  0  0  0  0  0  0  0  0  0
    8.8543    5.2911   23.0556 S   0  0  0  0  0  0  0  0  0  0  0  0
    3.6453    2.0152   21.6831 H   0  0  0  0  0  0  0  0  0  0  0  0
    3.0147    2.6520   19.3913 H   0  0  0  0  0  0  0  0  0  0  0  0
    5.6991    0.6995   22.1042 H   0  0  0  0  0  0  0  0  0  0  0  0
    8.9224   -0.1986   25.4209 H   0  0  0  0  0  0  0  0  0  0  0  0
   10.0638   -2.2321   21.8253 H   0  0  0  0  0  0  0  0  0  0  0  0
    4.4051    1.9733   17.4488 H   0  0  0  0  0  0  0  0  0  0  0  0
    8.6903   -2.3588   26.5807 H   0  0  0  0  0  0  0  0  0  0  0  0
    9.9258   -4.3917   22.9962 H   0  0  0  0  0  0  0  0  0  0  0  0
   11.1669    2.5681   22.5277 H   0  0  0  0  0  0  0  0  0  0  0  0
    8.4825   -0.7940   18.0623 H   0  0  0  0  0  0  0  0  0  0  0  0
   11.0815    5.1544   22.0600 H   0  0  0  0  0  0  0  0  0  0  0  0
    7.2694    3.7480   24.0880 H   0  0  0  0  0  0  0  0  0  0  0  0
    9.5095   -6.7607   25.4235 H   0  0  0  0  0  0  0  0  0  0  0  0
   10.6094   -5.7898   24.3961 H   0  0  0  0  0  0  0  0  0  0  0  0
    8.8947   -5.9784   23.9439 H   0  0  0  0  0  0  0  0  0  0  0  0
    9.2390    1.1684   24.8466 H   0  0  0  0  0  0  0  0  0  0  0  0
    7.7875    1.1860   23.8742 H   0  0  0  0  0  0  0  0  0  0  0  0
   10.6103    0.4565   22.8881 H   0  0  0  0  0  0  0  0  0  0  0  0
    6.7266    0.4930   16.8305 H   0  0  0  0  0  0  0  0  0  0  0  0
    8.2408   -1.5631   21.0968 H   0  0  0  0  0  0  0  0  0  0  0  0
  1  2  1  0  0  0  0
  1  3  2  0  0  0  0
  2  6  2  0  0  0  0
  3 13  1  0  0  0  0
  4  7  2  0  0  0  0
  4 14  1  0  0  0  0
  5  8  1  0  0  0  0
  5 14  2  0  0  0  0
  6 16  1  0  0  0  0
  7 18  1  0  0  0  0
  8 18  2  0  0  0  0
  9 11  2  0  0  0  0
  9 15  1  0  0  0  0
 10 17  2  0  0  0  0
 10 23  1  0  0  0  0
 11 27  1  0  0  0  0
 12 15  2  0  0  0  0
 12 27  1  0  0  0  0
 13 16  2  0  0  0  0
 13 17  1  0  0  0  0
 14 22  1  0  0  0  0
 15 21  1  0  0  0  0
 16 23  1  0  0  0  0
 17 24  1  0  0  0  0
 18 26  1  0  0  0  0
 19 22  1  0  0  0  0
 19 24  1  0  0  0  0
 19 25  2  0  0  0  0
 20 26  1  0  0  0  0
 21 22  1  6  0  0  0
  1 28  1  0  0  0  0
  2 29  1  0  0  0  0
  3 30  1  0  0  0  0
  4 31  1  0  0  0  0
  5 32  1  0  0  0  0
  6 33  1  0  0  0  0
  7 34  1  0  0  0  0
  8 35  1  0  0  0  0
  9 36  1  0  0  0  0
 10 37  1  0  0  0  0
 11 38  1  0  0  0  0
 12 39  1  0  0  0  0
 20 40  1  0  0  0  0
 20 41  1  0  0  0  0
 20 42  1  0  0  0  0
 21 43  1  0  0  0  0
 21 44  1  0  0  0  0
 22 45  1  0  0  0  0
 23 46  1  0  0  0  0
 24 47  1  0  0  0  0
M  END
> <clash_score>
0

> <docking_score>
-6.671259880065918

> <overlap_score>
0.8258880972862244

$$$$
BENZO_297_2
  -OEChem-08232013463D

 50 53  0     1  0  0  0  0  0999 V2000
    9.6170    5.4099   22.6808 C   0  0  0  0  0  0  0  0  0  0  0  0
    4.2750    1.7050   20.8490 C   0  0  0  0  0  0  0  0  0  0  0  0
    8.4752    5.0878   23.4143 C   0  0  0  0  0  0  0  0  0  0  0  0
   10.5182    4.4090   22.3177 C   0  0  0  0  0  0  0  0  0  0  0  0
    3.9160    2.0630   19.5520 C   0  0  0  0  0  0  0  0  0  0  0  0
    5.4210    0.9600   21.0930 C   0  0  0  0  0  0  0  0  0  0  0  0
    8.2345    3.7648   23.7849 C   0  0  0  0  0  0  0  0  0  0  0  0
   10.2775    3.0860   22.6883 C   0  0  0  0  0  0  0  0  0  0  0  0
    9.0720   -1.1280   24.8640 C   0  0  0  0  0  0  0  0  0  0  0  0
    9.7200   -2.2600   22.8630 C   0  0  0  0  0  0  0  0  0  0  0  0
    4.6890    1.6810   18.4640 C   0  0  0  0  0  0  0  0  0  0  0  0
    8.9960   -2.3380   25.5320 C   0  0  0  0  0  0  0  0  0  0  0  0
    9.6730   -3.4710   23.5300 C   0  0  0  0  0  0  0  0  0  0  0  0
    7.6390   -0.2680   18.5410 C   0  0  0  0  0  0  0  0  0  0  0  0
    6.1790    0.5730   19.9990 C   0  0  0  0  0  0  0  0  0  0  0  0
    9.1357    2.7638   23.4219 C   0  0  0  0  0  0  0  0  0  0  0  0
    9.3350   -1.0880   23.5010 C   0  0  0  0  0  0  0  0  0  0  0  0
    5.8300    0.9190   18.6970 C   0  0  0  0  0  0  0  0  0  0  0  0
    7.3170   -0.1610   19.8550 C   0  0  0  0  0  0  0  0  0  0  0  0
    9.3070   -3.5340   24.8780 C   0  0  0  0  0  0  0  0  0  0  0  0
    9.0420    0.3700   21.5280 C   0  0  0  0  0  0  0  0  0  0  0  0
    9.5904   -5.8808   24.7807 C   0  0  0  0  0  0  0  0  0  0  0  0
    8.8757    1.3301   23.8233 C   0  0  0  0  0  0  0  0  0  0  0  0
    9.4560    0.1560   22.8130 C   0  0  2  0  0  0  0  0  0  0  0  0
    6.7580    0.3810   17.8350 N   0  0  0  0  0  0  0  0  0  0  0  0
    8.1890   -0.7180   20.8700 N   0  0  0  0  0  0  0  0  0  0  0  0
    9.2690    1.4140   20.9380 O   0  0  0  0  0  0  0  0  0  0  0  0
    9.2567   -4.7121   25.5280 O   0  0  0  0  0  0  0  0  0  0  0  0
    9.8035    6.4400   22.3912 H   0  0  0  0  0  0  0  0  0  0  0  0
    3.6453    2.0152   21.6831 H   0  0  0  0  0  0  0  0  0  0  0  0
    7.7728    5.8668   23.6961 H   0  0  0  0  0  0  0  0  0  0  0  0
   11.4067    4.6593   21.7457 H   0  0  0  0  0  0  0  0  0  0  0  0
    3.0147    2.6520   19.3913 H   0  0  0  0  0  0  0  0  0  0  0  0
    5.6991    0.6995   22.1042 H   0  0  0  0  0  0  0  0  0  0  0  0
    7.3424    3.5231   24.3565 H   0  0  0  0  0  0  0  0  0  0  0  0
   10.9853    2.3128   22.4011 H   0  0  0  0  0  0  0  0  0  0  0  0
    8.9224   -0.1986   25.4209 H   0  0  0  0  0  0  0  0  0  0  0  0
   10.0638   -2.2321   21.8253 H   0  0  0  0  0  0  0  0  0  0  0  0
    4.4051    1.9733   17.4488 H   0  0  0  0  0  0  0  0  0  0  0  0
    8.6903   -2.3588   26.5807 H   0  0  0  0  0  0  0  0  0  0  0  0
    9.9258   -4.3917   22.9962 H   0  0  0  0  0  0  0  0  0  0  0  0
    8.4825   -0.7940   18.0623 H   0  0  0  0  0  0  0  0  0  0  0  0
    9.5095   -6.7607   25.4235 H   0  0  0  0  0  0  0  0  0  0  0  0
   10.6094   -5.7898   24.3961 H   0  0  0  0  0  0  0  0  0  0  0  0
    8.8947   -5.9784   23.9439 H   0  0  0  0  0  0  0  0  0  0  0  0
    9.2390    1.1684   24.8466 H   0  0  0  0  0  0  0  0  0  0  0  0
    7.7875    1.1860   23.8742 H   0  0  0  0  0  0  0  0  0  0  0  0
   10.6103    0.4565   22.8881 H   0  0  0  0  0  0  0  0  0  0  0  0
    6.7266    0.4930   16.8305 H   0  0  0  0  0  0  0  0  0  0  0  0
    8.2408   -1.5631   21.0968 H   0  0  0  0  0  0  0  0  0  0  0  0
  1  3  1  0  0  0  0
  1  4  2  0  0  0  0
  2  5  1  0  0  0  0
  2  6  2  0  0  0  0
  3  7  2  0  0  0  0
  4  8  1  0  0  0  0
  5 11  2  0  0  0  0
  6 15  1  0  0  0  0
  7 16  1  0  0  0  0
  8 16  2  0  0  0  0
  9 12  2  0  0  0  0
  9 17  1  0  0  0  0
 10 13  1  0  0  0  0
 10 17  2  0  0  0  0
 11 18  1  0  0  0  0
 12 20  1  0  0  0  0
 13 20  2  0  0  0  0
 14 19  2  0  0  0  0
 14 25  1  0  0  0  0
 15 18  2  0  0  0  0
 15 19  1  0  0  0  0
 16 23  1  0  0  0  0
 17 24  1  0  0  0  0
 18 25  1  0  0  0  0
 19 26  1  0  0  0  0
 20 28  1  0  0  0  0
 21 24  1  0  0  0  0
 21 26  1  0  0  0  0
 21 27  2  0  0  0  0
 22 28  1  0  0  0  0
 23 24  1  6  0  0  0
  1 29  1  0  0  0  0
  2 30  1  0  0  0  0
  3 31  1  0  0  0  0
  4 32  1  0  0  0  0
  5 33  1  0  0  0  0
  6 34  1  0  0  0  0
  7 35  1  0  0  0  0
  8 36  1  0  0  0  0
  9 37  1  0  0  0  0
 10 38  1  0  0  0  0
 11 39  1  0  0  0  0
 12 40  1  0  0  0  0
 13 41  1  0  0  0  0
 14 42  1  0  0  0  0
 22 43  1  0  0  0  0
 22 44  1  0  0  0  0
 22 45  1  0  0  0  0
 23 46  1  0  0  0  0
 23 47  1  0  0  0  0
 24 48  1  0  0  0  0
 25 49  1  0  0  0  0
 26 50  1  0  0  0  0
M  END
> <clash_score>
0

> <docking_score>
-6.2841386795043945

> <overlap_score>
0.8256527781486511

$$$$
BENZO_298_1
  -OEChem-08232013463D

 50 53  0     1  0  0  0  0  0999 V2000
    4.2750    1.7050   20.8490 C   0  0  0  0  0  0  0  0  0  0  0  0
    3.9160    2.0630   19.5520 C   0  0  0  0  0  0  0  0  0  0  0  0
   10.2856    4.3750   23.5656 C   0  0  0  0  0  0  0  0  0  0  0  0
    5.4210    0.9600   21.0930 C   0  0  0  0  0  0  0  0  0  0  0  0
   10.1350    2.9887   23.5349 C   0  0  0  0  0  0  0  0  0  0  0  0
    9.0720   -1.1280   24.8640 C   0  0  0  0  0  0  0  0  0  0  0  0
    9.7200   -2.2600   22.8630 C   0  0  0  0  0  0  0  0  0  0  0  0
    4.6890    1.6810   18.4640 C   0  0  0  0  0  0  0  0  0  0  0  0
    8.9960   -2.3380   25.5320 C   0  0  0  0  0  0  0  0  0  0  0  0
    9.6730   -3.4710   23.5300 C   0  0  0  0  0  0  0  0  0  0  0  0
   11.4735    4.9575   23.1236 C   0  0  0  0  0  0  0  0  0  0  0  0
   12.3603    2.7672   22.6205 C   0  0  0  0  0  0  0  0  0  0  0  0
    7.6390   -0.2680   18.5410 C   0  0  0  0  0  0  0  0  0  0  0  0
    6.1790    0.5730   19.9990 C   0  0  0  0  0  0  0  0  0  0  0  0
    9.3350   -1.0880   23.5010 C   0  0  0  0  0  0  0  0  0  0  0  0
   11.1723    2.1848   23.0624 C   0  0  0  0  0  0  0  0  0  0  0  0
    5.8300    0.9190   18.6970 C   0  0  0  0  0  0  0  0  0  0  0  0
    7.3170   -0.1610   19.8550 C   0  0  0  0  0  0  0  0  0  0  0  0
    9.3070   -3.5340   24.8780 C   0  0  0  0  0  0  0  0  0  0  0  0
   12.5108    4.1536   22.6511 C   0  0  0  0  0  0  0  0  0  0  0  0
    9.0420    0.3700   21.5280 C   0  0  0  0  0  0  0  0  0  0  0  0
    9.5904   -5.8808   24.7807 C   0  0  0  0  0  0  0  0  0  0  0  0
   11.0089    0.6825   23.0307 C   0  0  0  0  0  0  0  0  0  0  0  0
    9.4560    0.1560   22.8130 C   0  0  1  0  0  0  0  0  0  0  0  0
    6.7580    0.3810   17.8350 N   0  0  0  0  0  0  0  0  0  0  0  0
    8.1890   -0.7180   20.8700 N   0  0  0  0  0  0  0  0  0  0  0  0
    9.2690    1.4140   20.9380 O   0  0  0  0  0  0  0  0  0  0  0  0
    9.2567   -4.7121   25.5280 O   0  0  0  0  0  0  0  0  0  0  0  0
   13.9766    4.8727   22.1070 Cl  0  0  0  0  0  0  0  0  0  0  0  0
    3.6453    2.0152   21.6831 H   0  0  0  0  0  0  0  0  0  0  0  0
    3.0147    2.6520   19.3913 H   0  0  0  0  0  0  0  0  0  0  0  0
    9.4776    5.0007   23.9337 H   0  0  0  0  0  0  0  0  0  0  0  0
    5.6991    0.6995   22.1042 H   0  0  0  0  0  0  0  0  0  0  0  0
    9.2060    2.5434   23.8814 H   0  0  0  0  0  0  0  0  0  0  0  0
    8.9224   -0.1986   25.4209 H   0  0  0  0  0  0  0  0  0  0  0  0
   10.0638   -2.2321   21.8253 H   0  0  0  0  0  0  0  0  0  0  0  0
    4.4051    1.9733   17.4488 H   0  0  0  0  0  0  0  0  0  0  0  0
    8.6903   -2.3588   26.5807 H   0  0  0  0  0  0  0  0  0  0  0  0
    9.9258   -4.3917   22.9962 H   0  0  0  0  0  0  0  0  0  0  0  0
   11.5769    6.0394   23.1535 H   0  0  0  0  0  0  0  0  0  0  0  0
   13.1659    2.1361   22.2525 H   0  0  0  0  0  0  0  0  0  0  0  0
    8.4825   -0.7940   18.0623 H   0  0  0  0  0  0  0  0  0  0  0  0
    9.5095   -6.7607   25.4235 H   0  0  0  0  0  0  0  0  0  0  0  0
   10.6094   -5.7898   24.3961 H   0  0  0  0  0  0  0  0  0  0  0  0
    8.8947   -5.9784   23.9439 H   0  0  0  0  0  0  0  0  0  0  0  0
   11.6011    0.2707   22.2030 H   0  0  0  0  0  0  0  0  0  0  0  0
   11.4624    0.2744   23.9446 H   0  0  0  0  0  0  0  0  0  0  0  0
    8.9284    0.9668   23.5149 H   0  0  0  0  0  0  0  0  0  0  0  0
    6.7266    0.4930   16.8305 H   0  0  0  0  0  0  0  0  0  0  0  0
    8.2408   -1.5631   21.0968 H   0  0  0  0  0  0  0  0  0  0  0  0
  1  2  1  0  0  0  0
  1  4  2  0  0  0  0
  2  8  2  0  0  0  0
  3  5  2  0  0  0  0
  3 11  1  0  0  0  0
  4 14  1  0  0  0  0
  5 16  1  0  0  0  0
  6  9  2  0  0  0  0
  6 15  1  0  0  0  0
  7 10  1  0  0  0  0
  7 15  2  0  0  0  0
  8 17  1  0  0  0  0
  9 19  1  0  0  0  0
 10 19  2  0  0  0  0
 11 20  2  0  0  0  0
 12 16  2  0  0  0  0
 12 20  1  0  0  0  0
 13 18  2  0  0  0  0
 13 25  1  0  0  0  0
 14 17  2  0  0  0  0
 14 18  1  0  0  0  0
 15 24  1  0  0  0  0
 16 23  1  0  0  0  0
 17 25  1  0  0  0  0
 18 26  1  0  0  0  0
 19 28  1  0  0  0  0
 20 29  1  0  0  0  0
 21 24  1  0  0  0  0
 21 26  1  0  0  0  0
 21 27  2  0  0  0  0
 22 28  1  0  0  0  0
 23 24  1  1  0  0  0
  1 30  1  0  0  0  0
  2 31  1  0  0  0  0
  3 32  1  0  0  0  0
  4 33  1  0  0  0  0
  5 34  1  0  0  0  0
  6 35  1  0  0  0  0
  7 36  1  0  0  0  0
  8 37  1  0  0  0  0
  9 38  1  0  0  0  0
 10 39  1  0  0  0  0
 11 40  1  0  0  0  0
 12 41  1  0  0  0  0
 13 42  1  0  0  0  0
 22 43  1  0  0  0  0
 22 44  1  0  0  0  0
 22 45  1  0  0  0  0
 23 46  1  0  0  0  0
 23 47  1  0  0  0  0
 24 48  1  0  0  0  0
 25 49  1  0  0  0  0
 26 50  1  0  0  0  0
M  END
> <clash_score>
0

> <docking_score>
-10.191948890686035

> <overlap_score>
0.9156607389450073

$$$$
BENZO_298_2
  -OEChem-08232013463D

 50 53  0     1  0  0  0  0  0999 V2000
    4.2750    1.7050   20.8490 C   0  0  0  0  0  0  0  0  0  0  0  0
    3.9160    2.0630   19.5520 C   0  0  0  0  0  0  0  0  0  0  0  0
    8.4741    5.0874   23.4171 C   0  0  0  0  0  0  0  0  0  0  0  0
    5.4210    0.9600   21.0930 C   0  0  0  0  0  0  0  0  0  0  0  0
    8.2342    3.7639   23.7862 C   0  0  0  0  0  0  0  0  0  0  0  0
    9.0720   -1.1280   24.8640 C   0  0  0  0  0  0  0  0  0  0  0  0
    9.7200   -2.2600   22.8630 C   0  0  0  0  0  0  0  0  0  0  0  0
    4.6890    1.6810   18.4640 C   0  0  0  0  0  0  0  0  0  0  0  0
    8.9960   -2.3380   25.5320 C   0  0  0  0  0  0  0  0  0  0  0  0
    9.6730   -3.4710   23.5300 C   0  0  0  0  0  0  0  0  0  0  0  0
    9.6155    5.4109   22.6835 C   0  0  0  0  0  0  0  0  0  0  0  0
   10.2772    3.0873   22.6883 C   0  0  0  0  0  0  0  0  0  0  0  0
    7.6390   -0.2680   18.5410 C   0  0  0  0  0  0  0  0  0  0  0  0
    6.1790    0.5730   19.9990 C   0  0  0  0  0  0  0  0  0  0  0  0
    9.3350   -1.0880   23.5010 C   0  0  0  0  0  0  0  0  0  0  0  0
    9.1357    2.7638   23.4219 C   0  0  0  0  0  0  0  0  0  0  0  0
    5.8300    0.9190   18.6970 C   0  0  0  0  0  0  0  0  0  0  0  0
    7.3170   -0.1610   19.8550 C   0  0  0  0  0  0  0  0  0  0  0  0
    9.3070   -3.5340   24.8780 C   0  0  0  0  0  0  0  0  0  0  0  0
   10.5171    4.4109   22.3191 C   0  0  0  0  0  0  0  0  0  0  0  0
    9.0420    0.3700   21.5280 C   0  0  0  0  0  0  0  0  0  0  0  0
    9.5904   -5.8808   24.7807 C   0  0  0  0  0  0  0  0  0  0  0  0
    8.8757    1.3301   23.8233 C   0  0  0  0  0  0  0  0  0  0  0  0
    9.4560    0.1560   22.8130 C   0  0  2  0  0  0  0  0  0  0  0  0
    6.7580    0.3810   17.8350 N   0  0  0  0  0  0  0  0  0  0  0  0
    8.1890   -0.7180   20.8700 N   0  0  0  0  0  0  0  0  0  0  0  0
    9.2690    1.4140   20.9380 O   0  0  0  0  0  0  0  0  0  0  0  0
    9.2567   -4.7121   25.5280 O   0  0  0  0  0  0  0  0  0  0  0  0
   11.9257    4.8108   21.4150 Cl  0  0  0  0  0  0  0  0  0  0  0  0
    3.6453    2.0152   21.6831 H   0  0  0  0  0  0  0  0  0  0  0  0
    3.0147    2.6520   19.3913 H   0  0  0  0  0  0  0  0  0  0  0  0
    7.7719    5.8659   23.7012 H   0  0  0  0  0  0  0  0  0  0  0  0
    5.6991    0.6995   22.1042 H   0  0  0  0  0  0  0  0  0  0  0  0
    7.3423    3.5209   24.3579 H   0  0  0  0  0  0  0  0  0  0  0  0
    8.9224   -0.1986   25.4209 H   0  0  0  0  0  0  0  0  0  0  0  0
   10.0638   -2.2321   21.8253 H   0  0  0  0  0  0  0  0  0  0  0  0
    4.4051    1.9733   17.4488 H   0  0  0  0  0  0  0  0  0  0  0  0
    8.6903   -2.3588   26.5807 H   0  0  0  0  0  0  0  0  0  0  0  0
    9.9258   -4.3917   22.9962 H   0  0  0  0  0  0  0  0  0  0  0  0
    9.7898    6.4468   22.4029 H   0  0  0  0  0  0  0  0  0  0  0  0
   10.9768    2.3039   22.4061 H   0  0  0  0  0  0  0  0  0  0  0  0
    8.4825   -0.7940   18.0623 H   0  0  0  0  0  0  0  0  0  0  0  0
    9.5095   -6.7607   25.4235 H   0  0  0  0  0  0  0  0  0  0  0  0
   10.6094   -5.7898   24.3961 H   0  0  0  0  0  0  0  0  0  0  0  0
    8.8947   -5.9784   23.9439 H   0  0  0  0  0  0  0  0  0  0  0  0
    9.2390    1.1684   24.8466 H   0  0  0  0  0  0  0  0  0  0  0  0
    7.7875    1.1860   23.8742 H   0  0  0  0  0  0  0  0  0  0  0  0
   10.6103    0.4565   22.8881 H   0  0  0  0  0  0  0  0  0  0  0  0
    6.7266    0.4930   16.8305 H   0  0  0  0  0  0  0  0  0  0  0  0
    8.2408   -1.5631   21.0968 H   0  0  0  0  0  0  0  0  0  0  0  0
  1  2  1  0  0  0  0
  1  4  2  0  0  0  0
  2  8  2  0  0  0  0
  3  5  2  0  0  0  0
  3 11  1  0  0  0  0
  4 14  1  0  0  0  0
  5 16  1  0  0  0  0
  6  9  2  0  0  0  0
  6 15  1  0  0  0  0
  7 10  1  0  0  0  0
  7 15  2  0  0  0  0
  8 17  1  0  0  0  0
  9 19  1  0  0  0  0
 10 19  2  0  0  0  0
 11 20  2  0  0  0  0
 12 16  2  0  0  0  0
 12 20  1  0  0  0  0
 13 18  2  0  0  0  0
 13 25  1  0  0  0  0
 14 17  2  0  0  0  0
 14 18  1  0  0  0  0
 15 24  1  0  0  0  0
 16 23  1  0  0  0  0
 17 25  1  0  0  0  0
 18 26  1  0  0  0  0
 19 28  1  0  0  0  0
 20 29  1  0  0  0  0
 21 24  1  0  0  0  0
 21 26  1  0  0  0  0
 21 27  2  0  0  0  0
 22 28  1  0  0  0  0
 23 24  1  6  0  0  0
  1 30  1  0  0  0  0
  2 31  1  0  0  0  0
  3 32  1  0  0  0  0
  4 33  1  0  0  0  0
  5 34  1  0  0  0  0
  6 35  1  0  0  0  0
  7 36  1  0  0  0  0
  8 37  1  0  0  0  0
  9 38  1  0  0  0  0
 10 39  1  0  0  0  0
 11 40  1  0  0  0  0
 12 41  1  0  0  0  0
 13 42  1  0  0  0  0
 22 43  1  0  0  0  0
 22 44  1  0  0  0  0
 22 45  1  0  0  0  0
 23 46  1  0  0  0  0
 23 47  1  0  0  0  0
 24 48  1  0  0  0  0
 25 49  1  0  0  0  0
 26 50  1  0  0  0  0
M  END
> <clash_score>
0

> <docking_score>
-5.637289047241211

> <overlap_score>
0.8263978362083435

$$$$
BENZO_299_2
  -OEChem-08232013463D

 50 53  0     1  0  0  0  0  0999 V2000
    4.2750    1.7050   20.8490 C   0  0  0  0  0  0  0  0  0  0  0  0
    3.9160    2.0630   19.5520 C   0  0  0  0  0  0  0  0  0  0  0  0
    5.4210    0.9600   21.0930 C   0  0  0  0  0  0  0  0  0  0  0  0
    9.0720   -1.1280   24.8640 C   0  0  0  0  0  0  0  0  0  0  0  0
    9.7200   -2.2600   22.8630 C   0  0  0  0  0  0  0  0  0  0  0  0
    4.6890    1.6810   18.4640 C   0  0  0  0  0  0  0  0  0  0  0  0
    8.9960   -2.3380   25.5320 C   0  0  0  0  0  0  0  0  0  0  0  0
    9.6730   -3.4710   23.5300 C   0  0  0  0  0  0  0  0  0  0  0  0
   10.2230    3.2711   22.6855 C   0  0  0  0  0  0  0  0  0  0  0  0
    8.3607    3.8650   23.6924 C   0  0  0  0  0  0  0  0  0  0  0  0
    7.6390   -0.2680   18.5410 C   0  0  0  0  0  0  0  0  0  0  0  0
    6.1790    0.5730   19.9990 C   0  0  0  0  0  0  0  0  0  0  0  0
    9.3350   -1.0880   23.5010 C   0  0  0  0  0  0  0  0  0  0  0  0
    9.1357    2.7638   23.4219 C   0  0  0  0  0  0  0  0  0  0  0  0
    5.8300    0.9190   18.6970 C   0  0  0  0  0  0  0  0  0  0  0  0
    7.3170   -0.1610   19.8550 C   0  0  0  0  0  0  0  0  0  0  0  0
    9.3070   -3.5340   24.8780 C   0  0  0  0  0  0  0  0  0  0  0  0
    9.0420    0.3700   21.5280 C   0  0  0  0  0  0  0  0  0  0  0  0
    8.5727    6.3003   23.1419 C   0  0  0  0  0  0  0  0  0  0  0  0
    9.5904   -5.8808   24.7807 C   0  0  0  0  0  0  0  0  0  0  0  0
    8.8757    1.3301   23.8233 C   0  0  0  0  0  0  0  0  0  0  0  0
    9.4560    0.1560   22.8130 C   0  0  2  0  0  0  0  0  0  0  0  0
   10.1488    4.5917   22.4999 N   0  0  0  0  0  0  0  0  0  0  0  0
    6.7580    0.3810   17.8350 N   0  0  0  0  0  0  0  0  0  0  0  0
    9.0056    4.9236   23.1235 N   0  0  0  0  0  0  0  0  0  0  0  0
    8.1890   -0.7180   20.8700 N   0  0  0  0  0  0  0  0  0  0  0  0
    9.2690    1.4140   20.9380 O   0  0  0  0  0  0  0  0  0  0  0  0
    9.2567   -4.7121   25.5280 O   0  0  0  0  0  0  0  0  0  0  0  0
    3.6453    2.0152   21.6831 H   0  0  0  0  0  0  0  0  0  0  0  0
    3.0147    2.6520   19.3913 H   0  0  0  0  0  0  0  0  0  0  0  0
    5.6991    0.6995   22.1042 H   0  0  0  0  0  0  0  0  0  0  0  0
    8.9224   -0.1986   25.4209 H   0  0  0  0  0  0  0  0  0  0  0  0
   10.0638   -2.2321   21.8253 H   0  0  0  0  0  0  0  0  0  0  0  0
    4.4051    1.9733   17.4488 H   0  0  0  0  0  0  0  0  0  0  0  0
    8.6903   -2.3588   26.5807 H   0  0  0  0  0  0  0  0  0  0  0  0
    9.9258   -4.3917   22.9962 H   0  0  0  0  0  0  0  0  0  0  0  0
   11.0671    2.7354   22.2746 H   0  0  0  0  0  0  0  0  0  0  0  0
    7.4277    3.9824   24.2269 H   0  0  0  0  0  0  0  0  0  0  0  0
    8.4825   -0.7940   18.0623 H   0  0  0  0  0  0  0  0  0  0  0  0
    8.9983    6.7758   24.0295 H   0  0  0  0  0  0  0  0  0  0  0  0
    8.9199    6.8033   22.2351 H   0  0  0  0  0  0  0  0  0  0  0  0
    7.4802    6.3352   23.1748 H   0  0  0  0  0  0  0  0  0  0  0  0
    9.5095   -6.7607   25.4235 H   0  0  0  0  0  0  0  0  0  0  0  0
   10.6094   -5.7898   24.3961 H   0  0  0  0  0  0  0  0  0  0  0  0
    8.8947   -5.9784   23.9439 H   0  0  0  0  0  0  0  0  0  0  0  0
    9.2390    1.1684   24.8466 H   0  0  0  0  0  0  0  0  0  0  0  0
    7.7875    1.1860   23.8742 H   0  0  0  0  0  0  0  0  0  0  0  0
   10.6103    0.4565   22.8881 H   0  0  0  0  0  0  0  0  0  0  0  0
    6.7266    0.4930   16.8305 H   0  0  0  0  0  0  0  0  0  0  0  0
    8.2408   -1.5631   21.0968 H   0  0  0  0  0  0  0  0  0  0  0  0
  1  2  1  0  0  0  0
  1  3  2  0  0  0  0
  2  6  2  0  0  0  0
  3 12  1  0  0  0  0
  4  7  2  0  0  0  0
  4 13  1  0  0  0  0
  5  8  1  0  0  0  0
  5 13  2  0  0  0  0
  6 15  1  0  0  0  0
  7 17  1  0  0  0  0
  8 17  2  0  0  0  0
  9 14  1  0  0  0  0
  9 23  2  0  0  0  0
 10 14  2  0  0  0  0
 10 25  1  0  0  0  0
 11 16  2  0  0  0  0
 11 24  1  0  0  0  0
 12 15  2  0  0  0  0
 12 16  1  0  0  0  0
 13 22  1  0  0  0  0
 14 21  1  0  0  0  0
 15 24  1  0  0  0  0
 16 26  1  0  0  0  0
 17 28  1  0  0  0  0
 18 22  1  0  0  0  0
 18 26  1  0  0  0  0
 18 27  2  0  0  0  0
 19 25  1  0  0  0  0
 20 28  1  0  0  0  0
 21 22  1  6  0  0  0
 23 25  1  0  0  0  0
  1 29  1  0  0  0  0
  2 30  1  0  0  0  0
  3 31  1  0  0  0  0
  4 32  1  0  0  0  0
  5 33  1  0  0  0  0
  6 34  1  0  0  0  0
  7 35  1  0  0  0  0
  8 36  1  0  0  0  0
  9 37  1  0  0  0  0
 10 38  1  0  0  0  0
 11 39  1  0  0  0  0
 19 40  1  0  0  0  0
 19 41  1  0  0  0  0
 19 42  1  0  0  0  0
 20 43  1  0  0  0  0
 20 44  1  0  0  0  0
 20 45  1  0  0  0  0
 21 46  1  0  0  0  0
 21 47  1  0  0  0  0
 22 48  1  0  0  0  0
 24 49  1  0  0  0  0
 26 50  1  0  0  0  0
M  END
> <clash_score>
0

> <docking_score>
-6.012556076049805

> <overlap_score>
0.8214377164840698

$$$$
BENZO_299_1
  -OEChem-08232013463D

 50 53  0     1  0  0  0  0  0999 V2000
    4.2750    1.7050   20.8490 C   0  0  0  0  0  0  0  0  0  0  0  0
    3.9160    2.0630   19.5520 C   0  0  0  0  0  0  0  0  0  0  0  0
    5.4210    0.9600   21.0930 C   0  0  0  0  0  0  0  0  0  0  0  0
    9.0720   -1.1280   24.8640 C   0  0  0  0  0  0  0  0  0  0  0  0
    9.7200   -2.2600   22.8630 C   0  0  0  0  0  0  0  0  0  0  0  0
    4.6890    1.6810   18.4640 C   0  0  0  0  0  0  0  0  0  0  0  0
    8.9960   -2.3380   25.5320 C   0  0  0  0  0  0  0  0  0  0  0  0
    9.6730   -3.4710   23.5300 C   0  0  0  0  0  0  0  0  0  0  0  0
   10.2428    3.1456   23.5034 C   0  0  0  0  0  0  0  0  0  0  0  0
   12.2645    2.9188   22.6690 C   0  0  0  0  0  0  0  0  0  0  0  0
    7.6390   -0.2680   18.5410 C   0  0  0  0  0  0  0  0  0  0  0  0
    6.1790    0.5730   19.9990 C   0  0  0  0  0  0  0  0  0  0  0  0
    9.3350   -1.0880   23.5010 C   0  0  0  0  0  0  0  0  0  0  0  0
   11.1723    2.1848   23.0624 C   0  0  0  0  0  0  0  0  0  0  0  0
    5.8300    0.9190   18.6970 C   0  0  0  0  0  0  0  0  0  0  0  0
    7.3170   -0.1610   19.8550 C   0  0  0  0  0  0  0  0  0  0  0  0
    9.3070   -3.5340   24.8780 C   0  0  0  0  0  0  0  0  0  0  0  0
    9.0420    0.3700   21.5280 C   0  0  0  0  0  0  0  0  0  0  0  0
   12.7694    5.3728   22.6294 C   0  0  0  0  0  0  0  0  0  0  0  0
    8.8744   -4.6797   26.9022 C   0  0  0  0  0  0  0  0  0  0  0  0
   11.0089    0.6825   23.0307 C   0  0  0  0  0  0  0  0  0  0  0  0
    9.4560    0.1560   22.8130 C   0  0  1  0  0  0  0  0  0  0  0  0
   10.7043    4.3948   23.4002 N   0  0  0  0  0  0  0  0  0  0  0  0
    6.7580    0.3810   17.8350 N   0  0  0  0  0  0  0  0  0  0  0  0
   11.9358    4.2239   22.8900 N   0  0  0  0  0  0  0  0  0  0  0  0
    8.1890   -0.7180   20.8700 N   0  0  0  0  0  0  0  0  0  0  0  0
    9.2690    1.4140   20.9380 O   0  0  0  0  0  0  0  0  0  0  0  0
    9.2567   -4.7121   25.5280 O   0  0  0  0  0  0  0  0  0  0  0  0
    3.6453    2.0152   21.6831 H   0  0  0  0  0  0  0  0  0  0  0  0
    3.0147    2.6520   19.3913 H   0  0  0  0  0  0  0  0  0  0  0  0
    5.6991    0.6995   22.1042 H   0  0  0  0  0  0  0  0  0  0  0  0
    8.9224   -0.1986   25.4209 H   0  0  0  0  0  0  0  0  0  0  0  0
   10.0638   -2.2321   21.8253 H   0  0  0  0  0  0  0  0  0  0  0  0
    4.4051    1.9733   17.4488 H   0  0  0  0  0  0  0  0  0  0  0  0
    8.6903   -2.3588   26.5807 H   0  0  0  0  0  0  0  0  0  0  0  0
    9.9258   -4.3917   22.9962 H   0  0  0  0  0  0  0  0  0  0  0  0
    9.2482    2.9901   23.8969 H   0  0  0  0  0  0  0  0  0  0  0  0
   13.2243    2.6307   22.2620 H   0  0  0  0  0  0  0  0  0  0  0  0
    8.4825   -0.7940   18.0623 H   0  0  0  0  0  0  0  0  0  0  0  0
   12.5744    5.7060   21.6066 H   0  0  0  0  0  0  0  0  0  0  0  0
   12.5290    6.1664   23.3423 H   0  0  0  0  0  0  0  0  0  0  0  0
   13.8196    5.0915   22.7473 H   0  0  0  0  0  0  0  0  0  0  0  0
    8.8744   -5.6954   27.3053 H   0  0  0  0  0  0  0  0  0  0  0  0
    7.8781   -4.2399   26.9939 H   0  0  0  0  0  0  0  0  0  0  0  0
    9.5920   -4.0702   27.4565 H   0  0  0  0  0  0  0  0  0  0  0  0
   11.6011    0.2707   22.2030 H   0  0  0  0  0  0  0  0  0  0  0  0
   11.4624    0.2744   23.9446 H   0  0  0  0  0  0  0  0  0  0  0  0
    8.9284    0.9668   23.5149 H   0  0  0  0  0  0  0  0  0  0  0  0
    6.7266    0.4930   16.8305 H   0  0  0  0  0  0  0  0  0  0  0  0
    8.2408   -1.5631   21.0968 H   0  0  0  0  0  0  0  0  0  0  0  0
  1  2  1  0  0  0  0
  1  3  2  0  0  0  0
  2  6  2  0  0  0  0
  3 12  1  0  0  0  0
  4  7  2  0  0  0  0
  4 13  1  0  0  0  0
  5  8  1  0  0  0  0
  5 13  2  0  0  0  0
  6 15  1  0  0  0  0
  7 17  1  0  0  0  0
  8 17  2  0  0  0  0
  9 14  1  0  0  0  0
  9 23  2  0  0  0  0
 10 14  2  0  0  0  0
 10 25  1  0  0  0  0
 11 16  2  0  0  0  0
 11 24  1  0  0  0  0
 12 15  2  0  0  0  0
 12 16  1  0  0  0  0
 13 22  1  0  0  0  0
 14 21  1  0  0  0  0
 15 24  1  0  0  0  0
 16 26  1  0  0  0  0
 17 28  1  0  0  0  0
 18 22  1  0  0  0  0
 18 26  1  0  0  0  0
 18 27  2  0  0  0  0
 19 25  1  0  0  0  0
 20 28  1  0  0  0  0
 21 22  1  1  0  0  0
 23 25  1  0  0  0  0
  1 29  1  0  0  0  0
  2 30  1  0  0  0  0
  3 31  1  0  0  0  0
  4 32  1  0  0  0  0
  5 33  1  0  0  0  0
  6 34  1  0  0  0  0
  7 35  1  0  0  0  0
  8 36  1  0  0  0  0
  9 37  1  0  0  0  0
 10 38  1  0  0  0  0
 11 39  1  0  0  0  0
 19 40  1  0  0  0  0
 19 41  1  0  0  0  0
 19 42  1  0  0  0  0
 20 43  1  0  0  0  0
 20 44  1  0  0  0  0
 20 45  1  0  0  0  0
 21 46  1  0  0  0  0
 21 47  1  0  0  0  0
 22 48  1  0  0  0  0
 24 49  1  0  0  0  0
 26 50  1  0  0  0  0
M  END
> <clash_score>
0

> <docking_score>
-9.682130813598633

> <overlap_score>
0.908275306224823

$$$$
BENZO_301_1
  -OEChem-08232013463D

 60 64  0     1  0  0  0  0  0999 V2000
    9.5866    5.4188   22.6538 C   0  0  0  0  0  0  0  0  0  0  0  0
    4.2750    1.7050   20.8490 C   0  0  0  0  0  0  0  0  0  0  0  0
    8.4494    5.0927   23.3926 C   0  0  0  0  0  0  0  0  0  0  0  0
   10.4928    4.4220   22.2918 C   0  0  0  0  0  0  0  0  0  0  0  0
    3.9160    2.0630   19.5520 C   0  0  0  0  0  0  0  0  0  0  0  0
    5.4210    0.9600   21.0930 C   0  0  0  0  0  0  0  0  0  0  0  0
    8.2182    3.7698   23.7695 C   0  0  0  0  0  0  0  0  0  0  0  0
   10.2616    3.0991   22.6687 C   0  0  0  0  0  0  0  0  0  0  0  0
    9.0720   -1.1280   24.8640 C   0  0  0  0  0  0  0  0  0  0  0  0
    9.7200   -2.2600   22.8630 C   0  0  0  0  0  0  0  0  0  0  0  0
    4.6890    1.6810   18.4640 C   0  0  0  0  0  0  0  0  0  0  0  0
    8.9960   -2.3380   25.5320 C   0  0  0  0  0  0  0  0  0  0  0  0
    9.6730   -3.4710   23.5300 C   0  0  0  0  0  0  0  0  0  0  0  0
    7.6390   -0.2680   18.5410 C   0  0  0  0  0  0  0  0  0  0  0  0
    6.1790    0.5730   19.9990 C   0  0  0  0  0  0  0  0  0  0  0  0
    9.1243    2.7729   23.4076 C   0  0  0  0  0  0  0  0  0  0  0  0
    9.3350   -1.0880   23.5010 C   0  0  0  0  0  0  0  0  0  0  0  0
    5.8300    0.9190   18.6970 C   0  0  0  0  0  0  0  0  0  0  0  0
    9.3070   -3.5340   24.8780 C   0  0  0  0  0  0  0  0  0  0  0  0
    7.3170   -0.1610   19.8550 C   0  0  0  0  0  0  0  0  0  0  0  0
    8.3596   -5.0075   26.6307 C   0  0  0  0  0  0  0  0  0  0  0  0
    9.0420    0.3700   21.5280 C   0  0  0  0  0  0  0  0  0  0  0  0
    8.4579   -6.4048   27.2167 C   0  0  0  0  0  0  0  0  0  0  0  0
    8.4717   -7.4504   26.1157 C   0  0  0  0  0  0  0  0  0  0  0  0
    9.5645   -7.1893   25.0840 C   0  0  0  0  0  0  0  0  0  0  0  0
   10.2327   -5.8252   25.2500 C   0  0  0  0  0  0  0  0  0  0  0  0
    8.8746    1.3393   23.8159 C   0  0  0  0  0  0  0  0  0  0  0  0
    9.4560    0.1560   22.8130 C   0  0  1  0  0  0  0  0  0  0  0  0
    6.7580    0.3810   17.8350 N   0  0  0  0  0  0  0  0  0  0  0  0
    9.2529   -4.7799   25.5644 N   0  0  0  0  0  0  0  0  0  0  0  0
    8.1890   -0.7180   20.8700 N   0  0  0  0  0  0  0  0  0  0  0  0
    7.5989   -4.1866   27.1423 O   0  0  0  0  0  0  0  0  0  0  0  0
    9.2690    1.4140   20.9380 O   0  0  0  0  0  0  0  0  0  0  0  0
    9.7658    6.4488   22.3592 H   0  0  0  0  0  0  0  0  0  0  0  0
    3.6453    2.0152   21.6831 H   0  0  0  0  0  0  0  0  0  0  0  0
    7.7431    5.8685   23.6736 H   0  0  0  0  0  0  0  0  0  0  0  0
   11.3777    4.6754   21.7157 H   0  0  0  0  0  0  0  0  0  0  0  0
    3.0147    2.6520   19.3913 H   0  0  0  0  0  0  0  0  0  0  0  0
    5.6991    0.6995   22.1042 H   0  0  0  0  0  0  0  0  0  0  0  0
    7.3295    3.5250   24.3452 H   0  0  0  0  0  0  0  0  0  0  0  0
   10.9731    2.3291   22.3824 H   0  0  0  0  0  0  0  0  0  0  0  0
    8.9202   -0.1986   25.4206 H   0  0  0  0  0  0  0  0  0  0  0  0
   10.0631   -2.2319   21.8252 H   0  0  0  0  0  0  0  0  0  0  0  0
    4.4051    1.9733   17.4488 H   0  0  0  0  0  0  0  0  0  0  0  0
    8.6898   -2.3534   26.5810 H   0  0  0  0  0  0  0  0  0  0  0  0
    9.9254   -4.3899   22.9914 H   0  0  0  0  0  0  0  0  0  0  0  0
    8.4825   -0.7940   18.0623 H   0  0  0  0  0  0  0  0  0  0  0  0
    9.3705   -6.4746   27.7883 H   0  0  0  0  0  0  0  0  0  0  0  0
    7.6054   -6.5499   27.8634 H   0  0  0  0  0  0  0  0  0  0  0  0
    8.6096   -8.4605   26.5547 H   0  0  0  0  0  0  0  0  0  0  0  0
    7.4835   -7.4764   25.6139 H   0  0  0  0  0  0  0  0  0  0  0  0
   10.3359   -7.9850   25.1529 H   0  0  0  0  0  0  0  0  0  0  0  0
    9.1459   -7.2795   24.0580 H   0  0  0  0  0  0  0  0  0  0  0  0
   10.9408   -5.8640   26.0724 H   0  0  0  0  0  0  0  0  0  0  0  0
   10.7522   -5.5631   24.3346 H   0  0  0  0  0  0  0  0  0  0  0  0
    9.2322    1.1871   24.8426 H   0  0  0  0  0  0  0  0  0  0  0  0
    7.7874    1.1856   23.8602 H   0  0  0  0  0  0  0  0  0  0  0  0
   10.6111    0.4644   22.8838 H   0  0  0  0  0  0  0  0  0  0  0  0
    6.7266    0.4930   16.8305 H   0  0  0  0  0  0  0  0  0  0  0  0
    8.2585   -1.5522   21.1129 H   0  0  0  0  0  0  0  0  0  0  0  0
  1  3  1  0  0  0  0
  1  4  2  0  0  0  0
  2  5  1  0  0  0  0
  2  6  2  0  0  0  0
  3  7  2  0  0  0  0
  4  8  1  0  0  0  0
  5 11  2  0  0  0  0
  6 15  1  0  0  0  0
  7 16  1  0  0  0  0
  8 16  2  0  0  0  0
  9 12  2  0  0  0  0
  9 17  1  0  0  0  0
 10 13  1  0  0  0  0
 10 17  2  0  0  0  0
 11 18  1  0  0  0  0
 12 19  1  0  0  0  0
 13 19  2  0  0  0  0
 14 20  2  0  0  0  0
 14 29  1  0  0  0  0
 15 18  2  0  0  0  0
 15 20  1  0  0  0  0
 16 27  1  0  0  0  0
 17 28  1  0  0  0  0
 18 29  1  0  0  0  0
 19 30  1  0  0  0  0
 20 31  1  0  0  0  0
 21 23  1  0  0  0  0
 21 30  1  0  0  0  0
 21 32  2  0  0  0  0
 22 28  1  1  0  0  0
 22 31  1  0  0  0  0
 22 33  2  0  0  0  0
 23 24  1  0  0  0  0
 24 25  1  0  0  0  0
 25 26  1  0  0  0  0
 26 30  1  0  0  0  0
 27 28  1  0  0  0  0
  1 34  1  0  0  0  0
  2 35  1  0  0  0  0
  3 36  1  0  0  0  0
  4 37  1  0  0  0  0
  5 38  1  0  0  0  0
  6 39  1  0  0  0  0
  7 40  1  0  0  0  0
  8 41  1  0  0  0  0
  9 42  1  0  0  0  0
 10 43  1  0  0  0  0
 11 44  1  0  0  0  0
 12 45  1  0  0  0  0
 13 46  1  0  0  0  0
 14 47  1  0  0  0  0
 23 48  1  0  0  0  0
 23 49  1  0  0  0  0
 24 50  1  0  0  0  0
 24 51  1  0  0  0  0
 25 52  1  0  0  0  0
 25 53  1  0  0  0  0
 26 54  1  0  0  0  0
 26 55  1  0  0  0  0
 27 56  1  0  0  0  0
 27 57  1  0  0  0  0
 28 58  1  0  0  0  0
 29 59  1  0  0  0  0
 31 60  1  0  0  0  0
M  END
> <clash_score>
0.6354372295654396

> <docking_score>
-5.4586639404296875

> <overlap_score>
0.8699353337287903

$$$$
BENZO_300_1
  -OEChem-08232013463D

 57 61  0     1  0  0  0  0  0999 V2000
    4.2750    1.7050   20.8490 C   0  0  0  0  0  0  0  0  0  0  0  0
    3.9160    2.0630   19.5520 C   0  0  0  0  0  0  0  0  0  0  0  0
    5.4210    0.9600   21.0930 C   0  0  0  0  0  0  0  0  0  0  0  0
    9.0720   -1.1280   24.8640 C   0  0  0  0  0  0  0  0  0  0  0  0
    9.7200   -2.2600   22.8630 C   0  0  0  0  0  0  0  0  0  0  0  0
    4.6890    1.6810   18.4640 C   0  0  0  0  0  0  0  0  0  0  0  0
    8.9960   -2.3380   25.5320 C   0  0  0  0  0  0  0  0  0  0  0  0
    9.6730   -3.4710   23.5300 C   0  0  0  0  0  0  0  0  0  0  0  0
    8.1909    3.8305   23.6088 C   0  0  0  0  0  0  0  0  0  0  0  0
    7.6390   -0.2680   18.5410 C   0  0  0  0  0  0  0  0  0  0  0  0
    8.6676    5.0367   23.1446 C   0  0  0  0  0  0  0  0  0  0  0  0
   10.2789    3.2112   22.7970 C   0  0  0  0  0  0  0  0  0  0  0  0
    6.1790    0.5730   19.9990 C   0  0  0  0  0  0  0  0  0  0  0  0
    9.3350   -1.0880   23.5010 C   0  0  0  0  0  0  0  0  0  0  0  0
    9.1243    2.7729   23.4076 C   0  0  0  0  0  0  0  0  0  0  0  0
    5.8300    0.9190   18.6970 C   0  0  0  0  0  0  0  0  0  0  0  0
    9.3070   -3.5340   24.8780 C   0  0  0  0  0  0  0  0  0  0  0  0
    7.3170   -0.1610   19.8550 C   0  0  0  0  0  0  0  0  0  0  0  0
    8.3596   -5.0075   26.6307 C   0  0  0  0  0  0  0  0  0  0  0  0
    9.0420    0.3700   21.5280 C   0  0  0  0  0  0  0  0  0  0  0  0
    8.4579   -6.4048   27.2167 C   0  0  0  0  0  0  0  0  0  0  0  0
    8.4717   -7.4504   26.1157 C   0  0  0  0  0  0  0  0  0  0  0  0
    9.5645   -7.1893   25.0840 C   0  0  0  0  0  0  0  0  0  0  0  0
   10.2327   -5.8252   25.2500 C   0  0  0  0  0  0  0  0  0  0  0  0
    8.8746    1.3393   23.8159 C   0  0  0  0  0  0  0  0  0  0  0  0
    9.4560    0.1560   22.8130 C   0  0  1  0  0  0  0  0  0  0  0  0
    6.7580    0.3810   17.8350 N   0  0  0  0  0  0  0  0  0  0  0  0
    9.2529   -4.7799   25.5644 N   0  0  0  0  0  0  0  0  0  0  0  0
    8.1890   -0.7180   20.8700 N   0  0  0  0  0  0  0  0  0  0  0  0
    7.5989   -4.1866   27.1423 O   0  0  0  0  0  0  0  0  0  0  0  0
    9.2690    1.4140   20.9380 O   0  0  0  0  0  0  0  0  0  0  0  0
   10.2345    4.8913   22.4694 S   0  0  0  0  0  0  0  0  0  0  0  0
    3.6453    2.0152   21.6831 H   0  0  0  0  0  0  0  0  0  0  0  0
    3.0147    2.6520   19.3913 H   0  0  0  0  0  0  0  0  0  0  0  0
    5.6991    0.6995   22.1042 H   0  0  0  0  0  0  0  0  0  0  0  0
    8.9202   -0.1986   25.4206 H   0  0  0  0  0  0  0  0  0  0  0  0
   10.0631   -2.2319   21.8252 H   0  0  0  0  0  0  0  0  0  0  0  0
    4.4051    1.9733   17.4488 H   0  0  0  0  0  0  0  0  0  0  0  0
    8.6898   -2.3534   26.5810 H   0  0  0  0  0  0  0  0  0  0  0  0
    9.9254   -4.3899   22.9914 H   0  0  0  0  0  0  0  0  0  0  0  0
    7.2179    3.7166   24.0697 H   0  0  0  0  0  0  0  0  0  0  0  0
    8.4825   -0.7940   18.0623 H   0  0  0  0  0  0  0  0  0  0  0  0
    8.1705    5.9961   23.1691 H   0  0  0  0  0  0  0  0  0  0  0  0
   11.1481    2.6284   22.5250 H   0  0  0  0  0  0  0  0  0  0  0  0
    9.3705   -6.4746   27.7883 H   0  0  0  0  0  0  0  0  0  0  0  0
    7.6054   -6.5499   27.8634 H   0  0  0  0  0  0  0  0  0  0  0  0
    8.6096   -8.4605   26.5547 H   0  0  0  0  0  0  0  0  0  0  0  0
    7.4835   -7.4764   25.6139 H   0  0  0  0  0  0  0  0  0  0  0  0
   10.3359   -7.9850   25.1529 H   0  0  0  0  0  0  0  0  0  0  0  0
    9.1459   -7.2795   24.0580 H   0  0  0  0  0  0  0  0  0  0  0  0
   10.9408   -5.8640   26.0724 H   0  0  0  0  0  0  0  0  0  0  0  0
   10.7522   -5.5631   24.3346 H   0  0  0  0  0  0  0  0  0  0  0  0
    9.2322    1.1871   24.8426 H   0  0  0  0  0  0  0  0  0  0  0  0
    7.7874    1.1856   23.8602 H   0  0  0  0  0  0  0  0  0  0  0  0
   10.6111    0.4644   22.8838 H   0  0  0  0  0  0  0  0  0  0  0  0
    6.7266    0.4930   16.8305 H   0  0  0  0  0  0  0  0  0  0  0  0
    8.2585   -1.5522   21.1129 H   0  0  0  0  0  0  0  0  0  0  0  0
  1  2  1  0  0  0  0
  1  3  2  0  0  0  0
  2  6  2  0  0  0  0
  3 13  1  0  0  0  0
  4  7  2  0  0  0  0
  4 14  1  0  0  0  0
  5  8  1  0  0  0  0
  5 14  2  0  0  0  0
  6 16  1  0  0  0  0
  7 17  1  0  0  0  0
  8 17  2  0  0  0  0
  9 11  2  0  0  0  0
  9 15  1  0  0  0  0
 10 18  2  0  0  0  0
 10 27  1  0  0  0  0
 11 32  1  0  0  0  0
 12 15  2  0  0  0  0
 12 32  1  0  0  0  0
 13 16  2  0  0  0  0
 13 18  1  0  0  0  0
 14 26  1  0  0  0  0
 15 25  1  0  0  0  0
 16 27  1  0  0  0  0
 17 28  1  0  0  0  0
 18 29  1  0  0  0  0
 19 21  1  0  0  0  0
 19 28  1  0  0  0  0
 19 30  2  0  0  0  0
 20 26  1  1  0  0  0
 20 29  1  0  0  0  0
 20 31  2  0  0  0  0
 21 22  1  0  0  0  0
 22 23  1  0  0  0  0
 23 24  1  0  0  0  0
 24 28  1  0  0  0  0
 25 26  1  0  0  0  0
  1 33  1  0  0  0  0
  2 34  1  0  0  0  0
  3 35  1  0  0  0  0
  4 36  1  0  0  0  0
  5 37  1  0  0  0  0
  6 38  1  0  0  0  0
  7 39  1  0  0  0  0
  8 40  1  0  0  0  0
  9 41  1  0  0  0  0
 10 42  1  0  0  0  0
 11 43  1  0  0  0  0
 12 44  1  0  0  0  0
 21 45  1  0  0  0  0
 21 46  1  0  0  0  0
 22 47  1  0  0  0  0
 22 48  1  0  0  0  0
 23 49  1  0  0  0  0
 23 50  1  0  0  0  0
 24 51  1  0  0  0  0
 24 52  1  0  0  0  0
 25 53  1  0  0  0  0
 25 54  1  0  0  0  0
 26 55  1  0  0  0  0
 27 56  1  0  0  0  0
 29 57  1  0  0  0  0
M  END
> <clash_score>
0.6354372295654396

> <docking_score>
-5.868210792541504

> <overlap_score>
0.8692851066589355

$$$$
BENZO_301_2
  -OEChem-08232013463D

 60 64  0     1  0  0  0  0  0999 V2000
   11.4754    4.9664   23.0810 C   0  0  0  0  0  0  0  0  0  0  0  0
    4.2750    1.7050   20.8490 C   0  0  0  0  0  0  0  0  0  0  0  0
   12.5124    4.1581   22.6156 C   0  0  0  0  0  0  0  0  0  0  0  0
   10.2875    4.3882   23.5285 C   0  0  0  0  0  0  0  0  0  0  0  0
    3.9160    2.0630   19.5520 C   0  0  0  0  0  0  0  0  0  0  0  0
    5.4210    0.9600   21.0930 C   0  0  0  0  0  0  0  0  0  0  0  0
   12.3617    2.7715   22.5976 C   0  0  0  0  0  0  0  0  0  0  0  0
   10.1367    3.0016   23.5105 C   0  0  0  0  0  0  0  0  0  0  0  0
    9.0720   -1.1280   24.8640 C   0  0  0  0  0  0  0  0  0  0  0  0
    9.7200   -2.2600   22.8630 C   0  0  0  0  0  0  0  0  0  0  0  0
    4.6890    1.6810   18.4640 C   0  0  0  0  0  0  0  0  0  0  0  0
    8.9960   -2.3380   25.5320 C   0  0  0  0  0  0  0  0  0  0  0  0
    9.6730   -3.4710   23.5300 C   0  0  0  0  0  0  0  0  0  0  0  0
    7.6390   -0.2680   18.5410 C   0  0  0  0  0  0  0  0  0  0  0  0
    6.1790    0.5730   19.9990 C   0  0  0  0  0  0  0  0  0  0  0  0
   11.1738    2.1933   23.0451 C   0  0  0  0  0  0  0  0  0  0  0  0
    9.3350   -1.0880   23.5010 C   0  0  0  0  0  0  0  0  0  0  0  0
    5.8300    0.9190   18.6970 C   0  0  0  0  0  0  0  0  0  0  0  0
    9.3070   -3.5340   24.8780 C   0  0  0  0  0  0  0  0  0  0  0  0
    7.3170   -0.1610   19.8550 C   0  0  0  0  0  0  0  0  0  0  0  0
    8.3596   -5.0074   26.6306 C   0  0  0  0  0  0  0  0  0  0  0  0
    9.0420    0.3700   21.5280 C   0  0  0  0  0  0  0  0  0  0  0  0
    8.4719   -6.3982   27.2294 C   0  0  0  0  0  0  0  0  0  0  0  0
    9.9251   -6.7607   27.4801 C   0  0  0  0  0  0  0  0  0  0  0  0
   10.7833   -6.6095   26.2280 C   0  0  0  0  0  0  0  0  0  0  0  0
   10.0539   -5.9100   25.0821 C   0  0  0  0  0  0  0  0  0  0  0  0
   11.0096    0.6909   23.0257 C   0  0  0  0  0  0  0  0  0  0  0  0
    9.4560    0.1560   22.8130 C   0  0  2  0  0  0  0  0  0  0  0  0
    6.7580    0.3810   17.8350 N   0  0  0  0  0  0  0  0  0  0  0  0
    9.2529   -4.7797   25.5643 N   0  0  0  0  0  0  0  0  0  0  0  0
    8.1890   -0.7180   20.8700 N   0  0  0  0  0  0  0  0  0  0  0  0
    7.4954   -4.2357   27.0448 O   0  0  0  0  0  0  0  0  0  0  0  0
    9.2690    1.4140   20.9380 O   0  0  0  0  0  0  0  0  0  0  0  0
   11.5934    6.0460   23.0962 H   0  0  0  0  0  0  0  0  0  0  0  0
    3.6453    2.0152   21.6831 H   0  0  0  0  0  0  0  0  0  0  0  0
   13.4379    4.6081   22.2681 H   0  0  0  0  0  0  0  0  0  0  0  0
    9.4802    5.0172   23.8920 H   0  0  0  0  0  0  0  0  0  0  0  0
    3.0147    2.6520   19.3913 H   0  0  0  0  0  0  0  0  0  0  0  0
    5.6991    0.6995   22.1042 H   0  0  0  0  0  0  0  0  0  0  0  0
   13.1750    2.1496   22.2331 H   0  0  0  0  0  0  0  0  0  0  0  0
    9.2076    2.5600   23.8610 H   0  0  0  0  0  0  0  0  0  0  0  0
    8.9202   -0.1986   25.4206 H   0  0  0  0  0  0  0  0  0  0  0  0
   10.0631   -2.2319   21.8252 H   0  0  0  0  0  0  0  0  0  0  0  0
    4.4051    1.9733   17.4488 H   0  0  0  0  0  0  0  0  0  0  0  0
    8.6898   -2.3534   26.5810 H   0  0  0  0  0  0  0  0  0  0  0  0
    9.9254   -4.3899   22.9914 H   0  0  0  0  0  0  0  0  0  0  0  0
    8.4825   -0.7940   18.0623 H   0  0  0  0  0  0  0  0  0  0  0  0
    7.9324   -6.4149   28.1639 H   0  0  0  0  0  0  0  0  0  0  0  0
    8.0254   -7.0921   26.5330 H   0  0  0  0  0  0  0  0  0  0  0  0
   10.3386   -6.1268   28.2921 H   0  0  0  0  0  0  0  0  0  0  0  0
    9.9903   -7.8025   27.8535 H   0  0  0  0  0  0  0  0  0  0  0  0
   11.7036   -6.0405   26.4770 H   0  0  0  0  0  0  0  0  0  0  0  0
   11.1411   -7.6069   25.8917 H   0  0  0  0  0  0  0  0  0  0  0  0
   10.7783   -5.5162   24.3756 H   0  0  0  0  0  0  0  0  0  0  0  0
    9.4042   -6.6189   24.5805 H   0  0  0  0  0  0  0  0  0  0  0  0
   11.6022    0.2720   22.2019 H   0  0  0  0  0  0  0  0  0  0  0  0
   11.4622    0.2902   23.9433 H   0  0  0  0  0  0  0  0  0  0  0  0
    8.9292    0.9747   23.5105 H   0  0  0  0  0  0  0  0  0  0  0  0
    6.7266    0.4930   16.8305 H   0  0  0  0  0  0  0  0  0  0  0  0
    8.2585   -1.5522   21.1129 H   0  0  0  0  0  0  0  0  0  0  0  0
  1  3  1  0  0  0  0
  1  4  2  0  0  0  0
  2  5  1  0  0  0  0
  2  6  2  0  0  0  0
  3  7  2  0  0  0  0
  4  8  1  0  0  0  0
  5 11  2  0  0  0  0
  6 15  1  0  0  0  0
  7 16  1  0  0  0  0
  8 16  2  0  0  0  0
  9 12  2  0  0  0  0
  9 17  1  0  0  0  0
 10 13  1  0  0  0  0
 10 17  2  0  0  0  0
 11 18  1  0  0  0  0
 12 19  1  0  0  0  0
 13 19  2  0  0  0  0
 14 20  2  0  0  0  0
 14 29  1  0  0  0  0
 15 18  2  0  0  0  0
 15 20  1  0  0  0  0
 16 27  1  0  0  0  0
 17 28  1  0  0  0  0
 18 29  1  0  0  0  0
 19 30  1  0  0  0  0
 20 31  1  0  0  0  0
 21 23  1  0  0  0  0
 21 30  1  0  0  0  0
 21 32  2  0  0  0  0
 22 28  1  6  0  0  0
 22 31  1  0  0  0  0
 22 33  2  0  0  0  0
 23 24  1  0  0  0  0
 24 25  1  0  0  0  0
 25 26  1  0  0  0  0
 26 30  1  0  0  0  0
 27 28  1  0  0  0  0
  1 34  1  0  0  0  0
  2 35  1  0  0  0  0
  3 36  1  0  0  0  0
  4 37  1  0  0  0  0
  5 38  1  0  0  0  0
  6 39  1  0  0  0  0
  7 40  1  0  0  0  0
  8 41  1  0  0  0  0
  9 42  1  0  0  0  0
 10 43  1  0  0  0  0
 11 44  1  0  0  0  0
 12 45  1  0  0  0  0
 13 46  1  0  0  0  0
 14 47  1  0  0  0  0
 23 48  1  0  0  0  0
 23 49  1  0  0  0  0
 24 50  1  0  0  0  0
 24 51  1  0  0  0  0
 25 52  1  0  0  0  0
 25 53  1  0  0  0  0
 26 54  1  0  0  0  0
 26 55  1  0  0  0  0
 27 56  1  0  0  0  0
 27 57  1  0  0  0  0
 28 58  1  0  0  0  0
 29 59  1  0  0  0  0
 31 60  1  0  0  0  0
M  END
> <clash_score>
0.7790931276820443

> <docking_score>
-9.076812744140625

> <overlap_score>
0.9542901515960693

$$$$
BENZO_300_2
  -OEChem-08232013463D

 57 61  0     1  0  0  0  0  0999 V2000
    4.2750    1.7050   20.8490 C   0  0  0  0  0  0  0  0  0  0  0  0
    3.9160    2.0630   19.5520 C   0  0  0  0  0  0  0  0  0  0  0  0
    5.4210    0.9600   21.0930 C   0  0  0  0  0  0  0  0  0  0  0  0
    9.0720   -1.1280   24.8640 C   0  0  0  0  0  0  0  0  0  0  0  0
    9.7200   -2.2600   22.8630 C   0  0  0  0  0  0  0  0  0  0  0  0
    4.6890    1.6810   18.4640 C   0  0  0  0  0  0  0  0  0  0  0  0
    8.9960   -2.3380   25.5320 C   0  0  0  0  0  0  0  0  0  0  0  0
    9.6730   -3.4710   23.5300 C   0  0  0  0  0  0  0  0  0  0  0  0
   11.9814    2.9163   22.1204 C   0  0  0  0  0  0  0  0  0  0  0  0
    7.6390   -0.2680   18.5410 C   0  0  0  0  0  0  0  0  0  0  0  0
   11.9562    4.2724   22.3614 C   0  0  0  0  0  0  0  0  0  0  0  0
   10.5621    3.0244   23.9579 C   0  0  0  0  0  0  0  0  0  0  0  0
    6.1790    0.5730   19.9990 C   0  0  0  0  0  0  0  0  0  0  0  0
    9.3350   -1.0880   23.5010 C   0  0  0  0  0  0  0  0  0  0  0  0
   11.1738    2.1933   23.0451 C   0  0  0  0  0  0  0  0  0  0  0  0
    5.8300    0.9190   18.6970 C   0  0  0  0  0  0  0  0  0  0  0  0
    9.3070   -3.5340   24.8780 C   0  0  0  0  0  0  0  0  0  0  0  0
    7.3170   -0.1610   19.8550 C   0  0  0  0  0  0  0  0  0  0  0  0
    8.3596   -5.0074   26.6306 C   0  0  0  0  0  0  0  0  0  0  0  0
    9.0420    0.3700   21.5280 C   0  0  0  0  0  0  0  0  0  0  0  0
    8.4719   -6.3982   27.2294 C   0  0  0  0  0  0  0  0  0  0  0  0
    9.9251   -6.7607   27.4801 C   0  0  0  0  0  0  0  0  0  0  0  0
   10.7833   -6.6095   26.2280 C   0  0  0  0  0  0  0  0  0  0  0  0
   10.0539   -5.9100   25.0821 C   0  0  0  0  0  0  0  0  0  0  0  0
   11.0096    0.6909   23.0257 C   0  0  0  0  0  0  0  0  0  0  0  0
    9.4560    0.1560   22.8130 C   0  0  2  0  0  0  0  0  0  0  0  0
    6.7580    0.3810   17.8350 N   0  0  0  0  0  0  0  0  0  0  0  0
    9.2529   -4.7797   25.5643 N   0  0  0  0  0  0  0  0  0  0  0  0
    8.1890   -0.7180   20.8700 N   0  0  0  0  0  0  0  0  0  0  0  0
    7.4954   -4.2357   27.0448 O   0  0  0  0  0  0  0  0  0  0  0  0
    9.2690    1.4140   20.9380 O   0  0  0  0  0  0  0  0  0  0  0  0
   10.9619    4.6690   23.6979 S   0  0  0  0  0  0  0  0  0  0  0  0
    3.6453    2.0152   21.6831 H   0  0  0  0  0  0  0  0  0  0  0  0
    3.0147    2.6520   19.3913 H   0  0  0  0  0  0  0  0  0  0  0  0
    5.6991    0.6995   22.1042 H   0  0  0  0  0  0  0  0  0  0  0  0
    8.9202   -0.1986   25.4206 H   0  0  0  0  0  0  0  0  0  0  0  0
   10.0631   -2.2319   21.8252 H   0  0  0  0  0  0  0  0  0  0  0  0
    4.4051    1.9733   17.4488 H   0  0  0  0  0  0  0  0  0  0  0  0
    8.6898   -2.3534   26.5810 H   0  0  0  0  0  0  0  0  0  0  0  0
    9.9254   -4.3899   22.9914 H   0  0  0  0  0  0  0  0  0  0  0  0
   12.5539    2.4685   21.3179 H   0  0  0  0  0  0  0  0  0  0  0  0
    8.4825   -0.7940   18.0623 H   0  0  0  0  0  0  0  0  0  0  0  0
   12.4745    5.0491   21.8171 H   0  0  0  0  0  0  0  0  0  0  0  0
    9.9000    2.7485   24.7669 H   0  0  0  0  0  0  0  0  0  0  0  0
    7.9324   -6.4149   28.1639 H   0  0  0  0  0  0  0  0  0  0  0  0
    8.0254   -7.0921   26.5330 H   0  0  0  0  0  0  0  0  0  0  0  0
   10.3386   -6.1268   28.2921 H   0  0  0  0  0  0  0  0  0  0  0  0
    9.9903   -7.8025   27.8535 H   0  0  0  0  0  0  0  0  0  0  0  0
   11.7036   -6.0405   26.4770 H   0  0  0  0  0  0  0  0  0  0  0  0
   11.1411   -7.6069   25.8917 H   0  0  0  0  0  0  0  0  0  0  0  0
   10.7783   -5.5162   24.3756 H   0  0  0  0  0  0  0  0  0  0  0  0
    9.4042   -6.6189   24.5805 H   0  0  0  0  0  0  0  0  0  0  0  0
   11.6022    0.2720   22.2019 H   0  0  0  0  0  0  0  0  0  0  0  0
   11.4622    0.2902   23.9433 H   0  0  0  0  0  0  0  0  0  0  0  0
    8.9292    0.9747   23.5105 H   0  0  0  0  0  0  0  0  0  0  0  0
    6.7266    0.4930   16.8305 H   0  0  0  0  0  0  0  0  0  0  0  0
    8.2585   -1.5522   21.1129 H   0  0  0  0  0  0  0  0  0  0  0  0
  1  2  1  0  0  0  0
  1  3  2  0  0  0  0
  2  6  2  0  0  0  0
  3 13  1  0  0  0  0
  4  7  2  0  0  0  0
  4 14  1  0  0  0  0
  5  8  1  0  0  0  0
  5 14  2  0  0  0  0
  6 16  1  0  0  0  0
  7 17  1  0  0  0  0
  8 17  2  0  0  0  0
  9 11  2  0  0  0  0
  9 15  1  0  0  0  0
 10 18  2  0  0  0  0
 10 27  1  0  0  0  0
 11 32  1  0  0  0  0
 12 15  2  0  0  0  0
 12 32  1  0  0  0  0
 13 16  2  0  0  0  0
 13 18  1  0  0  0  0
 14 26  1  0  0  0  0
 15 25  1  0  0  0  0
 16 27  1  0  0  0  0
 17 28  1  0  0  0  0
 18 29  1  0  0  0  0
 19 21  1  0  0  0  0
 19 28  1  0  0  0  0
 19 30  2  0  0  0  0
 20 26  1  6  0  0  0
 20 29  1  0  0  0  0
 20 31  2  0  0  0  0
 21 22  1  0  0  0  0
 22 23  1  0  0  0  0
 23 24  1  0  0  0  0
 24 28  1  0  0  0  0
 25 26  1  0  0  0  0
  1 33  1  0  0  0  0
  2 34  1  0  0  0  0
  3 35  1  0  0  0  0
  4 36  1  0  0  0  0
  5 37  1  0  0  0  0
  6 38  1  0  0  0  0
  7 39  1  0  0  0  0
  8 40  1  0  0  0  0
  9 41  1  0  0  0  0
 10 42  1  0  0  0  0
 11 43  1  0  0  0  0
 12 44  1  0  0  0  0
 21 45  1  0  0  0  0
 21 46  1  0  0  0  0
 22 47  1  0  0  0  0
 22 48  1  0  0  0  0
 23 49  1  0  0  0  0
 23 50  1  0  0  0  0
 24 51  1  0  0  0  0
 24 52  1  0  0  0  0
 25 53  1  0  0  0  0
 25 54  1  0  0  0  0
 26 55  1  0  0  0  0
 27 56  1  0  0  0  0
 29 57  1  0  0  0  0
M  END
> <clash_score>
0.7790931276820443

> <docking_score>
-8.13476848602295

> <overlap_score>
0.9418492913246155

$$$$
BENZO_302_1
  -OEChem-08232013463D

 60 64  0     1  0  0  0  0  0999 V2000
    4.2750    1.7050   20.8490 C   0  0  0  0  0  0  0  0  0  0  0  0
    3.9160    2.0630   19.5520 C   0  0  0  0  0  0  0  0  0  0  0  0
   10.4915    4.4215   22.2897 C   0  0  0  0  0  0  0  0  0  0  0  0
    5.4210    0.9600   21.0930 C   0  0  0  0  0  0  0  0  0  0  0  0
   10.2611    3.0988   22.6678 C   0  0  0  0  0  0  0  0  0  0  0  0
    9.0720   -1.1280   24.8640 C   0  0  0  0  0  0  0  0  0  0  0  0
    9.7200   -2.2600   22.8630 C   0  0  0  0  0  0  0  0  0  0  0  0
    4.6890    1.6810   18.4640 C   0  0  0  0  0  0  0  0  0  0  0  0
    8.9960   -2.3380   25.5320 C   0  0  0  0  0  0  0  0  0  0  0  0
    9.6730   -3.4710   23.5300 C   0  0  0  0  0  0  0  0  0  0  0  0
    9.5854    5.4184   22.6515 C   0  0  0  0  0  0  0  0  0  0  0  0
    8.2181    3.7697   23.7693 C   0  0  0  0  0  0  0  0  0  0  0  0
    7.6390   -0.2680   18.5410 C   0  0  0  0  0  0  0  0  0  0  0  0
    6.1790    0.5730   19.9990 C   0  0  0  0  0  0  0  0  0  0  0  0
    9.3350   -1.0880   23.5010 C   0  0  0  0  0  0  0  0  0  0  0  0
    9.1243    2.7729   23.4076 C   0  0  0  0  0  0  0  0  0  0  0  0
    5.8300    0.9190   18.6970 C   0  0  0  0  0  0  0  0  0  0  0  0
    9.3070   -3.5340   24.8780 C   0  0  0  0  0  0  0  0  0  0  0  0
    7.3170   -0.1610   19.8550 C   0  0  0  0  0  0  0  0  0  0  0  0
    8.4486    5.0924   23.3912 C   0  0  0  0  0  0  0  0  0  0  0  0
    8.3596   -5.0075   26.6307 C   0  0  0  0  0  0  0  0  0  0  0  0
    9.0420    0.3700   21.5280 C   0  0  0  0  0  0  0  0  0  0  0  0
    8.4579   -6.4048   27.2167 C   0  0  0  0  0  0  0  0  0  0  0  0
    8.4717   -7.4504   26.1157 C   0  0  0  0  0  0  0  0  0  0  0  0
    9.5645   -7.1893   25.0840 C   0  0  0  0  0  0  0  0  0  0  0  0
   10.2327   -5.8252   25.2500 C   0  0  0  0  0  0  0  0  0  0  0  0
    8.8746    1.3393   23.8159 C   0  0  0  0  0  0  0  0  0  0  0  0
    9.4560    0.1560   22.8130 C   0  0  1  0  0  0  0  0  0  0  0  0
    6.7580    0.3810   17.8350 N   0  0  0  0  0  0  0  0  0  0  0  0
    9.2529   -4.7799   25.5644 N   0  0  0  0  0  0  0  0  0  0  0  0
    8.1890   -0.7180   20.8700 N   0  0  0  0  0  0  0  0  0  0  0  0
    7.5989   -4.1866   27.1423 O   0  0  0  0  0  0  0  0  0  0  0  0
    9.2690    1.4140   20.9380 O   0  0  0  0  0  0  0  0  0  0  0  0
    7.3303    6.3225   23.8362 Cl  0  0  0  0  0  0  0  0  0  0  0  0
    3.6453    2.0152   21.6831 H   0  0  0  0  0  0  0  0  0  0  0  0
    3.0147    2.6520   19.3913 H   0  0  0  0  0  0  0  0  0  0  0  0
   11.3768    4.6749   21.7135 H   0  0  0  0  0  0  0  0  0  0  0  0
    5.6991    0.6995   22.1042 H   0  0  0  0  0  0  0  0  0  0  0  0
   10.9725    2.3286   22.3815 H   0  0  0  0  0  0  0  0  0  0  0  0
    8.9202   -0.1986   25.4206 H   0  0  0  0  0  0  0  0  0  0  0  0
   10.0631   -2.2319   21.8252 H   0  0  0  0  0  0  0  0  0  0  0  0
    4.4051    1.9733   17.4488 H   0  0  0  0  0  0  0  0  0  0  0  0
    8.6898   -2.3534   26.5810 H   0  0  0  0  0  0  0  0  0  0  0  0
    9.9254   -4.3899   22.9914 H   0  0  0  0  0  0  0  0  0  0  0  0
    9.7777    6.4450   22.3496 H   0  0  0  0  0  0  0  0  0  0  0  0
    7.3335    3.5106   24.3466 H   0  0  0  0  0  0  0  0  0  0  0  0
    8.4825   -0.7940   18.0623 H   0  0  0  0  0  0  0  0  0  0  0  0
    9.3705   -6.4746   27.7883 H   0  0  0  0  0  0  0  0  0  0  0  0
    7.6054   -6.5499   27.8634 H   0  0  0  0  0  0  0  0  0  0  0  0
    8.6096   -8.4605   26.5547 H   0  0  0  0  0  0  0  0  0  0  0  0
    7.4835   -7.4764   25.6139 H   0  0  0  0  0  0  0  0  0  0  0  0
   10.3359   -7.9850   25.1529 H   0  0  0  0  0  0  0  0  0  0  0  0
    9.1459   -7.2795   24.0580 H   0  0  0  0  0  0  0  0  0  0  0  0
   10.9408   -5.8640   26.0724 H   0  0  0  0  0  0  0  0  0  0  0  0
   10.7522   -5.5631   24.3346 H   0  0  0  0  0  0  0  0  0  0  0  0
    9.2322    1.1871   24.8426 H   0  0  0  0  0  0  0  0  0  0  0  0
    7.7874    1.1856   23.8602 H   0  0  0  0  0  0  0  0  0  0  0  0
   10.6111    0.4644   22.8838 H   0  0  0  0  0  0  0  0  0  0  0  0
    6.7266    0.4930   16.8305 H   0  0  0  0  0  0  0  0  0  0  0  0
    8.2585   -1.5522   21.1129 H   0  0  0  0  0  0  0  0  0  0  0  0
  1  2  1  0  0  0  0
  1  4  2  0  0  0  0
  2  8  2  0  0  0  0
  3  5  2  0  0  0  0
  3 11  1  0  0  0  0
  4 14  1  0  0  0  0
  5 16  1  0  0  0  0
  6  9  2  0  0  0  0
  6 15  1  0  0  0  0
  7 10  1  0  0  0  0
  7 15  2  0  0  0  0
  8 17  1  0  0  0  0
  9 18  1  0  0  0  0
 10 18  2  0  0  0  0
 11 20  2  0  0  0  0
 12 16  2  0  0  0  0
 12 20  1  0  0  0  0
 13 19  2  0  0  0  0
 13 29  1  0  0  0  0
 14 17  2  0  0  0  0
 14 19  1  0  0  0  0
 15 28  1  0  0  0  0
 16 27  1  0  0  0  0
 17 29  1  0  0  0  0
 18 30  1  0  0  0  0
 19 31  1  0  0  0  0
 20 34  1  0  0  0  0
 21 23  1  0  0  0  0
 21 30  1  0  0  0  0
 21 32  2  0  0  0  0
 22 28  1  1  0  0  0
 22 31  1  0  0  0  0
 22 33  2  0  0  0  0
 23 24  1  0  0  0  0
 24 25  1  0  0  0  0
 25 26  1  0  0  0  0
 26 30  1  0  0  0  0
 27 28  1  0  0  0  0
  1 35  1  0  0  0  0
  2 36  1  0  0  0  0
  3 37  1  0  0  0  0
  4 38  1  0  0  0  0
  5 39  1  0  0  0  0
  6 40  1  0  0  0  0
  7 41  1  0  0  0  0
  8 42  1  0  0  0  0
  9 43  1  0  0  0  0
 10 44  1  0  0  0  0
 11 45  1  0  0  0  0
 12 46  1  0  0  0  0
 13 47  1  0  0  0  0
 23 48  1  0  0  0  0
 23 49  1  0  0  0  0
 24 50  1  0  0  0  0
 24 51  1  0  0  0  0
 25 52  1  0  0  0  0
 25 53  1  0  0  0  0
 26 54  1  0  0  0  0
 26 55  1  0  0  0  0
 27 56  1  0  0  0  0
 27 57  1  0  0  0  0
 28 58  1  0  0  0  0
 29 59  1  0  0  0  0
 31 60  1  0  0  0  0
M  END
> <clash_score>
0.6354372295654396

> <docking_score>
-5.357507705688477

> <overlap_score>
0.8687323331832886

$$$$
BENZO_302_2
  -OEChem-08232013463D

 60 64  0     1  0  0  0  0  0999 V2000
    4.2750    1.7050   20.8490 C   0  0  0  0  0  0  0  0  0  0  0  0
    3.9160    2.0630   19.5520 C   0  0  0  0  0  0  0  0  0  0  0  0
   10.2883    4.3880   23.5308 C   0  0  0  0  0  0  0  0  0  0  0  0
    5.4210    0.9600   21.0930 C   0  0  0  0  0  0  0  0  0  0  0  0
   10.1370    3.0015   23.5116 C   0  0  0  0  0  0  0  0  0  0  0  0
    9.0720   -1.1280   24.8640 C   0  0  0  0  0  0  0  0  0  0  0  0
    9.7200   -2.2600   22.8630 C   0  0  0  0  0  0  0  0  0  0  0  0
    4.6890    1.6810   18.4640 C   0  0  0  0  0  0  0  0  0  0  0  0
    8.9960   -2.3380   25.5320 C   0  0  0  0  0  0  0  0  0  0  0  0
    9.6730   -3.4710   23.5300 C   0  0  0  0  0  0  0  0  0  0  0  0
   11.4763    4.9663   23.0835 C   0  0  0  0  0  0  0  0  0  0  0  0
   12.3618    2.7715   22.5978 C   0  0  0  0  0  0  0  0  0  0  0  0
    7.6390   -0.2680   18.5410 C   0  0  0  0  0  0  0  0  0  0  0  0
    6.1790    0.5730   19.9990 C   0  0  0  0  0  0  0  0  0  0  0  0
    9.3350   -1.0880   23.5010 C   0  0  0  0  0  0  0  0  0  0  0  0
   11.1738    2.1933   23.0451 C   0  0  0  0  0  0  0  0  0  0  0  0
    5.8300    0.9190   18.6970 C   0  0  0  0  0  0  0  0  0  0  0  0
    9.3070   -3.5340   24.8780 C   0  0  0  0  0  0  0  0  0  0  0  0
    7.3170   -0.1610   19.8550 C   0  0  0  0  0  0  0  0  0  0  0  0
   12.5130    4.1580   22.6171 C   0  0  0  0  0  0  0  0  0  0  0  0
    8.3596   -5.0074   26.6306 C   0  0  0  0  0  0  0  0  0  0  0  0
    9.0420    0.3700   21.5280 C   0  0  0  0  0  0  0  0  0  0  0  0
    8.4719   -6.3982   27.2294 C   0  0  0  0  0  0  0  0  0  0  0  0
    9.9251   -6.7607   27.4801 C   0  0  0  0  0  0  0  0  0  0  0  0
   10.7833   -6.6095   26.2280 C   0  0  0  0  0  0  0  0  0  0  0  0
   10.0539   -5.9100   25.0821 C   0  0  0  0  0  0  0  0  0  0  0  0
   11.0096    0.6909   23.0257 C   0  0  0  0  0  0  0  0  0  0  0  0
    9.4560    0.1560   22.8130 C   0  0  2  0  0  0  0  0  0  0  0  0
    6.7580    0.3810   17.8350 N   0  0  0  0  0  0  0  0  0  0  0  0
    9.2529   -4.7797   25.5643 N   0  0  0  0  0  0  0  0  0  0  0  0
    8.1890   -0.7180   20.8700 N   0  0  0  0  0  0  0  0  0  0  0  0
    7.4954   -4.2357   27.0448 O   0  0  0  0  0  0  0  0  0  0  0  0
    9.2690    1.4140   20.9380 O   0  0  0  0  0  0  0  0  0  0  0  0
   13.9788    4.8720   22.0664 Cl  0  0  0  0  0  0  0  0  0  0  0  0
    3.6453    2.0152   21.6831 H   0  0  0  0  0  0  0  0  0  0  0  0
    3.0147    2.6520   19.3913 H   0  0  0  0  0  0  0  0  0  0  0  0
    9.4808    5.0170   23.8943 H   0  0  0  0  0  0  0  0  0  0  0  0
    5.6991    0.6995   22.1042 H   0  0  0  0  0  0  0  0  0  0  0  0
    9.2080    2.5596   23.8621 H   0  0  0  0  0  0  0  0  0  0  0  0
    8.9202   -0.1986   25.4206 H   0  0  0  0  0  0  0  0  0  0  0  0
   10.0631   -2.2319   21.8252 H   0  0  0  0  0  0  0  0  0  0  0  0
    4.4051    1.9733   17.4488 H   0  0  0  0  0  0  0  0  0  0  0  0
    8.6898   -2.3534   26.5810 H   0  0  0  0  0  0  0  0  0  0  0  0
    9.9254   -4.3899   22.9914 H   0  0  0  0  0  0  0  0  0  0  0  0
   11.5802    6.0483   23.1046 H   0  0  0  0  0  0  0  0  0  0  0  0
   13.1669    2.1370   22.2346 H   0  0  0  0  0  0  0  0  0  0  0  0
    8.4825   -0.7940   18.0623 H   0  0  0  0  0  0  0  0  0  0  0  0
    7.9324   -6.4149   28.1639 H   0  0  0  0  0  0  0  0  0  0  0  0
    8.0254   -7.0921   26.5330 H   0  0  0  0  0  0  0  0  0  0  0  0
   10.3386   -6.1268   28.2921 H   0  0  0  0  0  0  0  0  0  0  0  0
    9.9903   -7.8025   27.8535 H   0  0  0  0  0  0  0  0  0  0  0  0
   11.7036   -6.0405   26.4770 H   0  0  0  0  0  0  0  0  0  0  0  0
   11.1411   -7.6069   25.8917 H   0  0  0  0  0  0  0  0  0  0  0  0
   10.7783   -5.5162   24.3756 H   0  0  0  0  0  0  0  0  0  0  0  0
    9.4042   -6.6189   24.5805 H   0  0  0  0  0  0  0  0  0  0  0  0
   11.6022    0.2720   22.2019 H   0  0  0  0  0  0  0  0  0  0  0  0
   11.4622    0.2902   23.9433 H   0  0  0  0  0  0  0  0  0  0  0  0
    8.9292    0.9747   23.5105 H   0  0  0  0  0  0  0  0  0  0  0  0
    6.7266    0.4930   16.8305 H   0  0  0  0  0  0  0  0  0  0  0  0
    8.2585   -1.5522   21.1129 H   0  0  0  0  0  0  0  0  0  0  0  0
  1  2  1  0  0  0  0
  1  4  2  0  0  0  0
  2  8  2  0  0  0  0
  3  5  2  0  0  0  0
  3 11  1  0  0  0  0
  4 14  1  0  0  0  0
  5 16  1  0  0  0  0
  6  9  2  0  0  0  0
  6 15  1  0  0  0  0
  7 10  1  0  0  0  0
  7 15  2  0  0  0  0
  8 17  1  0  0  0  0
  9 18  1  0  0  0  0
 10 18  2  0  0  0  0
 11 20  2  0  0  0  0
 12 16  2  0  0  0  0
 12 20  1  0  0  0  0
 13 19  2  0  0  0  0
 13 29  1  0  0  0  0
 14 17  2  0  0  0  0
 14 19  1  0  0  0  0
 15 28  1  0  0  0  0
 16 27  1  0  0  0  0
 17 29  1  0  0  0  0
 18 30  1  0  0  0  0
 19 31  1  0  0  0  0
 20 34  1  0  0  0  0
 21 23  1  0  0  0  0
 21 30  1  0  0  0  0
 21 32  2  0  0  0  0
 22 28  1  6  0  0  0
 22 31  1  0  0  0  0
 22 33  2  0  0  0  0
 23 24  1  0  0  0  0
 24 25  1  0  0  0  0
 25 26  1  0  0  0  0
 26 30  1  0  0  0  0
 27 28  1  0  0  0  0
  1 35  1  0  0  0  0
  2 36  1  0  0  0  0
  3 37  1  0  0  0  0
  4 38  1  0  0  0  0
  5 39  1  0  0  0  0
  6 40  1  0  0  0  0
  7 41  1  0  0  0  0
  8 42  1  0  0  0  0
  9 43  1  0  0  0  0
 10 44  1  0  0  0  0
 11 45  1  0  0  0  0
 12 46  1  0  0  0  0
 13 47  1  0  0  0  0
 23 48  1  0  0  0  0
 23 49  1  0  0  0  0
 24 50  1  0  0  0  0
 24 51  1  0  0  0  0
 25 52  1  0  0  0  0
 25 53  1  0  0  0  0
 26 54  1  0  0  0  0
 26 55  1  0  0  0  0
 27 56  1  0  0  0  0
 27 57  1  0  0  0  0
 28 58  1  0  0  0  0
 29 59  1  0  0  0  0
 31 60  1  0  0  0  0
M  END
> <clash_score>
0.7790931276820443

> <docking_score>
-9.50581169128418

> <overlap_score>
0.9551644921302795

$$$$
BENZO_303_2
  -OEChem-08232013463D

 60 64  0     1  0  0  0  0  0999 V2000
    4.2750    1.7050   20.8490 C   0  0  0  0  0  0  0  0  0  0  0  0
    3.9160    2.0630   19.5520 C   0  0  0  0  0  0  0  0  0  0  0  0
    5.4210    0.9600   21.0930 C   0  0  0  0  0  0  0  0  0  0  0  0
    9.0720   -1.1280   24.8640 C   0  0  0  0  0  0  0  0  0  0  0  0
    9.7200   -2.2600   22.8630 C   0  0  0  0  0  0  0  0  0  0  0  0
    4.6890    1.6810   18.4640 C   0  0  0  0  0  0  0  0  0  0  0  0
    8.9960   -2.3380   25.5320 C   0  0  0  0  0  0  0  0  0  0  0  0
    9.6730   -3.4710   23.5300 C   0  0  0  0  0  0  0  0  0  0  0  0
    8.3074    3.5997   22.6132 C   0  0  0  0  0  0  0  0  0  0  0  0
   10.2002    3.5628   23.7317 C   0  0  0  0  0  0  0  0  0  0  0  0
    7.6390   -0.2680   18.5410 C   0  0  0  0  0  0  0  0  0  0  0  0
    6.1790    0.5730   19.9990 C   0  0  0  0  0  0  0  0  0  0  0  0
    9.3350   -1.0880   23.5010 C   0  0  0  0  0  0  0  0  0  0  0  0
    9.1243    2.7729   23.4076 C   0  0  0  0  0  0  0  0  0  0  0  0
    5.8300    0.9190   18.6970 C   0  0  0  0  0  0  0  0  0  0  0  0
    9.3070   -3.5340   24.8780 C   0  0  0  0  0  0  0  0  0  0  0  0
    7.3170   -0.1610   19.8550 C   0  0  0  0  0  0  0  0  0  0  0  0
    8.3596   -5.0075   26.6307 C   0  0  0  0  0  0  0  0  0  0  0  0
    9.0420    0.3700   21.5280 C   0  0  0  0  0  0  0  0  0  0  0  0
    8.4579   -6.4048   27.2167 C   0  0  0  0  0  0  0  0  0  0  0  0
    8.4717   -7.4504   26.1157 C   0  0  0  0  0  0  0  0  0  0  0  0
    9.5645   -7.1893   25.0840 C   0  0  0  0  0  0  0  0  0  0  0  0
   10.2327   -5.8252   25.2500 C   0  0  0  0  0  0  0  0  0  0  0  0
   10.8289    5.9272   23.1904 C   0  0  0  0  0  0  0  0  0  0  0  0
    8.8746    1.3393   23.8159 C   0  0  0  0  0  0  0  0  0  0  0  0
    9.4560    0.1560   22.8130 C   0  0  2  0  0  0  0  0  0  0  0  0
    8.8204    4.8212   22.4432 N   0  0  0  0  0  0  0  0  0  0  0  0
    6.7580    0.3810   17.8350 N   0  0  0  0  0  0  0  0  0  0  0  0
    9.9711    4.7678   23.1353 N   0  0  0  0  0  0  0  0  0  0  0  0
    9.2529   -4.7799   25.5644 N   0  0  0  0  0  0  0  0  0  0  0  0
    8.1890   -0.7180   20.8700 N   0  0  0  0  0  0  0  0  0  0  0  0
    7.5989   -4.1866   27.1423 O   0  0  0  0  0  0  0  0  0  0  0  0
    9.2690    1.4140   20.9380 O   0  0  0  0  0  0  0  0  0  0  0  0
    3.6453    2.0152   21.6831 H   0  0  0  0  0  0  0  0  0  0  0  0
    3.0147    2.6520   19.3913 H   0  0  0  0  0  0  0  0  0  0  0  0
    5.6991    0.6995   22.1042 H   0  0  0  0  0  0  0  0  0  0  0  0
    8.9202   -0.1986   25.4206 H   0  0  0  0  0  0  0  0  0  0  0  0
   10.0631   -2.2319   21.8252 H   0  0  0  0  0  0  0  0  0  0  0  0
    4.4051    1.9733   17.4488 H   0  0  0  0  0  0  0  0  0  0  0  0
    8.6898   -2.3534   26.5810 H   0  0  0  0  0  0  0  0  0  0  0  0
    9.9254   -4.3899   22.9914 H   0  0  0  0  0  0  0  0  0  0  0  0
    7.3589    3.3656   22.1509 H   0  0  0  0  0  0  0  0  0  0  0  0
   11.0867    3.3751   24.3223 H   0  0  0  0  0  0  0  0  0  0  0  0
    8.4825   -0.7940   18.0623 H   0  0  0  0  0  0  0  0  0  0  0  0
    9.3705   -6.4746   27.7883 H   0  0  0  0  0  0  0  0  0  0  0  0
    7.6054   -6.5499   27.8634 H   0  0  0  0  0  0  0  0  0  0  0  0
    8.6096   -8.4605   26.5547 H   0  0  0  0  0  0  0  0  0  0  0  0
    7.4835   -7.4764   25.6139 H   0  0  0  0  0  0  0  0  0  0  0  0
   10.3359   -7.9850   25.1529 H   0  0  0  0  0  0  0  0  0  0  0  0
    9.1459   -7.2795   24.0580 H   0  0  0  0  0  0  0  0  0  0  0  0
   10.9408   -5.8640   26.0724 H   0  0  0  0  0  0  0  0  0  0  0  0
   10.7522   -5.5631   24.3346 H   0  0  0  0  0  0  0  0  0  0  0  0
   11.5266    5.8708   22.3507 H   0  0  0  0  0  0  0  0  0  0  0  0
   10.2208    6.8335   23.1219 H   0  0  0  0  0  0  0  0  0  0  0  0
   11.3712    5.9307   24.1400 H   0  0  0  0  0  0  0  0  0  0  0  0
    9.2322    1.1871   24.8426 H   0  0  0  0  0  0  0  0  0  0  0  0
    7.7874    1.1856   23.8602 H   0  0  0  0  0  0  0  0  0  0  0  0
   10.6111    0.4644   22.8838 H   0  0  0  0  0  0  0  0  0  0  0  0
    6.7266    0.4930   16.8305 H   0  0  0  0  0  0  0  0  0  0  0  0
    8.2585   -1.5522   21.1129 H   0  0  0  0  0  0  0  0  0  0  0  0
  1  2  1  0  0  0  0
  1  3  2  0  0  0  0
  2  6  2  0  0  0  0
  3 12  1  0  0  0  0
  4  7  2  0  0  0  0
  4 13  1  0  0  0  0
  5  8  1  0  0  0  0
  5 13  2  0  0  0  0
  6 15  1  0  0  0  0
  7 16  1  0  0  0  0
  8 16  2  0  0  0  0
  9 14  1  0  0  0  0
  9 27  2  0  0  0  0
 10 14  2  0  0  0  0
 10 29  1  0  0  0  0
 11 17  2  0  0  0  0
 11 28  1  0  0  0  0
 12 15  2  0  0  0  0
 12 17  1  0  0  0  0
 13 26  1  0  0  0  0
 14 25  1  0  0  0  0
 15 28  1  0  0  0  0
 16 30  1  0  0  0  0
 17 31  1  0  0  0  0
 18 20  1  0  0  0  0
 18 30  1  0  0  0  0
 18 32  2  0  0  0  0
 19 26  1  0  0  0  0
 19 31  1  0  0  0  0
 19 33  2  0  0  0  0
 20 21  1  0  0  0  0
 21 22  1  0  0  0  0
 22 23  1  0  0  0  0
 23 30  1  0  0  0  0
 24 29  1  0  0  0  0
 25 26  1  6  0  0  0
 27 29  1  0  0  0  0
  1 34  1  0  0  0  0
  2 35  1  0  0  0  0
  3 36  1  0  0  0  0
  4 37  1  0  0  0  0
  5 38  1  0  0  0  0
  6 39  1  0  0  0  0
  7 40  1  0  0  0  0
  8 41  1  0  0  0  0
  9 42  1  0  0  0  0
 10 43  1  0  0  0  0
 11 44  1  0  0  0  0
 20 45  1  0  0  0  0
 20 46  1  0  0  0  0
 21 47  1  0  0  0  0
 21 48  1  0  0  0  0
 22 49  1  0  0  0  0
 22 50  1  0  0  0  0
 23 51  1  0  0  0  0
 23 52  1  0  0  0  0
 24 53  1  0  0  0  0
 24 54  1  0  0  0  0
 24 55  1  0  0  0  0
 25 56  1  0  0  0  0
 25 57  1  0  0  0  0
 26 58  1  0  0  0  0
 28 59  1  0  0  0  0
 31 60  1  0  0  0  0
M  END
> <clash_score>
0.6354372295654396

> <docking_score>
-6.387027740478516

> <overlap_score>
0.8631774187088013

$$$$
BENZO_305_1
  -OEChem-08232013463D

 59 63  0     1  0  0  0  0  0999 V2000
   11.2028    2.1856   27.3380 C   0  0  0  0  0  0  0  0  0  0  0  0
    4.2750    1.7050   20.8490 C   0  0  0  0  0  0  0  0  0  0  0  0
    9.8186    2.3562   27.3597 C   0  0  0  0  0  0  0  0  0  0  0  0
   11.8322    1.7378   26.1765 C   0  0  0  0  0  0  0  0  0  0  0  0
    3.9160    2.0630   19.5520 C   0  0  0  0  0  0  0  0  0  0  0  0
    5.4210    0.9600   21.0930 C   0  0  0  0  0  0  0  0  0  0  0  0
    9.0637    2.0789   26.2200 C   0  0  0  0  0  0  0  0  0  0  0  0
   11.0773    1.4604   25.0368 C   0  0  0  0  0  0  0  0  0  0  0  0
    9.0720   -1.1280   24.8640 C   0  0  0  0  0  0  0  0  0  0  0  0
    9.7200   -2.2600   22.8630 C   0  0  0  0  0  0  0  0  0  0  0  0
    4.6890    1.6810   18.4640 C   0  0  0  0  0  0  0  0  0  0  0  0
    8.9960   -2.3380   25.5320 C   0  0  0  0  0  0  0  0  0  0  0  0
    9.6730   -3.4710   23.5300 C   0  0  0  0  0  0  0  0  0  0  0  0
    7.6390   -0.2680   18.5410 C   0  0  0  0  0  0  0  0  0  0  0  0
    6.1790    0.5730   19.9990 C   0  0  0  0  0  0  0  0  0  0  0  0
    9.6931    1.6310   25.0585 C   0  0  0  0  0  0  0  0  0  0  0  0
    9.3350   -1.0880   23.5010 C   0  0  0  0  0  0  0  0  0  0  0  0
    5.8300    0.9190   18.6970 C   0  0  0  0  0  0  0  0  0  0  0  0
    9.3070   -3.5340   24.8780 C   0  0  0  0  0  0  0  0  0  0  0  0
    7.3170   -0.1610   19.8550 C   0  0  0  0  0  0  0  0  0  0  0  0
    9.0420    0.3700   21.5280 C   0  0  0  0  0  0  0  0  0  0  0  0
    8.8802   -4.8468   26.9522 C   0  0  0  0  0  0  0  0  0  0  0  0
    9.1312   -5.9971   24.8013 C   0  0  0  0  0  0  0  0  0  0  0  0
    7.4537   -5.3795   27.0345 C   0  0  0  0  0  0  0  0  0  0  0  0
    7.6970   -6.5030   24.9624 C   0  0  0  0  0  0  0  0  0  0  0  0
    8.8757    1.3301   23.8233 C   0  0  0  0  0  0  0  0  0  0  0  0
    9.4560    0.1560   22.8130 C   0  0  1  0  0  0  0  0  0  0  0  0
    6.7580    0.3810   17.8350 N   0  0  0  0  0  0  0  0  0  0  0  0
    9.2564   -4.7368   25.5411 N   0  0  0  0  0  0  0  0  0  0  0  0
    8.1890   -0.7180   20.8700 N   0  0  0  0  0  0  0  0  0  0  0  0
    9.2690    1.4140   20.9380 O   0  0  0  0  0  0  0  0  0  0  0  0
    7.3604   -6.6337   26.3481 O   0  0  0  0  0  0  0  0  0  0  0  0
   11.7905    2.4029   28.2251 H   0  0  0  0  0  0  0  0  0  0  0  0
    3.6453    2.0152   21.6831 H   0  0  0  0  0  0  0  0  0  0  0  0
    9.3284    2.7060   28.2636 H   0  0  0  0  0  0  0  0  0  0  0  0
   12.9099    1.6059   26.1589 H   0  0  0  0  0  0  0  0  0  0  0  0
    3.0147    2.6520   19.3913 H   0  0  0  0  0  0  0  0  0  0  0  0
    5.6991    0.6995   22.1042 H   0  0  0  0  0  0  0  0  0  0  0  0
    7.9857    2.2145   26.2462 H   0  0  0  0  0  0  0  0  0  0  0  0
   11.5762    1.1118   24.1364 H   0  0  0  0  0  0  0  0  0  0  0  0
    8.9214   -0.1986   25.4206 H   0  0  0  0  0  0  0  0  0  0  0  0
   10.0622   -2.2326   21.8251 H   0  0  0  0  0  0  0  0  0  0  0  0
    4.4051    1.9733   17.4488 H   0  0  0  0  0  0  0  0  0  0  0  0
    8.6882   -2.3542   26.5803 H   0  0  0  0  0  0  0  0  0  0  0  0
    9.9258   -4.3896   22.9914 H   0  0  0  0  0  0  0  0  0  0  0  0
    8.4825   -0.7940   18.0623 H   0  0  0  0  0  0  0  0  0  0  0  0
    8.9393   -3.8760   27.4548 H   0  0  0  0  0  0  0  0  0  0  0  0
    9.5624   -5.5414   27.4554 H   0  0  0  0  0  0  0  0  0  0  0  0
    9.8284   -6.7306   25.2156 H   0  0  0  0  0  0  0  0  0  0  0  0
    9.3541   -5.8584   23.7415 H   0  0  0  0  0  0  0  0  0  0  0  0
    7.1818   -5.5525   28.0779 H   0  0  0  0  0  0  0  0  0  0  0  0
    6.7334   -4.6727   26.6129 H   0  0  0  0  0  0  0  0  0  0  0  0
    6.9790   -5.8386   24.4676 H   0  0  0  0  0  0  0  0  0  0  0  0
    7.6015   -7.4918   24.5034 H   0  0  0  0  0  0  0  0  0  0  0  0
    7.8424    1.1050   24.1181 H   0  0  0  0  0  0  0  0  0  0  0  0
    8.8145    2.2508   23.2266 H   0  0  0  0  0  0  0  0  0  0  0  0
   10.6103    0.4565   22.8881 H   0  0  0  0  0  0  0  0  0  0  0  0
    6.7266    0.4930   16.8305 H   0  0  0  0  0  0  0  0  0  0  0  0
    8.2408   -1.5631   21.0968 H   0  0  0  0  0  0  0  0  0  0  0  0
  1  3  1  0  0  0  0
  1  4  2  0  0  0  0
  2  5  1  0  0  0  0
  2  6  2  0  0  0  0
  3  7  2  0  0  0  0
  4  8  1  0  0  0  0
  5 11  2  0  0  0  0
  6 15  1  0  0  0  0
  7 16  1  0  0  0  0
  8 16  2  0  0  0  0
  9 12  2  0  0  0  0
  9 17  1  0  0  0  0
 10 13  1  0  0  0  0
 10 17  2  0  0  0  0
 11 18  1  0  0  0  0
 12 19  1  0  0  0  0
 13 19  2  0  0  0  0
 14 20  2  0  0  0  0
 14 28  1  0  0  0  0
 15 18  2  0  0  0  0
 15 20  1  0  0  0  0
 16 26  1  0  0  0  0
 17 27  1  0  0  0  0
 18 28  1  0  0  0  0
 19 29  1  0  0  0  0
 20 30  1  0  0  0  0
 21 27  1  1  0  0  0
 21 30  1  0  0  0  0
 21 31  2  0  0  0  0
 22 24  1  0  0  0  0
 22 29  1  0  0  0  0
 23 25  1  0  0  0  0
 23 29  1  0  0  0  0
 24 32  1  0  0  0  0
 25 32  1  0  0  0  0
 26 27  1  0  0  0  0
  1 33  1  0  0  0  0
  2 34  1  0  0  0  0
  3 35  1  0  0  0  0
  4 36  1  0  0  0  0
  5 37  1  0  0  0  0
  6 38  1  0  0  0  0
  7 39  1  0  0  0  0
  8 40  1  0  0  0  0
  9 41  1  0  0  0  0
 10 42  1  0  0  0  0
 11 43  1  0  0  0  0
 12 44  1  0  0  0  0
 13 45  1  0  0  0  0
 14 46  1  0  0  0  0
 22 47  1  0  0  0  0
 22 48  1  0  0  0  0
 23 49  1  0  0  0  0
 23 50  1  0  0  0  0
 24 51  1  0  0  0  0
 24 52  1  0  0  0  0
 25 53  1  0  0  0  0
 25 54  1  0  0  0  0
 26 55  1  0  0  0  0
 26 56  1  0  0  0  0
 27 57  1  0  0  0  0
 28 58  1  0  0  0  0
 30 59  1  0  0  0  0
M  END
> <clash_score>
4.641814281123787

> <docking_score>
-5.139291763305664

> <overlap_score>
0.8608613610267639

$$$$
BENZO_304_1
  -OEChem-08232013463D

 56 60  0     1  0  0  0  0  0999 V2000
    4.2750    1.7050   20.8490 C   0  0  0  0  0  0  0  0  0  0  0  0
    3.9160    2.0630   19.5520 C   0  0  0  0  0  0  0  0  0  0  0  0
    5.4210    0.9600   21.0930 C   0  0  0  0  0  0  0  0  0  0  0  0
    9.0720   -1.1280   24.8640 C   0  0  0  0  0  0  0  0  0  0  0  0
    9.7200   -2.2600   22.8630 C   0  0  0  0  0  0  0  0  0  0  0  0
    4.6890    1.6810   18.4640 C   0  0  0  0  0  0  0  0  0  0  0  0
    8.9960   -2.3380   25.5320 C   0  0  0  0  0  0  0  0  0  0  0  0
    9.6730   -3.4710   23.5300 C   0  0  0  0  0  0  0  0  0  0  0  0
   10.3314    3.2065   22.7858 C   0  0  0  0  0  0  0  0  0  0  0  0
    7.6390   -0.2680   18.5410 C   0  0  0  0  0  0  0  0  0  0  0  0
   10.3108    4.5599   22.5298 C   0  0  0  0  0  0  0  0  0  0  0  0
    8.2468    3.7959   23.6280 C   0  0  0  0  0  0  0  0  0  0  0  0
    6.1790    0.5730   19.9990 C   0  0  0  0  0  0  0  0  0  0  0  0
    9.3350   -1.0880   23.5010 C   0  0  0  0  0  0  0  0  0  0  0  0
    9.1357    2.7638   23.4219 C   0  0  0  0  0  0  0  0  0  0  0  0
    5.8300    0.9190   18.6970 C   0  0  0  0  0  0  0  0  0  0  0  0
    9.3070   -3.5340   24.8780 C   0  0  0  0  0  0  0  0  0  0  0  0
    7.3170   -0.1610   19.8550 C   0  0  0  0  0  0  0  0  0  0  0  0
    9.0420    0.3700   21.5280 C   0  0  0  0  0  0  0  0  0  0  0  0
    8.8802   -4.8468   26.9522 C   0  0  0  0  0  0  0  0  0  0  0  0
    9.1312   -5.9971   24.8013 C   0  0  0  0  0  0  0  0  0  0  0  0
    7.4537   -5.3795   27.0345 C   0  0  0  0  0  0  0  0  0  0  0  0
    7.6970   -6.5030   24.9624 C   0  0  0  0  0  0  0  0  0  0  0  0
    8.8757    1.3301   23.8233 C   0  0  0  0  0  0  0  0  0  0  0  0
    9.4560    0.1560   22.8130 C   0  0  1  0  0  0  0  0  0  0  0  0
    6.7580    0.3810   17.8350 N   0  0  0  0  0  0  0  0  0  0  0  0
    9.2564   -4.7368   25.5411 N   0  0  0  0  0  0  0  0  0  0  0  0
    8.1890   -0.7180   20.8700 N   0  0  0  0  0  0  0  0  0  0  0  0
    9.2690    1.4140   20.9380 O   0  0  0  0  0  0  0  0  0  0  0  0
    7.3604   -6.6337   26.3481 O   0  0  0  0  0  0  0  0  0  0  0  0
    8.8543    5.2911   23.0556 S   0  0  0  0  0  0  0  0  0  0  0  0
    3.6453    2.0152   21.6831 H   0  0  0  0  0  0  0  0  0  0  0  0
    3.0147    2.6520   19.3913 H   0  0  0  0  0  0  0  0  0  0  0  0
    5.6991    0.6995   22.1042 H   0  0  0  0  0  0  0  0  0  0  0  0
    8.9214   -0.1986   25.4206 H   0  0  0  0  0  0  0  0  0  0  0  0
   10.0622   -2.2326   21.8251 H   0  0  0  0  0  0  0  0  0  0  0  0
    4.4051    1.9733   17.4488 H   0  0  0  0  0  0  0  0  0  0  0  0
    8.6882   -2.3542   26.5803 H   0  0  0  0  0  0  0  0  0  0  0  0
    9.9258   -4.3896   22.9914 H   0  0  0  0  0  0  0  0  0  0  0  0
   11.1669    2.5681   22.5277 H   0  0  0  0  0  0  0  0  0  0  0  0
    8.4825   -0.7940   18.0623 H   0  0  0  0  0  0  0  0  0  0  0  0
   11.0815    5.1544   22.0599 H   0  0  0  0  0  0  0  0  0  0  0  0
    7.2694    3.7480   24.0880 H   0  0  0  0  0  0  0  0  0  0  0  0
    8.9393   -3.8760   27.4548 H   0  0  0  0  0  0  0  0  0  0  0  0
    9.5624   -5.5414   27.4554 H   0  0  0  0  0  0  0  0  0  0  0  0
    9.8284   -6.7306   25.2156 H   0  0  0  0  0  0  0  0  0  0  0  0
    9.3541   -5.8584   23.7415 H   0  0  0  0  0  0  0  0  0  0  0  0
    7.1818   -5.5525   28.0779 H   0  0  0  0  0  0  0  0  0  0  0  0
    6.7334   -4.6727   26.6129 H   0  0  0  0  0  0  0  0  0  0  0  0
    6.9790   -5.8386   24.4676 H   0  0  0  0  0  0  0  0  0  0  0  0
    7.6015   -7.4918   24.5034 H   0  0  0  0  0  0  0  0  0  0  0  0
    9.2390    1.1684   24.8466 H   0  0  0  0  0  0  0  0  0  0  0  0
    7.7875    1.1860   23.8742 H   0  0  0  0  0  0  0  0  0  0  0  0
   10.6103    0.4565   22.8881 H   0  0  0  0  0  0  0  0  0  0  0  0
    6.7266    0.4930   16.8305 H   0  0  0  0  0  0  0  0  0  0  0  0
    8.2408   -1.5631   21.0968 H   0  0  0  0  0  0  0  0  0  0  0  0
  1  2  1  0  0  0  0
  1  3  2  0  0  0  0
  2  6  2  0  0  0  0
  3 13  1  0  0  0  0
  4  7  2  0  0  0  0
  4 14  1  0  0  0  0
  5  8  1  0  0  0  0
  5 14  2  0  0  0  0
  6 16  1  0  0  0  0
  7 17  1  0  0  0  0
  8 17  2  0  0  0  0
  9 11  2  0  0  0  0
  9 15  1  0  0  0  0
 10 18  2  0  0  0  0
 10 26  1  0  0  0  0
 11 31  1  0  0  0  0
 12 15  2  0  0  0  0
 12 31  1  0  0  0  0
 13 16  2  0  0  0  0
 13 18  1  0  0  0  0
 14 25  1  0  0  0  0
 15 24  1  0  0  0  0
 16 26  1  0  0  0  0
 17 27  1  0  0  0  0
 18 28  1  0  0  0  0
 19 25  1  1  0  0  0
 19 28  1  0  0  0  0
 19 29  2  0  0  0  0
 20 22  1  0  0  0  0
 20 27  1  0  0  0  0
 21 23  1  0  0  0  0
 21 27  1  0  0  0  0
 22 30  1  0  0  0  0
 23 30  1  0  0  0  0
 24 25  1  0  0  0  0
  1 32  1  0  0  0  0
  2 33  1  0  0  0  0
  3 34  1  0  0  0  0
  4 35  1  0  0  0  0
  5 36  1  0  0  0  0
  6 37  1  0  0  0  0
  7 38  1  0  0  0  0
  8 39  1  0  0  0  0
  9 40  1  0  0  0  0
 10 41  1  0  0  0  0
 11 42  1  0  0  0  0
 12 43  1  0  0  0  0
 20 44  1  0  0  0  0
 20 45  1  0  0  0  0
 21 46  1  0  0  0  0
 21 47  1  0  0  0  0
 22 48  1  0  0  0  0
 22 49  1  0  0  0  0
 23 50  1  0  0  0  0
 23 51  1  0  0  0  0
 24 52  1  0  0  0  0
 24 53  1  0  0  0  0
 25 54  1  0  0  0  0
 26 55  1  0  0  0  0
 28 56  1  0  0  0  0
M  END
> <clash_score>
0

> <docking_score>
-7.018942356109619

> <overlap_score>
0.861678421497345

$$$$
BENZO_303_1
  -OEChem-08232013463D

 60 64  0     1  0  0  0  0  0999 V2000
    4.2750    1.7050   20.8490 C   0  0  0  0  0  0  0  0  0  0  0  0
    3.9160    2.0630   19.5520 C   0  0  0  0  0  0  0  0  0  0  0  0
    5.4210    0.9600   21.0930 C   0  0  0  0  0  0  0  0  0  0  0  0
    9.0720   -1.1280   24.8640 C   0  0  0  0  0  0  0  0  0  0  0  0
    9.7200   -2.2600   22.8630 C   0  0  0  0  0  0  0  0  0  0  0  0
    4.6890    1.6810   18.4640 C   0  0  0  0  0  0  0  0  0  0  0  0
    8.9960   -2.3380   25.5320 C   0  0  0  0  0  0  0  0  0  0  0  0
    9.6730   -3.4710   23.5300 C   0  0  0  0  0  0  0  0  0  0  0  0
   10.2449    3.1582   23.4787 C   0  0  0  0  0  0  0  0  0  0  0  0
   12.2661    2.9236   22.6452 C   0  0  0  0  0  0  0  0  0  0  0  0
    7.6390   -0.2680   18.5410 C   0  0  0  0  0  0  0  0  0  0  0  0
    6.1790    0.5730   19.9990 C   0  0  0  0  0  0  0  0  0  0  0  0
    9.3350   -1.0880   23.5010 C   0  0  0  0  0  0  0  0  0  0  0  0
   11.1738    2.1933   23.0451 C   0  0  0  0  0  0  0  0  0  0  0  0
    5.8300    0.9190   18.6970 C   0  0  0  0  0  0  0  0  0  0  0  0
    9.3070   -3.5340   24.8780 C   0  0  0  0  0  0  0  0  0  0  0  0
    7.3170   -0.1610   19.8550 C   0  0  0  0  0  0  0  0  0  0  0  0
    8.3596   -5.0074   26.6306 C   0  0  0  0  0  0  0  0  0  0  0  0
    9.0420    0.3700   21.5280 C   0  0  0  0  0  0  0  0  0  0  0  0
    8.4719   -6.3982   27.2294 C   0  0  0  0  0  0  0  0  0  0  0  0
    9.9251   -6.7607   27.4801 C   0  0  0  0  0  0  0  0  0  0  0  0
   10.7833   -6.6095   26.2280 C   0  0  0  0  0  0  0  0  0  0  0  0
   10.0539   -5.9100   25.0821 C   0  0  0  0  0  0  0  0  0  0  0  0
   12.7722    5.3769   22.5853 C   0  0  0  0  0  0  0  0  0  0  0  0
   11.0096    0.6909   23.0257 C   0  0  0  0  0  0  0  0  0  0  0  0
    9.4560    0.1560   22.8130 C   0  0  1  0  0  0  0  0  0  0  0  0
   10.7069    4.4062   23.3651 N   0  0  0  0  0  0  0  0  0  0  0  0
    6.7580    0.3810   17.8350 N   0  0  0  0  0  0  0  0  0  0  0  0
   11.9381    4.2306   22.8557 N   0  0  0  0  0  0  0  0  0  0  0  0
    9.2529   -4.7797   25.5643 N   0  0  0  0  0  0  0  0  0  0  0  0
    8.1890   -0.7180   20.8700 N   0  0  0  0  0  0  0  0  0  0  0  0
    7.4954   -4.2357   27.0448 O   0  0  0  0  0  0  0  0  0  0  0  0
    9.2690    1.4140   20.9380 O   0  0  0  0  0  0  0  0  0  0  0  0
    3.6453    2.0152   21.6831 H   0  0  0  0  0  0  0  0  0  0  0  0
    3.0147    2.6520   19.3913 H   0  0  0  0  0  0  0  0  0  0  0  0
    5.6991    0.6995   22.1042 H   0  0  0  0  0  0  0  0  0  0  0  0
    8.9202   -0.1986   25.4206 H   0  0  0  0  0  0  0  0  0  0  0  0
   10.0631   -2.2319   21.8252 H   0  0  0  0  0  0  0  0  0  0  0  0
    4.4051    1.9733   17.4488 H   0  0  0  0  0  0  0  0  0  0  0  0
    8.6898   -2.3534   26.5810 H   0  0  0  0  0  0  0  0  0  0  0  0
    9.9254   -4.3899   22.9914 H   0  0  0  0  0  0  0  0  0  0  0  0
    9.2505    3.0063   23.8739 H   0  0  0  0  0  0  0  0  0  0  0  0
   13.2256    2.6317   22.2400 H   0  0  0  0  0  0  0  0  0  0  0  0
    8.4825   -0.7940   18.0623 H   0  0  0  0  0  0  0  0  0  0  0  0
    7.9324   -6.4149   28.1639 H   0  0  0  0  0  0  0  0  0  0  0  0
    8.0254   -7.0921   26.5330 H   0  0  0  0  0  0  0  0  0  0  0  0
   10.3386   -6.1268   28.2921 H   0  0  0  0  0  0  0  0  0  0  0  0
    9.9903   -7.8025   27.8535 H   0  0  0  0  0  0  0  0  0  0  0  0
   11.7036   -6.0405   26.4770 H   0  0  0  0  0  0  0  0  0  0  0  0
   11.1411   -7.6069   25.8917 H   0  0  0  0  0  0  0  0  0  0  0  0
   10.7783   -5.5162   24.3756 H   0  0  0  0  0  0  0  0  0  0  0  0
    9.4042   -6.6189   24.5805 H   0  0  0  0  0  0  0  0  0  0  0  0
   12.5768    5.7019   21.5599 H   0  0  0  0  0  0  0  0  0  0  0  0
   12.5325    6.1764   23.2919 H   0  0  0  0  0  0  0  0  0  0  0  0
   13.8223    5.0961   22.7050 H   0  0  0  0  0  0  0  0  0  0  0  0
   11.6022    0.2720   22.2019 H   0  0  0  0  0  0  0  0  0  0  0  0
   11.4622    0.2902   23.9433 H   0  0  0  0  0  0  0  0  0  0  0  0
    8.9292    0.9747   23.5105 H   0  0  0  0  0  0  0  0  0  0  0  0
    6.7266    0.4930   16.8305 H   0  0  0  0  0  0  0  0  0  0  0  0
    8.2585   -1.5522   21.1129 H   0  0  0  0  0  0  0  0  0  0  0  0
  1  2  1  0  0  0  0
  1  3  2  0  0  0  0
  2  6  2  0  0  0  0
  3 12  1  0  0  0  0
  4  7  2  0  0  0  0
  4 13  1  0  0  0  0
  5  8  1  0  0  0  0
  5 13  2  0  0  0  0
  6 15  1  0  0  0  0
  7 16  1  0  0  0  0
  8 16  2  0  0  0  0
  9 14  1  0  0  0  0
  9 27  2  0  0  0  0
 10 14  2  0  0  0  0
 10 29  1  0  0  0  0
 11 17  2  0  0  0  0
 11 28  1  0  0  0  0
 12 15  2  0  0  0  0
 12 17  1  0  0  0  0
 13 26  1  0  0  0  0
 14 25  1  0  0  0  0
 15 28  1  0  0  0  0
 16 30  1  0  0  0  0
 17 31  1  0  0  0  0
 18 20  1  0  0  0  0
 18 30  1  0  0  0  0
 18 32  2  0  0  0  0
 19 26  1  0  0  0  0
 19 31  1  0  0  0  0
 19 33  2  0  0  0  0
 20 21  1  0  0  0  0
 21 22  1  0  0  0  0
 22 23  1  0  0  0  0
 23 30  1  0  0  0  0
 24 29  1  0  0  0  0
 25 26  1  1  0  0  0
 27 29  1  0  0  0  0
  1 34  1  0  0  0  0
  2 35  1  0  0  0  0
  3 36  1  0  0  0  0
  4 37  1  0  0  0  0
  5 38  1  0  0  0  0
  6 39  1  0  0  0  0
  7 40  1  0  0  0  0
  8 41  1  0  0  0  0
  9 42  1  0  0  0  0
 10 43  1  0  0  0  0
 11 44  1  0  0  0  0
 20 45  1  0  0  0  0
 20 46  1  0  0  0  0
 21 47  1  0  0  0  0
 21 48  1  0  0  0  0
 22 49  1  0  0  0  0
 22 50  1  0  0  0  0
 23 51  1  0  0  0  0
 23 52  1  0  0  0  0
 24 53  1  0  0  0  0
 24 54  1  0  0  0  0
 24 55  1  0  0  0  0
 25 56  1  0  0  0  0
 25 57  1  0  0  0  0
 26 58  1  0  0  0  0
 28 59  1  0  0  0  0
 31 60  1  0  0  0  0
M  END
> <clash_score>
0.7790931276820443

> <docking_score>
-8.979880332946777

> <overlap_score>
0.9504612684249878

$$$$
BENZO_305_2
  -OEChem-08232013463D

 59 63  0     1  0  0  0  0  0999 V2000
   11.4726    4.9577   23.1210 C   0  0  0  0  0  0  0  0  0  0  0  0
    4.2750    1.7050   20.8490 C   0  0  0  0  0  0  0  0  0  0  0  0
   12.5103    4.1537   22.6496 C   0  0  0  0  0  0  0  0  0  0  0  0
   10.2847    4.3753   23.5633 C   0  0  0  0  0  0  0  0  0  0  0  0
    3.9160    2.0630   19.5520 C   0  0  0  0  0  0  0  0  0  0  0  0
    5.4210    0.9600   21.0930 C   0  0  0  0  0  0  0  0  0  0  0  0
   12.3602    2.7672   22.6203 C   0  0  0  0  0  0  0  0  0  0  0  0
   10.1346    2.9888   23.5339 C   0  0  0  0  0  0  0  0  0  0  0  0
    9.0720   -1.1280   24.8640 C   0  0  0  0  0  0  0  0  0  0  0  0
    9.7200   -2.2600   22.8630 C   0  0  0  0  0  0  0  0  0  0  0  0
    4.6890    1.6810   18.4640 C   0  0  0  0  0  0  0  0  0  0  0  0
    8.9960   -2.3380   25.5320 C   0  0  0  0  0  0  0  0  0  0  0  0
    9.6730   -3.4710   23.5300 C   0  0  0  0  0  0  0  0  0  0  0  0
    7.6390   -0.2680   18.5410 C   0  0  0  0  0  0  0  0  0  0  0  0
    6.1790    0.5730   19.9990 C   0  0  0  0  0  0  0  0  0  0  0  0
   11.1723    2.1848   23.0624 C   0  0  0  0  0  0  0  0  0  0  0  0
    9.3350   -1.0880   23.5010 C   0  0  0  0  0  0  0  0  0  0  0  0
    5.8300    0.9190   18.6970 C   0  0  0  0  0  0  0  0  0  0  0  0
    9.3070   -3.5340   24.8780 C   0  0  0  0  0  0  0  0  0  0  0  0
    7.3170   -0.1610   19.8550 C   0  0  0  0  0  0  0  0  0  0  0  0
    9.0420    0.3700   21.5280 C   0  0  0  0  0  0  0  0  0  0  0  0
    9.5176   -4.8600   26.9769 C   0  0  0  0  0  0  0  0  0  0  0  0
    8.5166   -5.8725   24.9805 C   0  0  0  0  0  0  0  0  0  0  0  0
    8.1870   -5.0443   27.6986 C   0  0  0  0  0  0  0  0  0  0  0  0
    7.2201   -6.0348   25.7753 C   0  0  0  0  0  0  0  0  0  0  0  0
   11.0089    0.6825   23.0307 C   0  0  0  0  0  0  0  0  0  0  0  0
    9.4560    0.1560   22.8130 C   0  0  2  0  0  0  0  0  0  0  0  0
    6.7580    0.3810   17.8350 N   0  0  0  0  0  0  0  0  0  0  0  0
    9.2564   -4.7368   25.5411 N   0  0  0  0  0  0  0  0  0  0  0  0
    8.1890   -0.7180   20.8700 N   0  0  0  0  0  0  0  0  0  0  0  0
    9.2690    1.4140   20.9380 O   0  0  0  0  0  0  0  0  0  0  0  0
    7.4995   -6.1856   27.1717 O   0  0  0  0  0  0  0  0  0  0  0  0
   11.5901    6.0371   23.1451 H   0  0  0  0  0  0  0  0  0  0  0  0
    3.6453    2.0152   21.6831 H   0  0  0  0  0  0  0  0  0  0  0  0
   13.4357    4.6069   22.3062 H   0  0  0  0  0  0  0  0  0  0  0  0
    9.4770    5.0009   23.9314 H   0  0  0  0  0  0  0  0  0  0  0  0
    3.0147    2.6520   19.3913 H   0  0  0  0  0  0  0  0  0  0  0  0
    5.6991    0.6995   22.1042 H   0  0  0  0  0  0  0  0  0  0  0  0
   13.1740    2.1486   22.2511 H   0  0  0  0  0  0  0  0  0  0  0  0
    9.2056    2.5438   23.8803 H   0  0  0  0  0  0  0  0  0  0  0  0
    8.9214   -0.1986   25.4206 H   0  0  0  0  0  0  0  0  0  0  0  0
   10.0622   -2.2326   21.8251 H   0  0  0  0  0  0  0  0  0  0  0  0
    4.4051    1.9733   17.4488 H   0  0  0  0  0  0  0  0  0  0  0  0
    8.6882   -2.3542   26.5803 H   0  0  0  0  0  0  0  0  0  0  0  0
    9.9258   -4.3896   22.9914 H   0  0  0  0  0  0  0  0  0  0  0  0
    8.4825   -0.7940   18.0623 H   0  0  0  0  0  0  0  0  0  0  0  0
   10.0259   -3.9714   27.3647 H   0  0  0  0  0  0  0  0  0  0  0  0
   10.1570   -5.7322   27.1547 H   0  0  0  0  0  0  0  0  0  0  0  0
    9.1206   -6.7792   25.0735 H   0  0  0  0  0  0  0  0  0  0  0  0
    8.2825   -5.7115   23.9263 H   0  0  0  0  0  0  0  0  0  0  0  0
    8.3631   -5.2257   28.7609 H   0  0  0  0  0  0  0  0  0  0  0  0
    7.5532   -4.1574   27.6103 H   0  0  0  0  0  0  0  0  0  0  0  0
    6.5460   -5.1840   25.6220 H   0  0  0  0  0  0  0  0  0  0  0  0
    6.6948   -6.9355   25.4433 H   0  0  0  0  0  0  0  0  0  0  0  0
   11.6011    0.2707   22.2030 H   0  0  0  0  0  0  0  0  0  0  0  0
   11.4624    0.2744   23.9446 H   0  0  0  0  0  0  0  0  0  0  0  0
    8.9284    0.9668   23.5149 H   0  0  0  0  0  0  0  0  0  0  0  0
    6.7266    0.4930   16.8305 H   0  0  0  0  0  0  0  0  0  0  0  0
    8.2408   -1.5631   21.0968 H   0  0  0  0  0  0  0  0  0  0  0  0
  1  3  1  0  0  0  0
  1  4  2  0  0  0  0
  2  5  1  0  0  0  0
  2  6  2  0  0  0  0
  3  7  2  0  0  0  0
  4  8  1  0  0  0  0
  5 11  2  0  0  0  0
  6 15  1  0  0  0  0
  7 16  1  0  0  0  0
  8 16  2  0  0  0  0
  9 12  2  0  0  0  0
  9 17  1  0  0  0  0
 10 13  1  0  0  0  0
 10 17  2  0  0  0  0
 11 18  1  0  0  0  0
 12 19  1  0  0  0  0
 13 19  2  0  0  0  0
 14 20  2  0  0  0  0
 14 28  1  0  0  0  0
 15 18  2  0  0  0  0
 15 20  1  0  0  0  0
 16 26  1  0  0  0  0
 17 27  1  0  0  0  0
 18 28  1  0  0  0  0
 19 29  1  0  0  0  0
 20 30  1  0  0  0  0
 21 27  1  6  0  0  0
 21 30  1  0  0  0  0
 21 31  2  0  0  0  0
 22 24  1  0  0  0  0
 22 29  1  0  0  0  0
 23 25  1  0  0  0  0
 23 29  1  0  0  0  0
 24 32  1  0  0  0  0
 25 32  1  0  0  0  0
 26 27  1  0  0  0  0
  1 33  1  0  0  0  0
  2 34  1  0  0  0  0
  3 35  1  0  0  0  0
  4 36  1  0  0  0  0
  5 37  1  0  0  0  0
  6 38  1  0  0  0  0
  7 39  1  0  0  0  0
  8 40  1  0  0  0  0
  9 41  1  0  0  0  0
 10 42  1  0  0  0  0
 11 43  1  0  0  0  0
 12 44  1  0  0  0  0
 13 45  1  0  0  0  0
 14 46  1  0  0  0  0
 22 47  1  0  0  0  0
 22 48  1  0  0  0  0
 23 49  1  0  0  0  0
 23 50  1  0  0  0  0
 24 51  1  0  0  0  0
 24 52  1  0  0  0  0
 25 53  1  0  0  0  0
 25 54  1  0  0  0  0
 26 55  1  0  0  0  0
 26 56  1  0  0  0  0
 27 57  1  0  0  0  0
 28 58  1  0  0  0  0
 30 59  1  0  0  0  0
M  END
> <clash_score>
0

> <docking_score>
-10.081146240234375

> <overlap_score>
0.9448496103286743

$$$$
BENZO_304_2
  -OEChem-08232013463D

 56 60  0     1  0  0  0  0  0999 V2000
    4.2750    1.7050   20.8490 C   0  0  0  0  0  0  0  0  0  0  0  0
    3.9160    2.0630   19.5520 C   0  0  0  0  0  0  0  0  0  0  0  0
    5.4210    0.9600   21.0930 C   0  0  0  0  0  0  0  0  0  0  0  0
    9.0720   -1.1280   24.8640 C   0  0  0  0  0  0  0  0  0  0  0  0
    9.7200   -2.2600   22.8630 C   0  0  0  0  0  0  0  0  0  0  0  0
    4.6890    1.6810   18.4640 C   0  0  0  0  0  0  0  0  0  0  0  0
    8.9960   -2.3380   25.5320 C   0  0  0  0  0  0  0  0  0  0  0  0
    9.6730   -3.4710   23.5300 C   0  0  0  0  0  0  0  0  0  0  0  0
   11.9789    2.9159   22.1431 C   0  0  0  0  0  0  0  0  0  0  0  0
    7.6390   -0.2680   18.5410 C   0  0  0  0  0  0  0  0  0  0  0  0
   11.9531    4.2698   22.3953 C   0  0  0  0  0  0  0  0  0  0  0  0
   10.5610    3.0079   23.9825 C   0  0  0  0  0  0  0  0  0  0  0  0
    6.1790    0.5730   19.9990 C   0  0  0  0  0  0  0  0  0  0  0  0
    9.3350   -1.0880   23.5010 C   0  0  0  0  0  0  0  0  0  0  0  0
   11.1723    2.1848   23.0624 C   0  0  0  0  0  0  0  0  0  0  0  0
    5.8300    0.9190   18.6970 C   0  0  0  0  0  0  0  0  0  0  0  0
    9.3070   -3.5340   24.8780 C   0  0  0  0  0  0  0  0  0  0  0  0
    7.3170   -0.1610   19.8550 C   0  0  0  0  0  0  0  0  0  0  0  0
    9.0420    0.3700   21.5280 C   0  0  0  0  0  0  0  0  0  0  0  0
    8.8802   -4.8468   26.9522 C   0  0  0  0  0  0  0  0  0  0  0  0
    9.1312   -5.9971   24.8013 C   0  0  0  0  0  0  0  0  0  0  0  0
    7.4537   -5.3795   27.0345 C   0  0  0  0  0  0  0  0  0  0  0  0
    7.6970   -6.5030   24.9624 C   0  0  0  0  0  0  0  0  0  0  0  0
   11.0089    0.6825   23.0307 C   0  0  0  0  0  0  0  0  0  0  0  0
    9.4560    0.1560   22.8130 C   0  0  2  0  0  0  0  0  0  0  0  0
    6.7580    0.3810   17.8350 N   0  0  0  0  0  0  0  0  0  0  0  0
    9.2564   -4.7368   25.5411 N   0  0  0  0  0  0  0  0  0  0  0  0
    8.1890   -0.7180   20.8700 N   0  0  0  0  0  0  0  0  0  0  0  0
    9.2690    1.4140   20.9380 O   0  0  0  0  0  0  0  0  0  0  0  0
    7.3604   -6.6337   26.3481 O   0  0  0  0  0  0  0  0  0  0  0  0
   10.9597    4.6549   23.7359 S   0  0  0  0  0  0  0  0  0  0  0  0
    3.6453    2.0152   21.6831 H   0  0  0  0  0  0  0  0  0  0  0  0
    3.0147    2.6520   19.3913 H   0  0  0  0  0  0  0  0  0  0  0  0
    5.6991    0.6995   22.1042 H   0  0  0  0  0  0  0  0  0  0  0  0
    8.9214   -0.1986   25.4206 H   0  0  0  0  0  0  0  0  0  0  0  0
   10.0622   -2.2326   21.8251 H   0  0  0  0  0  0  0  0  0  0  0  0
    4.4051    1.9733   17.4488 H   0  0  0  0  0  0  0  0  0  0  0  0
    8.6882   -2.3542   26.5803 H   0  0  0  0  0  0  0  0  0  0  0  0
    9.9258   -4.3896   22.9914 H   0  0  0  0  0  0  0  0  0  0  0  0
   12.5509    2.4749   21.3365 H   0  0  0  0  0  0  0  0  0  0  0  0
    8.4825   -0.7940   18.0623 H   0  0  0  0  0  0  0  0  0  0  0  0
   12.4707    5.0513   21.8570 H   0  0  0  0  0  0  0  0  0  0  0  0
    9.8997    2.7250   24.7898 H   0  0  0  0  0  0  0  0  0  0  0  0
    8.9393   -3.8760   27.4548 H   0  0  0  0  0  0  0  0  0  0  0  0
    9.5624   -5.5414   27.4554 H   0  0  0  0  0  0  0  0  0  0  0  0
    9.8284   -6.7306   25.2156 H   0  0  0  0  0  0  0  0  0  0  0  0
    9.3541   -5.8584   23.7415 H   0  0  0  0  0  0  0  0  0  0  0  0
    7.1818   -5.5525   28.0779 H   0  0  0  0  0  0  0  0  0  0  0  0
    6.7334   -4.6727   26.6129 H   0  0  0  0  0  0  0  0  0  0  0  0
    6.9790   -5.8386   24.4676 H   0  0  0  0  0  0  0  0  0  0  0  0
    7.6015   -7.4918   24.5034 H   0  0  0  0  0  0  0  0  0  0  0  0
   11.6011    0.2707   22.2030 H   0  0  0  0  0  0  0  0  0  0  0  0
   11.4624    0.2744   23.9446 H   0  0  0  0  0  0  0  0  0  0  0  0
    8.9284    0.9668   23.5149 H   0  0  0  0  0  0  0  0  0  0  0  0
    6.7266    0.4930   16.8305 H   0  0  0  0  0  0  0  0  0  0  0  0
    8.2408   -1.5631   21.0968 H   0  0  0  0  0  0  0  0  0  0  0  0
  1  2  1  0  0  0  0
  1  3  2  0  0  0  0
  2  6  2  0  0  0  0
  3 13  1  0  0  0  0
  4  7  2  0  0  0  0
  4 14  1  0  0  0  0
  5  8  1  0  0  0  0
  5 14  2  0  0  0  0
  6 16  1  0  0  0  0
  7 17  1  0  0  0  0
  8 17  2  0  0  0  0
  9 11  2  0  0  0  0
  9 15  1  0  0  0  0
 10 18  2  0  0  0  0
 10 26  1  0  0  0  0
 11 31  1  0  0  0  0
 12 15  2  0  0  0  0
 12 31  1  0  0  0  0
 13 16  2  0  0  0  0
 13 18  1  0  0  0  0
 14 25  1  0  0  0  0
 15 24  1  0  0  0  0
 16 26  1  0  0  0  0
 17 27  1  0  0  0  0
 18 28  1  0  0  0  0
 19 25  1  6  0  0  0
 19 28  1  0  0  0  0
 19 29  2  0  0  0  0
 20 22  1  0  0  0  0
 20 27  1  0  0  0  0
 21 23  1  0  0  0  0
 21 27  1  0  0  0  0
 22 30  1  0  0  0  0
 23 30  1  0  0  0  0
 24 25  1  0  0  0  0
  1 32  1  0  0  0  0
  2 33  1  0  0  0  0
  3 34  1  0  0  0  0
  4 35  1  0  0  0  0
  5 36  1  0  0  0  0
  6 37  1  0  0  0  0
  7 38  1  0  0  0  0
  8 39  1  0  0  0  0
  9 40  1  0  0  0  0
 10 41  1  0  0  0  0
 11 42  1  0  0  0  0
 12 43  1  0  0  0  0
 20 44  1  0  0  0  0
 20 45  1  0  0  0  0
 21 46  1  0  0  0  0
 21 47  1  0  0  0  0
 22 48  1  0  0  0  0
 22 49  1  0  0  0  0
 23 50  1  0  0  0  0
 23 51  1  0  0  0  0
 24 52  1  0  0  0  0
 24 53  1  0  0  0  0
 25 54  1  0  0  0  0
 26 55  1  0  0  0  0
 28 56  1  0  0  0  0
M  END
> <clash_score>
0

> <docking_score>
-9.13786792755127

> <overlap_score>
0.9372092485427856

$$$$
BENZO_306_1
  -OEChem-08232013463D

 59 63  0     1  0  0  0  0  0999 V2000
    4.2750    1.7050   20.8490 C   0  0  0  0  0  0  0  0  0  0  0  0
    3.9160    2.0630   19.5520 C   0  0  0  0  0  0  0  0  0  0  0  0
    8.4543    4.7648   22.2520 C   0  0  0  0  0  0  0  0  0  0  0  0
    5.4210    0.9600   21.0930 C   0  0  0  0  0  0  0  0  0  0  0  0
    8.2155    3.4413   22.6219 C   0  0  0  0  0  0  0  0  0  0  0  0
    9.0720   -1.1280   24.8640 C   0  0  0  0  0  0  0  0  0  0  0  0
    9.7200   -2.2600   22.8630 C   0  0  0  0  0  0  0  0  0  0  0  0
    4.6890    1.6810   18.4640 C   0  0  0  0  0  0  0  0  0  0  0  0
    8.9960   -2.3380   25.5320 C   0  0  0  0  0  0  0  0  0  0  0  0
    9.6730   -3.4710   23.5300 C   0  0  0  0  0  0  0  0  0  0  0  0
    9.6133    5.4109   22.6820 C   0  0  0  0  0  0  0  0  0  0  0  0
   10.2948    3.4099   23.8519 C   0  0  0  0  0  0  0  0  0  0  0  0
    7.6390   -0.2680   18.5410 C   0  0  0  0  0  0  0  0  0  0  0  0
    6.1790    0.5730   19.9990 C   0  0  0  0  0  0  0  0  0  0  0  0
    9.3350   -1.0880   23.5010 C   0  0  0  0  0  0  0  0  0  0  0  0
    9.1357    2.7638   23.4219 C   0  0  0  0  0  0  0  0  0  0  0  0
    5.8300    0.9190   18.6970 C   0  0  0  0  0  0  0  0  0  0  0  0
    9.3070   -3.5340   24.8780 C   0  0  0  0  0  0  0  0  0  0  0  0
    7.3170   -0.1610   19.8550 C   0  0  0  0  0  0  0  0  0  0  0  0
   10.5335    4.7335   23.4820 C   0  0  0  0  0  0  0  0  0  0  0  0
    9.0420    0.3700   21.5280 C   0  0  0  0  0  0  0  0  0  0  0  0
    9.5835   -5.9889   24.8508 C   0  0  0  0  0  0  0  0  0  0  0  0
    8.4830   -4.9307   26.7696 C   0  0  0  0  0  0  0  0  0  0  0  0
    8.2780   -6.7382   24.5802 C   0  0  0  0  0  0  0  0  0  0  0  0
    7.2139   -5.7040   26.4276 C   0  0  0  0  0  0  0  0  0  0  0  0
    8.8757    1.3301   23.8233 C   0  0  0  0  0  0  0  0  0  0  0  0
    9.4560    0.1560   22.8130 C   0  0  1  0  0  0  0  0  0  0  0  0
    6.7580    0.3810   17.8350 N   0  0  0  0  0  0  0  0  0  0  0  0
    9.2564   -4.7368   25.5411 N   0  0  0  0  0  0  0  0  0  0  0  0
    8.1890   -0.7180   20.8700 N   0  0  0  0  0  0  0  0  0  0  0  0
    9.2690    1.4140   20.9380 O   0  0  0  0  0  0  0  0  0  0  0  0
    7.5531   -6.9453   25.7977 O   0  0  0  0  0  0  0  0  0  0  0  0
   11.9628    5.5315   24.0132 Cl  0  0  0  0  0  0  0  0  0  0  0  0
    3.6453    2.0152   21.6831 H   0  0  0  0  0  0  0  0  0  0  0  0
    3.0147    2.6520   19.3913 H   0  0  0  0  0  0  0  0  0  0  0  0
    7.7374    5.2920   21.6292 H   0  0  0  0  0  0  0  0  0  0  0  0
    5.6991    0.6995   22.1042 H   0  0  0  0  0  0  0  0  0  0  0  0
    7.3097    2.9457   22.2823 H   0  0  0  0  0  0  0  0  0  0  0  0
    8.9214   -0.1986   25.4206 H   0  0  0  0  0  0  0  0  0  0  0  0
   10.0622   -2.2326   21.8251 H   0  0  0  0  0  0  0  0  0  0  0  0
    4.4051    1.9733   17.4488 H   0  0  0  0  0  0  0  0  0  0  0  0
    8.6882   -2.3542   26.5803 H   0  0  0  0  0  0  0  0  0  0  0  0
    9.9258   -4.3896   22.9914 H   0  0  0  0  0  0  0  0  0  0  0  0
    9.7862    6.4428   22.3862 H   0  0  0  0  0  0  0  0  0  0  0  0
   11.0094    2.8772   24.4751 H   0  0  0  0  0  0  0  0  0  0  0  0
    8.4825   -0.7940   18.0623 H   0  0  0  0  0  0  0  0  0  0  0  0
   10.2455   -6.6133   25.4546 H   0  0  0  0  0  0  0  0  0  0  0  0
   10.0789   -5.7610   23.9030 H   0  0  0  0  0  0  0  0  0  0  0  0
    8.2180   -3.9531   27.1881 H   0  0  0  0  0  0  0  0  0  0  0  0
    9.0600   -5.4831   27.5178 H   0  0  0  0  0  0  0  0  0  0  0  0
    7.6439   -6.1455   23.9135 H   0  0  0  0  0  0  0  0  0  0  0  0
    8.4620   -7.7014   24.0901 H   0  0  0  0  0  0  0  0  0  0  0  0
    6.6049   -5.8940   27.3159 H   0  0  0  0  0  0  0  0  0  0  0  0
    6.6090   -5.1300   25.7228 H   0  0  0  0  0  0  0  0  0  0  0  0
    9.2390    1.1684   24.8466 H   0  0  0  0  0  0  0  0  0  0  0  0
    7.7875    1.1860   23.8742 H   0  0  0  0  0  0  0  0  0  0  0  0
   10.6103    0.4565   22.8881 H   0  0  0  0  0  0  0  0  0  0  0  0
    6.7266    0.4930   16.8305 H   0  0  0  0  0  0  0  0  0  0  0  0
    8.2408   -1.5631   21.0968 H   0  0  0  0  0  0  0  0  0  0  0  0
  1  2  1  0  0  0  0
  1  4  2  0  0  0  0
  2  8  2  0  0  0  0
  3  5  2  0  0  0  0
  3 11  1  0  0  0  0
  4 14  1  0  0  0  0
  5 16  1  0  0  0  0
  6  9  2  0  0  0  0
  6 15  1  0  0  0  0
  7 10  1  0  0  0  0
  7 15  2  0  0  0  0
  8 17  1  0  0  0  0
  9 18  1  0  0  0  0
 10 18  2  0  0  0  0
 11 20  2  0  0  0  0
 12 16  2  0  0  0  0
 12 20  1  0  0  0  0
 13 19  2  0  0  0  0
 13 28  1  0  0  0  0
 14 17  2  0  0  0  0
 14 19  1  0  0  0  0
 15 27  1  0  0  0  0
 16 26  1  0  0  0  0
 17 28  1  0  0  0  0
 18 29  1  0  0  0  0
 19 30  1  0  0  0  0
 20 33  1  0  0  0  0
 21 27  1  1  0  0  0
 21 30  1  0  0  0  0
 21 31  2  0  0  0  0
 22 24  1  0  0  0  0
 22 29  1  0  0  0  0
 23 25  1  0  0  0  0
 23 29  1  0  0  0  0
 24 32  1  0  0  0  0
 25 32  1  0  0  0  0
 26 27  1  0  0  0  0
  1 34  1  0  0  0  0
  2 35  1  0  0  0  0
  3 36  1  0  0  0  0
  4 37  1  0  0  0  0
  5 38  1  0  0  0  0
  6 39  1  0  0  0  0
  7 40  1  0  0  0  0
  8 41  1  0  0  0  0
  9 42  1  0  0  0  0
 10 43  1  0  0  0  0
 11 44  1  0  0  0  0
 12 45  1  0  0  0  0
 13 46  1  0  0  0  0
 22 47  1  0  0  0  0
 22 48  1  0  0  0  0
 23 49  1  0  0  0  0
 23 50  1  0  0  0  0
 24 51  1  0  0  0  0
 24 52  1  0  0  0  0
 25 53  1  0  0  0  0
 25 54  1  0  0  0  0
 26 55  1  0  0  0  0
 26 56  1  0  0  0  0
 27 57  1  0  0  0  0
 28 58  1  0  0  0  0
 30 59  1  0  0  0  0
M  END
> <clash_score>
0

> <docking_score>
-7.452733516693115

> <overlap_score>
0.8582180738449097

$$$$
BENZO_309_1
  -OEChem-08232013463D

 52 55  0     1  0  0  0  0  0999 V2000
   11.4726    4.9577   23.1210 C   0  0  0  0  0  0  0  0  0  0  0  0
   12.5103    4.1537   22.6496 C   0  0  0  0  0  0  0  0  0  0  0  0
   10.2847    4.3753   23.5633 C   0  0  0  0  0  0  0  0  0  0  0  0
   12.3602    2.7672   22.6203 C   0  0  0  0  0  0  0  0  0  0  0  0
   10.1346    2.9888   23.5339 C   0  0  0  0  0  0  0  0  0  0  0  0
    9.0720   -1.1280   24.8640 C   0  0  0  0  0  0  0  0  0  0  0  0
    9.7200   -2.2600   22.8630 C   0  0  0  0  0  0  0  0  0  0  0  0
    8.9960   -2.3380   25.5320 C   0  0  0  0  0  0  0  0  0  0  0  0
    9.6730   -3.4710   23.5300 C   0  0  0  0  0  0  0  0  0  0  0  0
   11.1723    2.1848   23.0624 C   0  0  0  0  0  0  0  0  0  0  0  0
    9.3350   -1.0880   23.5010 C   0  0  0  0  0  0  0  0  0  0  0  0
    9.3070   -3.5340   24.8780 C   0  0  0  0  0  0  0  0  0  0  0  0
    5.8300    0.9190   18.6970 C   0  0  0  0  0  0  0  0  0  0  0  0
    7.3170   -0.1610   19.8550 C   0  0  0  0  0  0  0  0  0  0  0  0
    4.6890    1.6810   18.4640 C   0  0  0  0  0  0  0  0  0  0  0  0
    3.9160    2.0630   19.5520 C   0  0  0  0  0  0  0  0  0  0  0  0
    4.2750    1.7050   20.8490 C   0  0  0  0  0  0  0  0  0  0  0  0
    5.4210    0.9600   21.0930 C   0  0  0  0  0  0  0  0  0  0  0  0
    9.0420    0.3700   21.5280 C   0  0  0  0  0  0  0  0  0  0  0  0
    8.0148   -5.2164   26.1419 C   0  0  0  0  0  0  0  0  0  0  0  0
   10.4390   -5.5857   25.6570 C   0  0  0  0  0  0  0  0  0  0  0  0
   11.0089    0.6825   23.0307 C   0  0  0  0  0  0  0  0  0  0  0  0
    9.4560    0.1560   22.8130 C   0  0  1  0  0  0  0  0  0  0  0  0
    6.7580    0.3810   17.8350 N   0  0  0  0  0  0  0  0  0  0  0  0
    7.6390   -0.2680   18.5410 N   0  0  0  0  0  0  0  0  0  0  0  0
    6.1790    0.5730   19.9990 N   0  0  0  0  0  0  0  0  0  0  0  0
    8.1890   -0.7180   20.8700 N   0  0  0  0  0  0  0  0  0  0  0  0
    9.2556   -4.7554   25.5513 N   0  0  0  0  0  0  0  0  0  0  0  0
    9.2690    1.4140   20.9380 O   0  0  0  0  0  0  0  0  0  0  0  0
   11.5901    6.0371   23.1451 H   0  0  0  0  0  0  0  0  0  0  0  0
   13.4357    4.6069   22.3063 H   0  0  0  0  0  0  0  0  0  0  0  0
    9.4770    5.0009   23.9314 H   0  0  0  0  0  0  0  0  0  0  0  0
   13.1740    2.1486   22.2511 H   0  0  0  0  0  0  0  0  0  0  0  0
    9.2056    2.5438   23.8803 H   0  0  0  0  0  0  0  0  0  0  0  0
    8.9214   -0.1986   25.4206 H   0  0  0  0  0  0  0  0  0  0  0  0
   10.0622   -2.2326   21.8251 H   0  0  0  0  0  0  0  0  0  0  0  0
    8.6882   -2.3542   26.5803 H   0  0  0  0  0  0  0  0  0  0  0  0
    9.9258   -4.3896   22.9914 H   0  0  0  0  0  0  0  0  0  0  0  0
    4.3967    1.9772   17.4718 H   0  0  0  0  0  0  0  0  0  0  0  0
    3.0218    2.6486   19.3697 H   0  0  0  0  0  0  0  0  0  0  0  0
    3.6566    2.0043   21.7065 H   0  0  0  0  0  0  0  0  0  0  0  0
    5.7190    0.6877   22.0810 H   0  0  0  0  0  0  0  0  0  0  0  0
    8.1775   -6.1919   26.6235 H   0  0  0  0  0  0  0  0  0  0  0  0
    7.6740   -4.4889   26.8933 H   0  0  0  0  0  0  0  0  0  0  0  0
    7.2508   -5.3180   25.3570 H   0  0  0  0  0  0  0  0  0  0  0  0
   10.1974   -6.4996   26.2195 H   0  0  0  0  0  0  0  0  0  0  0  0
   10.7877   -5.8568   24.6496 H   0  0  0  0  0  0  0  0  0  0  0  0
   11.2305   -5.0307   26.1819 H   0  0  0  0  0  0  0  0  0  0  0  0
   11.6011    0.2707   22.2030 H   0  0  0  0  0  0  0  0  0  0  0  0
   11.4624    0.2744   23.9447 H   0  0  0  0  0  0  0  0  0  0  0  0
    8.9284    0.9668   23.5149 H   0  0  0  0  0  0  0  0  0  0  0  0
    8.2385   -1.5646   21.0947 H   0  0  0  0  0  0  0  0  0  0  0  0
  1  2  1  0  0  0  0
  1  3  2  0  0  0  0
  2  4  2  0  0  0  0
  3  5  1  0  0  0  0
  4 10  1  0  0  0  0
  5 10  2  0  0  0  0
  6  8  2  0  0  0  0
  6 11  1  0  0  0  0
  7  9  1  0  0  0  0
  7 11  2  0  0  0  0
  8 12  1  0  0  0  0
  9 12  2  0  0  0  0
 10 22  1  0  0  0  0
 11 23  1  0  0  0  0
 12 28  1  0  0  0  0
 13 15  1  0  0  0  0
 13 24  2  0  0  0  0
 13 26  1  0  0  0  0
 14 25  2  0  0  0  0
 14 26  1  0  0  0  0
 14 27  1  0  0  0  0
 15 16  2  0  0  0  0
 16 17  1  0  0  0  0
 17 18  2  0  0  0  0
 18 26  1  0  0  0  0
 19 23  1  0  0  0  0
 19 27  1  0  0  0  0
 19 29  2  0  0  0  0
 20 28  1  0  0  0  0
 21 28  1  0  0  0  0
 22 23  1  1  0  0  0
 24 25  1  0  0  0  0
  1 30  1  0  0  0  0
  2 31  1  0  0  0  0
  3 32  1  0  0  0  0
  4 33  1  0  0  0  0
  5 34  1  0  0  0  0
  6 35  1  0  0  0  0
  7 36  1  0  0  0  0
  8 37  1  0  0  0  0
  9 38  1  0  0  0  0
 15 39  1  0  0  0  0
 16 40  1  0  0  0  0
 17 41  1  0  0  0  0
 18 42  1  0  0  0  0
 20 43  1  0  0  0  0
 20 44  1  0  0  0  0
 20 45  1  0  0  0  0
 21 46  1  0  0  0  0
 21 47  1  0  0  0  0
 21 48  1  0  0  0  0
 22 49  1  0  0  0  0
 22 50  1  0  0  0  0
 23 51  1  0  0  0  0
 27 52  1  0  0  0  0
M  END
> <clash_score>
0

> <docking_score>
-11.3250093460083

> <overlap_score>
0.9285069108009338

$$$$
BENZO_307_2
  -OEChem-08232013463D

 59 63  0     1  0  0  0  0  0999 V2000
    4.2750    1.7050   20.8490 C   0  0  0  0  0  0  0  0  0  0  0  0
    3.9160    2.0630   19.5520 C   0  0  0  0  0  0  0  0  0  0  0  0
    5.4210    0.9600   21.0930 C   0  0  0  0  0  0  0  0  0  0  0  0
    9.0720   -1.1280   24.8640 C   0  0  0  0  0  0  0  0  0  0  0  0
    9.7200   -2.2600   22.8630 C   0  0  0  0  0  0  0  0  0  0  0  0
    4.6890    1.6810   18.4640 C   0  0  0  0  0  0  0  0  0  0  0  0
    8.9960   -2.3380   25.5320 C   0  0  0  0  0  0  0  0  0  0  0  0
    9.6730   -3.4710   23.5300 C   0  0  0  0  0  0  0  0  0  0  0  0
   10.2419    3.5676   23.7567 C   0  0  0  0  0  0  0  0  0  0  0  0
    8.3449    3.5746   22.6449 C   0  0  0  0  0  0  0  0  0  0  0  0
    7.6390   -0.2680   18.5410 C   0  0  0  0  0  0  0  0  0  0  0  0
    6.1790    0.5730   19.9990 C   0  0  0  0  0  0  0  0  0  0  0  0
    9.3350   -1.0880   23.5010 C   0  0  0  0  0  0  0  0  0  0  0  0
    9.1357    2.7638   23.4219 C   0  0  0  0  0  0  0  0  0  0  0  0
    5.8300    0.9190   18.6970 C   0  0  0  0  0  0  0  0  0  0  0  0
    9.3070   -3.5340   24.8780 C   0  0  0  0  0  0  0  0  0  0  0  0
    7.3170   -0.1610   19.8550 C   0  0  0  0  0  0  0  0  0  0  0  0
    9.0420    0.3700   21.5280 C   0  0  0  0  0  0  0  0  0  0  0  0
    9.5835   -5.9889   24.8508 C   0  0  0  0  0  0  0  0  0  0  0  0
    8.4830   -4.9307   26.7696 C   0  0  0  0  0  0  0  0  0  0  0  0
    8.2780   -6.7382   24.5802 C   0  0  0  0  0  0  0  0  0  0  0  0
    7.2139   -5.7040   26.4276 C   0  0  0  0  0  0  0  0  0  0  0  0
    8.5574    5.9414   21.8500 C   0  0  0  0  0  0  0  0  0  0  0  0
    8.8757    1.3301   23.8233 C   0  0  0  0  0  0  0  0  0  0  0  0
    9.4560    0.1560   22.8130 C   0  0  2  0  0  0  0  0  0  0  0  0
   10.1644    4.7947   23.2350 N   0  0  0  0  0  0  0  0  0  0  0  0
    6.7580    0.3810   17.8350 N   0  0  0  0  0  0  0  0  0  0  0  0
    9.0001    4.7681   22.5644 N   0  0  0  0  0  0  0  0  0  0  0  0
    9.2564   -4.7368   25.5411 N   0  0  0  0  0  0  0  0  0  0  0  0
    8.1890   -0.7180   20.8700 N   0  0  0  0  0  0  0  0  0  0  0  0
    9.2690    1.4140   20.9380 O   0  0  0  0  0  0  0  0  0  0  0  0
    7.5531   -6.9453   25.7977 O   0  0  0  0  0  0  0  0  0  0  0  0
    3.6453    2.0152   21.6831 H   0  0  0  0  0  0  0  0  0  0  0  0
    3.0147    2.6520   19.3913 H   0  0  0  0  0  0  0  0  0  0  0  0
    5.6991    0.6995   22.1042 H   0  0  0  0  0  0  0  0  0  0  0  0
    8.9214   -0.1986   25.4206 H   0  0  0  0  0  0  0  0  0  0  0  0
   10.0622   -2.2326   21.8251 H   0  0  0  0  0  0  0  0  0  0  0  0
    4.4051    1.9733   17.4488 H   0  0  0  0  0  0  0  0  0  0  0  0
    8.6882   -2.3542   26.5803 H   0  0  0  0  0  0  0  0  0  0  0  0
    9.9258   -4.3896   22.9914 H   0  0  0  0  0  0  0  0  0  0  0  0
   11.1029    3.3122   24.3581 H   0  0  0  0  0  0  0  0  0  0  0  0
    7.3959    3.4077   22.1535 H   0  0  0  0  0  0  0  0  0  0  0  0
    8.4825   -0.7940   18.0623 H   0  0  0  0  0  0  0  0  0  0  0  0
   10.2455   -6.6133   25.4546 H   0  0  0  0  0  0  0  0  0  0  0  0
   10.0789   -5.7610   23.9030 H   0  0  0  0  0  0  0  0  0  0  0  0
    8.2180   -3.9531   27.1881 H   0  0  0  0  0  0  0  0  0  0  0  0
    9.0600   -5.4831   27.5178 H   0  0  0  0  0  0  0  0  0  0  0  0
    7.6439   -6.1455   23.9135 H   0  0  0  0  0  0  0  0  0  0  0  0
    8.4620   -7.7014   24.0901 H   0  0  0  0  0  0  0  0  0  0  0  0
    6.6049   -5.8940   27.3159 H   0  0  0  0  0  0  0  0  0  0  0  0
    6.6090   -5.1300   25.7228 H   0  0  0  0  0  0  0  0  0  0  0  0
    7.9564    6.5461   22.5343 H   0  0  0  0  0  0  0  0  0  0  0  0
    9.4272    6.5065   21.5036 H   0  0  0  0  0  0  0  0  0  0  0  0
    7.9620    5.6349   20.9855 H   0  0  0  0  0  0  0  0  0  0  0  0
    9.2390    1.1684   24.8466 H   0  0  0  0  0  0  0  0  0  0  0  0
    7.7875    1.1860   23.8742 H   0  0  0  0  0  0  0  0  0  0  0  0
   10.6103    0.4565   22.8881 H   0  0  0  0  0  0  0  0  0  0  0  0
    6.7266    0.4930   16.8305 H   0  0  0  0  0  0  0  0  0  0  0  0
    8.2408   -1.5631   21.0968 H   0  0  0  0  0  0  0  0  0  0  0  0
  1  2  1  0  0  0  0
  1  3  2  0  0  0  0
  2  6  2  0  0  0  0
  3 12  1  0  0  0  0
  4  7  2  0  0  0  0
  4 13  1  0  0  0  0
  5  8  1  0  0  0  0
  5 13  2  0  0  0  0
  6 15  1  0  0  0  0
  7 16  1  0  0  0  0
  8 16  2  0  0  0  0
  9 14  1  0  0  0  0
  9 26  2  0  0  0  0
 10 14  2  0  0  0  0
 10 28  1  0  0  0  0
 11 17  2  0  0  0  0
 11 27  1  0  0  0  0
 12 15  2  0  0  0  0
 12 17  1  0  0  0  0
 13 25  1  0  0  0  0
 14 24  1  0  0  0  0
 15 27  1  0  0  0  0
 16 29  1  0  0  0  0
 17 30  1  0  0  0  0
 18 25  1  0  0  0  0
 18 30  1  0  0  0  0
 18 31  2  0  0  0  0
 19 21  1  0  0  0  0
 19 29  1  0  0  0  0
 20 22  1  0  0  0  0
 20 29  1  0  0  0  0
 21 32  1  0  0  0  0
 22 32  1  0  0  0  0
 23 28  1  0  0  0  0
 24 25  1  6  0  0  0
 26 28  1  0  0  0  0
  1 33  1  0  0  0  0
  2 34  1  0  0  0  0
  3 35  1  0  0  0  0
  4 36  1  0  0  0  0
  5 37  1  0  0  0  0
  6 38  1  0  0  0  0
  7 39  1  0  0  0  0
  8 40  1  0  0  0  0
  9 41  1  0  0  0  0
 10 42  1  0  0  0  0
 11 43  1  0  0  0  0
 19 44  1  0  0  0  0
 19 45  1  0  0  0  0
 20 46  1  0  0  0  0
 20 47  1  0  0  0  0
 21 48  1  0  0  0  0
 21 49  1  0  0  0  0
 22 50  1  0  0  0  0
 22 51  1  0  0  0  0
 23 52  1  0  0  0  0
 23 53  1  0  0  0  0
 23 54  1  0  0  0  0
 24 55  1  0  0  0  0
 24 56  1  0  0  0  0
 25 57  1  0  0  0  0
 27 58  1  0  0  0  0
 30 59  1  0  0  0  0
M  END
> <clash_score>
0

> <docking_score>
-5.928600311279297

> <overlap_score>
0.8560141324996948

$$$$
BENZO_309_2
  -OEChem-08232013463D

 52 55  0     1  0  0  0  0  0999 V2000
    9.6170    5.4099   22.6808 C   0  0  0  0  0  0  0  0  0  0  0  0
    8.4752    5.0878   23.4143 C   0  0  0  0  0  0  0  0  0  0  0  0
   10.5182    4.4090   22.3177 C   0  0  0  0  0  0  0  0  0  0  0  0
    8.2345    3.7648   23.7849 C   0  0  0  0  0  0  0  0  0  0  0  0
   10.2775    3.0860   22.6883 C   0  0  0  0  0  0  0  0  0  0  0  0
    9.0720   -1.1280   24.8640 C   0  0  0  0  0  0  0  0  0  0  0  0
    9.7200   -2.2600   22.8630 C   0  0  0  0  0  0  0  0  0  0  0  0
    8.9960   -2.3380   25.5320 C   0  0  0  0  0  0  0  0  0  0  0  0
    9.6730   -3.4710   23.5300 C   0  0  0  0  0  0  0  0  0  0  0  0
    9.1357    2.7638   23.4218 C   0  0  0  0  0  0  0  0  0  0  0  0
    9.3350   -1.0880   23.5010 C   0  0  0  0  0  0  0  0  0  0  0  0
    9.3070   -3.5340   24.8780 C   0  0  0  0  0  0  0  0  0  0  0  0
    5.8300    0.9190   18.6970 C   0  0  0  0  0  0  0  0  0  0  0  0
    7.3170   -0.1610   19.8550 C   0  0  0  0  0  0  0  0  0  0  0  0
    4.6890    1.6810   18.4640 C   0  0  0  0  0  0  0  0  0  0  0  0
    3.9160    2.0630   19.5520 C   0  0  0  0  0  0  0  0  0  0  0  0
    4.2750    1.7050   20.8490 C   0  0  0  0  0  0  0  0  0  0  0  0
    5.4210    0.9600   21.0930 C   0  0  0  0  0  0  0  0  0  0  0  0
    9.0420    0.3700   21.5280 C   0  0  0  0  0  0  0  0  0  0  0  0
    8.8766   -4.8075   26.9494 C   0  0  0  0  0  0  0  0  0  0  0  0
    9.5669   -5.9896   24.8578 C   0  0  0  0  0  0  0  0  0  0  0  0
    8.8757    1.3301   23.8233 C   0  0  0  0  0  0  0  0  0  0  0  0
    9.4560    0.1560   22.8130 C   0  0  2  0  0  0  0  0  0  0  0  0
    6.7580    0.3810   17.8350 N   0  0  0  0  0  0  0  0  0  0  0  0
    7.6390   -0.2680   18.5410 N   0  0  0  0  0  0  0  0  0  0  0  0
    6.1790    0.5730   19.9990 N   0  0  0  0  0  0  0  0  0  0  0  0
    8.1890   -0.7180   20.8700 N   0  0  0  0  0  0  0  0  0  0  0  0
    9.2556   -4.7554   25.5513 N   0  0  0  0  0  0  0  0  0  0  0  0
    9.2690    1.4140   20.9380 O   0  0  0  0  0  0  0  0  0  0  0  0
    9.8035    6.4400   22.3912 H   0  0  0  0  0  0  0  0  0  0  0  0
    7.7728    5.8668   23.6961 H   0  0  0  0  0  0  0  0  0  0  0  0
   11.4067    4.6593   21.7457 H   0  0  0  0  0  0  0  0  0  0  0  0
    7.3424    3.5231   24.3565 H   0  0  0  0  0  0  0  0  0  0  0  0
   10.9853    2.3128   22.4011 H   0  0  0  0  0  0  0  0  0  0  0  0
    8.9214   -0.1986   25.4206 H   0  0  0  0  0  0  0  0  0  0  0  0
   10.0622   -2.2326   21.8251 H   0  0  0  0  0  0  0  0  0  0  0  0
    8.6882   -2.3542   26.5803 H   0  0  0  0  0  0  0  0  0  0  0  0
    9.9258   -4.3896   22.9914 H   0  0  0  0  0  0  0  0  0  0  0  0
    4.3967    1.9772   17.4718 H   0  0  0  0  0  0  0  0  0  0  0  0
    3.0218    2.6486   19.3697 H   0  0  0  0  0  0  0  0  0  0  0  0
    3.6566    2.0043   21.7065 H   0  0  0  0  0  0  0  0  0  0  0  0
    5.7190    0.6877   22.0810 H   0  0  0  0  0  0  0  0  0  0  0  0
    8.8955   -5.8512   27.2963 H   0  0  0  0  0  0  0  0  0  0  0  0
    9.5845   -4.2109   27.5435 H   0  0  0  0  0  0  0  0  0  0  0  0
    7.8621   -4.3996   27.0696 H   0  0  0  0  0  0  0  0  0  0  0  0
    9.4707   -6.8361   25.5536 H   0  0  0  0  0  0  0  0  0  0  0  0
    8.8693   -6.1242   24.0181 H   0  0  0  0  0  0  0  0  0  0  0  0
   10.5972   -5.9451   24.4750 H   0  0  0  0  0  0  0  0  0  0  0  0
    9.2390    1.1684   24.8466 H   0  0  0  0  0  0  0  0  0  0  0  0
    7.7875    1.1860   23.8742 H   0  0  0  0  0  0  0  0  0  0  0  0
   10.6103    0.4565   22.8881 H   0  0  0  0  0  0  0  0  0  0  0  0
    8.2385   -1.5646   21.0947 H   0  0  0  0  0  0  0  0  0  0  0  0
  1  2  1  0  0  0  0
  1  3  2  0  0  0  0
  2  4  2  0  0  0  0
  3  5  1  0  0  0  0
  4 10  1  0  0  0  0
  5 10  2  0  0  0  0
  6  8  2  0  0  0  0
  6 11  1  0  0  0  0
  7  9  1  0  0  0  0
  7 11  2  0  0  0  0
  8 12  1  0  0  0  0
  9 12  2  0  0  0  0
 10 22  1  0  0  0  0
 11 23  1  0  0  0  0
 12 28  1  0  0  0  0
 13 15  1  0  0  0  0
 13 24  2  0  0  0  0
 13 26  1  0  0  0  0
 14 25  2  0  0  0  0
 14 26  1  0  0  0  0
 14 27  1  0  0  0  0
 15 16  2  0  0  0  0
 16 17  1  0  0  0  0
 17 18  2  0  0  0  0
 18 26  1  0  0  0  0
 19 23  1  0  0  0  0
 19 27  1  0  0  0  0
 19 29  2  0  0  0  0
 20 28  1  0  0  0  0
 21 28  1  0  0  0  0
 22 23  1  6  0  0  0
 24 25  1  0  0  0  0
  1 30  1  0  0  0  0
  2 31  1  0  0  0  0
  3 32  1  0  0  0  0
  4 33  1  0  0  0  0
  5 34  1  0  0  0  0
  6 35  1  0  0  0  0
  7 36  1  0  0  0  0
  8 37  1  0  0  0  0
  9 38  1  0  0  0  0
 15 39  1  0  0  0  0
 16 40  1  0  0  0  0
 17 41  1  0  0  0  0
 18 42  1  0  0  0  0
 20 43  1  0  0  0  0
 20 44  1  0  0  0  0
 20 45  1  0  0  0  0
 21 46  1  0  0  0  0
 21 47  1  0  0  0  0
 21 48  1  0  0  0  0
 22 49  1  0  0  0  0
 22 50  1  0  0  0  0
 23 51  1  0  0  0  0
 27 52  1  0  0  0  0
M  END
> <clash_score>
0

> <docking_score>
-7.539459228515625

> <overlap_score>
0.8459813594818115

$$$$
BENZO_308_1
  -OEChem-08232013463D

 49 52  0     1  0  0  0  0  0999 V2000
    9.0720   -1.1280   24.8640 C   0  0  0  0  0  0  0  0  0  0  0  0
    9.7200   -2.2600   22.8630 C   0  0  0  0  0  0  0  0  0  0  0  0
    8.9960   -2.3380   25.5320 C   0  0  0  0  0  0  0  0  0  0  0  0
    9.6730   -3.4710   23.5300 C   0  0  0  0  0  0  0  0  0  0  0  0
   11.9789    2.9159   22.1431 C   0  0  0  0  0  0  0  0  0  0  0  0
   11.9531    4.2698   22.3953 C   0  0  0  0  0  0  0  0  0  0  0  0
   10.5610    3.0079   23.9825 C   0  0  0  0  0  0  0  0  0  0  0  0
    9.3350   -1.0880   23.5010 C   0  0  0  0  0  0  0  0  0  0  0  0
   11.1723    2.1848   23.0624 C   0  0  0  0  0  0  0  0  0  0  0  0
    9.3070   -3.5340   24.8780 C   0  0  0  0  0  0  0  0  0  0  0  0
    5.8300    0.9190   18.6970 C   0  0  0  0  0  0  0  0  0  0  0  0
    7.3170   -0.1610   19.8550 C   0  0  0  0  0  0  0  0  0  0  0  0
    4.6890    1.6810   18.4640 C   0  0  0  0  0  0  0  0  0  0  0  0
    3.9160    2.0630   19.5520 C   0  0  0  0  0  0  0  0  0  0  0  0
    4.2750    1.7050   20.8490 C   0  0  0  0  0  0  0  0  0  0  0  0
    5.4210    0.9600   21.0930 C   0  0  0  0  0  0  0  0  0  0  0  0
    9.0420    0.3700   21.5280 C   0  0  0  0  0  0  0  0  0  0  0  0
    8.0148   -5.2164   26.1419 C   0  0  0  0  0  0  0  0  0  0  0  0
   10.4390   -5.5857   25.6570 C   0  0  0  0  0  0  0  0  0  0  0  0
   11.0089    0.6825   23.0307 C   0  0  0  0  0  0  0  0  0  0  0  0
    9.4560    0.1560   22.8130 C   0  0  1  0  0  0  0  0  0  0  0  0
    6.7580    0.3810   17.8350 N   0  0  0  0  0  0  0  0  0  0  0  0
    7.6390   -0.2680   18.5410 N   0  0  0  0  0  0  0  0  0  0  0  0
    6.1790    0.5730   19.9990 N   0  0  0  0  0  0  0  0  0  0  0  0
    8.1890   -0.7180   20.8700 N   0  0  0  0  0  0  0  0  0  0  0  0
    9.2556   -4.7554   25.5513 N   0  0  0  0  0  0  0  0  0  0  0  0
    9.2690    1.4140   20.9380 O   0  0  0  0  0  0  0  0  0  0  0  0
   10.9597    4.6549   23.7359 S   0  0  0  0  0  0  0  0  0  0  0  0
    8.9214   -0.1986   25.4206 H   0  0  0  0  0  0  0  0  0  0  0  0
   10.0622   -2.2326   21.8251 H   0  0  0  0  0  0  0  0  0  0  0  0
    8.6882   -2.3542   26.5803 H   0  0  0  0  0  0  0  0  0  0  0  0
    9.9258   -4.3896   22.9914 H   0  0  0  0  0  0  0  0  0  0  0  0
   12.5509    2.4750   21.3365 H   0  0  0  0  0  0  0  0  0  0  0  0
   12.4707    5.0513   21.8570 H   0  0  0  0  0  0  0  0  0  0  0  0
    9.8997    2.7250   24.7898 H   0  0  0  0  0  0  0  0  0  0  0  0
    4.3967    1.9772   17.4718 H   0  0  0  0  0  0  0  0  0  0  0  0
    3.0218    2.6486   19.3697 H   0  0  0  0  0  0  0  0  0  0  0  0
    3.6566    2.0043   21.7065 H   0  0  0  0  0  0  0  0  0  0  0  0
    5.7190    0.6877   22.0810 H   0  0  0  0  0  0  0  0  0  0  0  0
    8.1775   -6.1919   26.6235 H   0  0  0  0  0  0  0  0  0  0  0  0
    7.6740   -4.4889   26.8933 H   0  0  0  0  0  0  0  0  0  0  0  0
    7.2508   -5.3180   25.3570 H   0  0  0  0  0  0  0  0  0  0  0  0
   10.1974   -6.4996   26.2195 H   0  0  0  0  0  0  0  0  0  0  0  0
   10.7877   -5.8568   24.6496 H   0  0  0  0  0  0  0  0  0  0  0  0
   11.2305   -5.0307   26.1819 H   0  0  0  0  0  0  0  0  0  0  0  0
   11.6011    0.2707   22.2030 H   0  0  0  0  0  0  0  0  0  0  0  0
   11.4624    0.2744   23.9446 H   0  0  0  0  0  0  0  0  0  0  0  0
    8.9284    0.9668   23.5149 H   0  0  0  0  0  0  0  0  0  0  0  0
    8.2385   -1.5646   21.0947 H   0  0  0  0  0  0  0  0  0  0  0  0
  1  3  2  0  0  0  0
  1  8  1  0  0  0  0
  2  4  1  0  0  0  0
  2  8  2  0  0  0  0
  3 10  1  0  0  0  0
  4 10  2  0  0  0  0
  5  6  2  0  0  0  0
  5  9  1  0  0  0  0
  6 28  1  0  0  0  0
  7  9  2  0  0  0  0
  7 28  1  0  0  0  0
  8 21  1  0  0  0  0
  9 20  1  0  0  0  0
 10 26  1  0  0  0  0
 11 13  1  0  0  0  0
 11 22  2  0  0  0  0
 11 24  1  0  0  0  0
 12 23  2  0  0  0  0
 12 24  1  0  0  0  0
 12 25  1  0  0  0  0
 13 14  2  0  0  0  0
 14 15  1  0  0  0  0
 15 16  2  0  0  0  0
 16 24  1  0  0  0  0
 17 21  1  0  0  0  0
 17 25  1  0  0  0  0
 17 27  2  0  0  0  0
 18 26  1  0  0  0  0
 19 26  1  0  0  0  0
 20 21  1  1  0  0  0
 22 23  1  0  0  0  0
  1 29  1  0  0  0  0
  2 30  1  0  0  0  0
  3 31  1  0  0  0  0
  4 32  1  0  0  0  0
  5 33  1  0  0  0  0
  6 34  1  0  0  0  0
  7 35  1  0  0  0  0
 13 36  1  0  0  0  0
 14 37  1  0  0  0  0
 15 38  1  0  0  0  0
 16 39  1  0  0  0  0
 18 40  1  0  0  0  0
 18 41  1  0  0  0  0
 18 42  1  0  0  0  0
 19 43  1  0  0  0  0
 19 44  1  0  0  0  0
 19 45  1  0  0  0  0
 20 46  1  0  0  0  0
 20 47  1  0  0  0  0
 21 48  1  0  0  0  0
 25 49  1  0  0  0  0
M  END
> <clash_score>
0

> <docking_score>
-10.366704940795898

> <overlap_score>
0.9158619046211243

$$$$
BENZO_308_2
  -OEChem-08232013463D

 49 52  0     1  0  0  0  0  0999 V2000
    9.0720   -1.1280   24.8640 C   0  0  0  0  0  0  0  0  0  0  0  0
    9.7200   -2.2600   22.8630 C   0  0  0  0  0  0  0  0  0  0  0  0
    8.9960   -2.3380   25.5320 C   0  0  0  0  0  0  0  0  0  0  0  0
    9.6730   -3.4710   23.5300 C   0  0  0  0  0  0  0  0  0  0  0  0
   10.3314    3.2065   22.7858 C   0  0  0  0  0  0  0  0  0  0  0  0
   10.3108    4.5599   22.5298 C   0  0  0  0  0  0  0  0  0  0  0  0
    8.2468    3.7959   23.6280 C   0  0  0  0  0  0  0  0  0  0  0  0
    9.3350   -1.0880   23.5010 C   0  0  0  0  0  0  0  0  0  0  0  0
    9.1357    2.7638   23.4218 C   0  0  0  0  0  0  0  0  0  0  0  0
    9.3070   -3.5340   24.8780 C   0  0  0  0  0  0  0  0  0  0  0  0
    5.8300    0.9190   18.6970 C   0  0  0  0  0  0  0  0  0  0  0  0
    7.3170   -0.1610   19.8550 C   0  0  0  0  0  0  0  0  0  0  0  0
    4.6890    1.6810   18.4640 C   0  0  0  0  0  0  0  0  0  0  0  0
    3.9160    2.0630   19.5520 C   0  0  0  0  0  0  0  0  0  0  0  0
    4.2750    1.7050   20.8490 C   0  0  0  0  0  0  0  0  0  0  0  0
    5.4210    0.9600   21.0930 C   0  0  0  0  0  0  0  0  0  0  0  0
    9.0420    0.3700   21.5280 C   0  0  0  0  0  0  0  0  0  0  0  0
    8.8766   -4.8075   26.9494 C   0  0  0  0  0  0  0  0  0  0  0  0
    9.5669   -5.9896   24.8578 C   0  0  0  0  0  0  0  0  0  0  0  0
    8.8757    1.3301   23.8233 C   0  0  0  0  0  0  0  0  0  0  0  0
    9.4560    0.1560   22.8130 C   0  0  2  0  0  0  0  0  0  0  0  0
    6.7580    0.3810   17.8350 N   0  0  0  0  0  0  0  0  0  0  0  0
    7.6390   -0.2680   18.5410 N   0  0  0  0  0  0  0  0  0  0  0  0
    6.1790    0.5730   19.9990 N   0  0  0  0  0  0  0  0  0  0  0  0
    8.1890   -0.7180   20.8700 N   0  0  0  0  0  0  0  0  0  0  0  0
    9.2556   -4.7554   25.5513 N   0  0  0  0  0  0  0  0  0  0  0  0
    9.2690    1.4140   20.9380 O   0  0  0  0  0  0  0  0  0  0  0  0
    8.8543    5.2911   23.0556 S   0  0  0  0  0  0  0  0  0  0  0  0
    8.9214   -0.1986   25.4206 H   0  0  0  0  0  0  0  0  0  0  0  0
   10.0622   -2.2326   21.8251 H   0  0  0  0  0  0  0  0  0  0  0  0
    8.6882   -2.3542   26.5803 H   0  0  0  0  0  0  0  0  0  0  0  0
    9.9258   -4.3896   22.9914 H   0  0  0  0  0  0  0  0  0  0  0  0
   11.1669    2.5681   22.5277 H   0  0  0  0  0  0  0  0  0  0  0  0
   11.0815    5.1544   22.0599 H   0  0  0  0  0  0  0  0  0  0  0  0
    7.2694    3.7480   24.0879 H   0  0  0  0  0  0  0  0  0  0  0  0
    4.3967    1.9772   17.4718 H   0  0  0  0  0  0  0  0  0  0  0  0
    3.0218    2.6486   19.3697 H   0  0  0  0  0  0  0  0  0  0  0  0
    3.6566    2.0043   21.7065 H   0  0  0  0  0  0  0  0  0  0  0  0
    5.7190    0.6877   22.0810 H   0  0  0  0  0  0  0  0  0  0  0  0
    8.8955   -5.8512   27.2963 H   0  0  0  0  0  0  0  0  0  0  0  0
    9.5845   -4.2109   27.5435 H   0  0  0  0  0  0  0  0  0  0  0  0
    7.8621   -4.3996   27.0696 H   0  0  0  0  0  0  0  0  0  0  0  0
    9.4707   -6.8361   25.5536 H   0  0  0  0  0  0  0  0  0  0  0  0
    8.8693   -6.1242   24.0181 H   0  0  0  0  0  0  0  0  0  0  0  0
   10.5972   -5.9451   24.4750 H   0  0  0  0  0  0  0  0  0  0  0  0
    9.2390    1.1684   24.8466 H   0  0  0  0  0  0  0  0  0  0  0  0
    7.7875    1.1860   23.8742 H   0  0  0  0  0  0  0  0  0  0  0  0
   10.6103    0.4565   22.8881 H   0  0  0  0  0  0  0  0  0  0  0  0
    8.2385   -1.5646   21.0947 H   0  0  0  0  0  0  0  0  0  0  0  0
  1  3  2  0  0  0  0
  1  8  1  0  0  0  0
  2  4  1  0  0  0  0
  2  8  2  0  0  0  0
  3 10  1  0  0  0  0
  4 10  2  0  0  0  0
  5  6  2  0  0  0  0
  5  9  1  0  0  0  0
  6 28  1  0  0  0  0
  7  9  2  0  0  0  0
  7 28  1  0  0  0  0
  8 21  1  0  0  0  0
  9 20  1  0  0  0  0
 10 26  1  0  0  0  0
 11 13  1  0  0  0  0
 11 22  2  0  0  0  0
 11 24  1  0  0  0  0
 12 23  2  0  0  0  0
 12 24  1  0  0  0  0
 12 25  1  0  0  0  0
 13 14  2  0  0  0  0
 14 15  1  0  0  0  0
 15 16  2  0  0  0  0
 16 24  1  0  0  0  0
 17 21  1  0  0  0  0
 17 25  1  0  0  0  0
 17 27  2  0  0  0  0
 18 26  1  0  0  0  0
 19 26  1  0  0  0  0
 20 21  1  6  0  0  0
 22 23  1  0  0  0  0
  1 29  1  0  0  0  0
  2 30  1  0  0  0  0
  3 31  1  0  0  0  0
  4 32  1  0  0  0  0
  5 33  1  0  0  0  0
  6 34  1  0  0  0  0
  7 35  1  0  0  0  0
 13 36  1  0  0  0  0
 14 37  1  0  0  0  0
 15 38  1  0  0  0  0
 16 39  1  0  0  0  0
 18 40  1  0  0  0  0
 18 41  1  0  0  0  0
 18 42  1  0  0  0  0
 19 43  1  0  0  0  0
 19 44  1  0  0  0  0
 19 45  1  0  0  0  0
 20 46  1  0  0  0  0
 20 47  1  0  0  0  0
 21 48  1  0  0  0  0
 25 49  1  0  0  0  0
M  END
> <clash_score>
0

> <docking_score>
-7.926568031311035

> <overlap_score>
0.8462643027305603

$$$$
BENZO_306_2
  -OEChem-08232013463D

 59 63  0     1  0  0  0  0  0999 V2000
    4.2750    1.7050   20.8490 C   0  0  0  0  0  0  0  0  0  0  0  0
    3.9160    2.0630   19.5520 C   0  0  0  0  0  0  0  0  0  0  0  0
   10.2856    4.3750   23.5656 C   0  0  0  0  0  0  0  0  0  0  0  0
    5.4210    0.9600   21.0930 C   0  0  0  0  0  0  0  0  0  0  0  0
   10.1350    2.9887   23.5350 C   0  0  0  0  0  0  0  0  0  0  0  0
    9.0720   -1.1280   24.8640 C   0  0  0  0  0  0  0  0  0  0  0  0
    9.7200   -2.2600   22.8630 C   0  0  0  0  0  0  0  0  0  0  0  0
    4.6890    1.6810   18.4640 C   0  0  0  0  0  0  0  0  0  0  0  0
    8.9960   -2.3380   25.5320 C   0  0  0  0  0  0  0  0  0  0  0  0
    9.6730   -3.4710   23.5300 C   0  0  0  0  0  0  0  0  0  0  0  0
   11.4735    4.9575   23.1236 C   0  0  0  0  0  0  0  0  0  0  0  0
   12.3603    2.7672   22.6205 C   0  0  0  0  0  0  0  0  0  0  0  0
    7.6390   -0.2680   18.5410 C   0  0  0  0  0  0  0  0  0  0  0  0
    6.1790    0.5730   19.9990 C   0  0  0  0  0  0  0  0  0  0  0  0
    9.3350   -1.0880   23.5010 C   0  0  0  0  0  0  0  0  0  0  0  0
   11.1723    2.1848   23.0624 C   0  0  0  0  0  0  0  0  0  0  0  0
    5.8300    0.9190   18.6970 C   0  0  0  0  0  0  0  0  0  0  0  0
    9.3070   -3.5340   24.8780 C   0  0  0  0  0  0  0  0  0  0  0  0
    7.3170   -0.1610   19.8550 C   0  0  0  0  0  0  0  0  0  0  0  0
   12.5108    4.1536   22.6511 C   0  0  0  0  0  0  0  0  0  0  0  0
    9.0420    0.3700   21.5280 C   0  0  0  0  0  0  0  0  0  0  0  0
    9.5176   -4.8600   26.9769 C   0  0  0  0  0  0  0  0  0  0  0  0
    8.5166   -5.8725   24.9805 C   0  0  0  0  0  0  0  0  0  0  0  0
    8.1870   -5.0443   27.6986 C   0  0  0  0  0  0  0  0  0  0  0  0
    7.2201   -6.0348   25.7753 C   0  0  0  0  0  0  0  0  0  0  0  0
   11.0089    0.6825   23.0307 C   0  0  0  0  0  0  0  0  0  0  0  0
    9.4560    0.1560   22.8130 C   0  0  2  0  0  0  0  0  0  0  0  0
    6.7580    0.3810   17.8350 N   0  0  0  0  0  0  0  0  0  0  0  0
    9.2564   -4.7368   25.5411 N   0  0  0  0  0  0  0  0  0  0  0  0
    8.1890   -0.7180   20.8700 N   0  0  0  0  0  0  0  0  0  0  0  0
    9.2690    1.4140   20.9380 O   0  0  0  0  0  0  0  0  0  0  0  0
    7.4995   -6.1856   27.1717 O   0  0  0  0  0  0  0  0  0  0  0  0
   13.9766    4.8727   22.1070 Cl  0  0  0  0  0  0  0  0  0  0  0  0
    3.6453    2.0152   21.6831 H   0  0  0  0  0  0  0  0  0  0  0  0
    3.0147    2.6520   19.3913 H   0  0  0  0  0  0  0  0  0  0  0  0
    9.4776    5.0007   23.9337 H   0  0  0  0  0  0  0  0  0  0  0  0
    5.6991    0.6995   22.1042 H   0  0  0  0  0  0  0  0  0  0  0  0
    9.2060    2.5434   23.8814 H   0  0  0  0  0  0  0  0  0  0  0  0
    8.9214   -0.1986   25.4206 H   0  0  0  0  0  0  0  0  0  0  0  0
   10.0622   -2.2326   21.8251 H   0  0  0  0  0  0  0  0  0  0  0  0
    4.4051    1.9733   17.4488 H   0  0  0  0  0  0  0  0  0  0  0  0
    8.6882   -2.3542   26.5803 H   0  0  0  0  0  0  0  0  0  0  0  0
    9.9258   -4.3896   22.9914 H   0  0  0  0  0  0  0  0  0  0  0  0
   11.5769    6.0394   23.1535 H   0  0  0  0  0  0  0  0  0  0  0  0
   13.1659    2.1361   22.2525 H   0  0  0  0  0  0  0  0  0  0  0  0
    8.4825   -0.7940   18.0623 H   0  0  0  0  0  0  0  0  0  0  0  0
   10.0259   -3.9714   27.3647 H   0  0  0  0  0  0  0  0  0  0  0  0
   10.1570   -5.7322   27.1547 H   0  0  0  0  0  0  0  0  0  0  0  0
    9.1206   -6.7792   25.0735 H   0  0  0  0  0  0  0  0  0  0  0  0
    8.2825   -5.7115   23.9263 H   0  0  0  0  0  0  0  0  0  0  0  0
    8.3631   -5.2257   28.7609 H   0  0  0  0  0  0  0  0  0  0  0  0
    7.5532   -4.1574   27.6103 H   0  0  0  0  0  0  0  0  0  0  0  0
    6.5460   -5.1840   25.6220 H   0  0  0  0  0  0  0  0  0  0  0  0
    6.6948   -6.9355   25.4433 H   0  0  0  0  0  0  0  0  0  0  0  0
   11.6011    0.2707   22.2030 H   0  0  0  0  0  0  0  0  0  0  0  0
   11.4624    0.2744   23.9446 H   0  0  0  0  0  0  0  0  0  0  0  0
    8.9284    0.9668   23.5149 H   0  0  0  0  0  0  0  0  0  0  0  0
    6.7266    0.4930   16.8305 H   0  0  0  0  0  0  0  0  0  0  0  0
    8.2408   -1.5631   21.0968 H   0  0  0  0  0  0  0  0  0  0  0  0
  1  2  1  0  0  0  0
  1  4  2  0  0  0  0
  2  8  2  0  0  0  0
  3  5  2  0  0  0  0
  3 11  1  0  0  0  0
  4 14  1  0  0  0  0
  5 16  1  0  0  0  0
  6  9  2  0  0  0  0
  6 15  1  0  0  0  0
  7 10  1  0  0  0  0
  7 15  2  0  0  0  0
  8 17  1  0  0  0  0
  9 18  1  0  0  0  0
 10 18  2  0  0  0  0
 11 20  2  0  0  0  0
 12 16  2  0  0  0  0
 12 20  1  0  0  0  0
 13 19  2  0  0  0  0
 13 28  1  0  0  0  0
 14 17  2  0  0  0  0
 14 19  1  0  0  0  0
 15 27  1  0  0  0  0
 16 26  1  0  0  0  0
 17 28  1  0  0  0  0
 18 29  1  0  0  0  0
 19 30  1  0  0  0  0
 20 33  1  0  0  0  0
 21 27  1  6  0  0  0
 21 30  1  0  0  0  0
 21 31  2  0  0  0  0
 22 24  1  0  0  0  0
 22 29  1  0  0  0  0
 23 25  1  0  0  0  0
 23 29  1  0  0  0  0
 24 32  1  0  0  0  0
 25 32  1  0  0  0  0
 26 27  1  0  0  0  0
  1 34  1  0  0  0  0
  2 35  1  0  0  0  0
  3 36  1  0  0  0  0
  4 37  1  0  0  0  0
  5 38  1  0  0  0  0
  6 39  1  0  0  0  0
  7 40  1  0  0  0  0
  8 41  1  0  0  0  0
  9 42  1  0  0  0  0
 10 43  1  0  0  0  0
 11 44  1  0  0  0  0
 12 45  1  0  0  0  0
 13 46  1  0  0  0  0
 22 47  1  0  0  0  0
 22 48  1  0  0  0  0
 23 49  1  0  0  0  0
 23 50  1  0  0  0  0
 24 51  1  0  0  0  0
 24 52  1  0  0  0  0
 25 53  1  0  0  0  0
 25 54  1  0  0  0  0
 26 55  1  0  0  0  0
 26 56  1  0  0  0  0
 27 57  1  0  0  0  0
 28 58  1  0  0  0  0
 30 59  1  0  0  0  0
M  END
> <clash_score>
0

> <docking_score>
-10.52462387084961

> <overlap_score>
0.9457946419715881

$$$$
BENZO_307_1
  -OEChem-08232013463D

 59 63  0     1  0  0  0  0  0999 V2000
    4.2750    1.7050   20.8490 C   0  0  0  0  0  0  0  0  0  0  0  0
    3.9160    2.0630   19.5520 C   0  0  0  0  0  0  0  0  0  0  0  0
    5.4210    0.9600   21.0930 C   0  0  0  0  0  0  0  0  0  0  0  0
    9.0720   -1.1280   24.8640 C   0  0  0  0  0  0  0  0  0  0  0  0
    9.7200   -2.2600   22.8630 C   0  0  0  0  0  0  0  0  0  0  0  0
    4.6890    1.6810   18.4640 C   0  0  0  0  0  0  0  0  0  0  0  0
    8.9960   -2.3380   25.5320 C   0  0  0  0  0  0  0  0  0  0  0  0
    9.6730   -3.4710   23.5300 C   0  0  0  0  0  0  0  0  0  0  0  0
   10.2428    3.1457   23.5034 C   0  0  0  0  0  0  0  0  0  0  0  0
   12.2645    2.9188   22.6690 C   0  0  0  0  0  0  0  0  0  0  0  0
    7.6390   -0.2680   18.5410 C   0  0  0  0  0  0  0  0  0  0  0  0
    6.1790    0.5730   19.9990 C   0  0  0  0  0  0  0  0  0  0  0  0
    9.3350   -1.0880   23.5010 C   0  0  0  0  0  0  0  0  0  0  0  0
   11.1723    2.1848   23.0624 C   0  0  0  0  0  0  0  0  0  0  0  0
    5.8300    0.9190   18.6970 C   0  0  0  0  0  0  0  0  0  0  0  0
    9.3070   -3.5340   24.8780 C   0  0  0  0  0  0  0  0  0  0  0  0
    7.3170   -0.1610   19.8550 C   0  0  0  0  0  0  0  0  0  0  0  0
    9.0420    0.3700   21.5280 C   0  0  0  0  0  0  0  0  0  0  0  0
   10.0772   -5.0257   26.7190 C   0  0  0  0  0  0  0  0  0  0  0  0
    8.0927   -5.6196   25.4069 C   0  0  0  0  0  0  0  0  0  0  0  0
    9.1935   -4.9431   27.9590 C   0  0  0  0  0  0  0  0  0  0  0  0
    7.2758   -5.5292   26.6966 C   0  0  0  0  0  0  0  0  0  0  0  0
   12.7694    5.3728   22.6294 C   0  0  0  0  0  0  0  0  0  0  0  0
   11.0089    0.6825   23.0307 C   0  0  0  0  0  0  0  0  0  0  0  0
    9.4560    0.1560   22.8130 C   0  0  1  0  0  0  0  0  0  0  0  0
   10.7043    4.3948   23.4002 N   0  0  0  0  0  0  0  0  0  0  0  0
    6.7580    0.3810   17.8350 N   0  0  0  0  0  0  0  0  0  0  0  0
   11.9358    4.2239   22.8900 N   0  0  0  0  0  0  0  0  0  0  0  0
    9.2564   -4.7368   25.5411 N   0  0  0  0  0  0  0  0  0  0  0  0
    8.1890   -0.7180   20.8700 N   0  0  0  0  0  0  0  0  0  0  0  0
    9.2690    1.4140   20.9380 O   0  0  0  0  0  0  0  0  0  0  0  0
    8.0885   -5.8462   27.8323 O   0  0  0  0  0  0  0  0  0  0  0  0
    3.6453    2.0152   21.6831 H   0  0  0  0  0  0  0  0  0  0  0  0
    3.0147    2.6520   19.3913 H   0  0  0  0  0  0  0  0  0  0  0  0
    5.6991    0.6995   22.1042 H   0  0  0  0  0  0  0  0  0  0  0  0
    8.9214   -0.1986   25.4206 H   0  0  0  0  0  0  0  0  0  0  0  0
   10.0622   -2.2326   21.8251 H   0  0  0  0  0  0  0  0  0  0  0  0
    4.4051    1.9733   17.4488 H   0  0  0  0  0  0  0  0  0  0  0  0
    8.6882   -2.3542   26.5803 H   0  0  0  0  0  0  0  0  0  0  0  0
    9.9258   -4.3896   22.9914 H   0  0  0  0  0  0  0  0  0  0  0  0
    9.2482    2.9901   23.8969 H   0  0  0  0  0  0  0  0  0  0  0  0
   13.2243    2.6307   22.2620 H   0  0  0  0  0  0  0  0  0  0  0  0
    8.4825   -0.7940   18.0623 H   0  0  0  0  0  0  0  0  0  0  0  0
   10.9045   -4.3145   26.8095 H   0  0  0  0  0  0  0  0  0  0  0  0
   10.4943   -6.0354   26.6306 H   0  0  0  0  0  0  0  0  0  0  0  0
    8.4338   -6.6479   25.2591 H   0  0  0  0  0  0  0  0  0  0  0  0
    7.4707   -5.3291   24.5579 H   0  0  0  0  0  0  0  0  0  0  0  0
    9.7638   -5.2402   28.8416 H   0  0  0  0  0  0  0  0  0  0  0  0
    8.8238   -3.9272   28.1248 H   0  0  0  0  0  0  0  0  0  0  0  0
    6.8340   -4.5339   26.8232 H   0  0  0  0  0  0  0  0  0  0  0  0
    6.4551   -6.2523   26.6642 H   0  0  0  0  0  0  0  0  0  0  0  0
   12.5744    5.7060   21.6066 H   0  0  0  0  0  0  0  0  0  0  0  0
   12.5290    6.1664   23.3423 H   0  0  0  0  0  0  0  0  0  0  0  0
   13.8196    5.0915   22.7473 H   0  0  0  0  0  0  0  0  0  0  0  0
   11.6011    0.2707   22.2030 H   0  0  0  0  0  0  0  0  0  0  0  0
   11.4624    0.2744   23.9446 H   0  0  0  0  0  0  0  0  0  0  0  0
    8.9284    0.9668   23.5149 H   0  0  0  0  0  0  0  0  0  0  0  0
    6.7266    0.4930   16.8305 H   0  0  0  0  0  0  0  0  0  0  0  0
    8.2408   -1.5631   21.0968 H   0  0  0  0  0  0  0  0  0  0  0  0
  1  2  1  0  0  0  0
  1  3  2  0  0  0  0
  2  6  2  0  0  0  0
  3 12  1  0  0  0  0
  4  7  2  0  0  0  0
  4 13  1  0  0  0  0
  5  8  1  0  0  0  0
  5 13  2  0  0  0  0
  6 15  1  0  0  0  0
  7 16  1  0  0  0  0
  8 16  2  0  0  0  0
  9 14  1  0  0  0  0
  9 26  2  0  0  0  0
 10 14  2  0  0  0  0
 10 28  1  0  0  0  0
 11 17  2  0  0  0  0
 11 27  1  0  0  0  0
 12 15  2  0  0  0  0
 12 17  1  0  0  0  0
 13 25  1  0  0  0  0
 14 24  1  0  0  0  0
 15 27  1  0  0  0  0
 16 29  1  0  0  0  0
 17 30  1  0  0  0  0
 18 25  1  0  0  0  0
 18 30  1  0  0  0  0
 18 31  2  0  0  0  0
 19 21  1  0  0  0  0
 19 29  1  0  0  0  0
 20 22  1  0  0  0  0
 20 29  1  0  0  0  0
 21 32  1  0  0  0  0
 22 32  1  0  0  0  0
 23 28  1  0  0  0  0
 24 25  1  1  0  0  0
 26 28  1  0  0  0  0
  1 33  1  0  0  0  0
  2 34  1  0  0  0  0
  3 35  1  0  0  0  0
  4 36  1  0  0  0  0
  5 37  1  0  0  0  0
  6 38  1  0  0  0  0
  7 39  1  0  0  0  0
  8 40  1  0  0  0  0
  9 41  1  0  0  0  0
 10 42  1  0  0  0  0
 11 43  1  0  0  0  0
 19 44  1  0  0  0  0
 19 45  1  0  0  0  0
 20 46  1  0  0  0  0
 20 47  1  0  0  0  0
 21 48  1  0  0  0  0
 21 49  1  0  0  0  0
 22 50  1  0  0  0  0
 22 51  1  0  0  0  0
 23 52  1  0  0  0  0
 23 53  1  0  0  0  0
 23 54  1  0  0  0  0
 24 55  1  0  0  0  0
 24 56  1  0  0  0  0
 25 57  1  0  0  0  0
 27 58  1  0  0  0  0
 30 59  1  0  0  0  0
M  END
> <clash_score>
0

> <docking_score>
-10.025003433227539

> <overlap_score>
0.9372089505195618

$$$$
BENZO_310_1
  -OEChem-08232013463D

 52 55  0     1  0  0  0  0  0999 V2000
   10.2856    4.3750   23.5656 C   0  0  0  0  0  0  0  0  0  0  0  0
   10.1350    2.9887   23.5349 C   0  0  0  0  0  0  0  0  0  0  0  0
    9.0720   -1.1280   24.8640 C   0  0  0  0  0  0  0  0  0  0  0  0
    9.7200   -2.2600   22.8630 C   0  0  0  0  0  0  0  0  0  0  0  0
    8.9960   -2.3380   25.5320 C   0  0  0  0  0  0  0  0  0  0  0  0
    9.6730   -3.4710   23.5300 C   0  0  0  0  0  0  0  0  0  0  0  0
   11.4735    4.9575   23.1236 C   0  0  0  0  0  0  0  0  0  0  0  0
   12.3603    2.7672   22.6205 C   0  0  0  0  0  0  0  0  0  0  0  0
    9.3350   -1.0880   23.5010 C   0  0  0  0  0  0  0  0  0  0  0  0
   11.1723    2.1848   23.0624 C   0  0  0  0  0  0  0  0  0  0  0  0
    9.3070   -3.5340   24.8780 C   0  0  0  0  0  0  0  0  0  0  0  0
   12.5108    4.1536   22.6511 C   0  0  0  0  0  0  0  0  0  0  0  0
    5.8300    0.9190   18.6970 C   0  0  0  0  0  0  0  0  0  0  0  0
    7.3170   -0.1610   19.8550 C   0  0  0  0  0  0  0  0  0  0  0  0
    4.6890    1.6810   18.4640 C   0  0  0  0  0  0  0  0  0  0  0  0
    3.9160    2.0630   19.5520 C   0  0  0  0  0  0  0  0  0  0  0  0
    4.2750    1.7050   20.8490 C   0  0  0  0  0  0  0  0  0  0  0  0
    5.4210    0.9600   21.0930 C   0  0  0  0  0  0  0  0  0  0  0  0
    9.0420    0.3700   21.5280 C   0  0  0  0  0  0  0  0  0  0  0  0
    8.0148   -5.2164   26.1419 C   0  0  0  0  0  0  0  0  0  0  0  0
   10.4390   -5.5857   25.6570 C   0  0  0  0  0  0  0  0  0  0  0  0
   11.0089    0.6825   23.0307 C   0  0  0  0  0  0  0  0  0  0  0  0
    9.4560    0.1560   22.8130 C   0  0  1  0  0  0  0  0  0  0  0  0
    6.7580    0.3810   17.8350 N   0  0  0  0  0  0  0  0  0  0  0  0
    7.6390   -0.2680   18.5410 N   0  0  0  0  0  0  0  0  0  0  0  0
    6.1790    0.5730   19.9990 N   0  0  0  0  0  0  0  0  0  0  0  0
    8.1890   -0.7180   20.8700 N   0  0  0  0  0  0  0  0  0  0  0  0
    9.2556   -4.7554   25.5513 N   0  0  0  0  0  0  0  0  0  0  0  0
    9.2690    1.4140   20.9380 O   0  0  0  0  0  0  0  0  0  0  0  0
   13.9766    4.8727   22.1070 Cl  0  0  0  0  0  0  0  0  0  0  0  0
    9.4776    5.0007   23.9337 H   0  0  0  0  0  0  0  0  0  0  0  0
    9.2060    2.5434   23.8814 H   0  0  0  0  0  0  0  0  0  0  0  0
    8.9214   -0.1986   25.4206 H   0  0  0  0  0  0  0  0  0  0  0  0
   10.0622   -2.2326   21.8251 H   0  0  0  0  0  0  0  0  0  0  0  0
    8.6882   -2.3542   26.5803 H   0  0  0  0  0  0  0  0  0  0  0  0
    9.9258   -4.3896   22.9914 H   0  0  0  0  0  0  0  0  0  0  0  0
   11.5769    6.0394   23.1535 H   0  0  0  0  0  0  0  0  0  0  0  0
   13.1659    2.1361   22.2525 H   0  0  0  0  0  0  0  0  0  0  0  0
    4.3967    1.9772   17.4718 H   0  0  0  0  0  0  0  0  0  0  0  0
    3.0218    2.6486   19.3697 H   0  0  0  0  0  0  0  0  0  0  0  0
    3.6566    2.0043   21.7065 H   0  0  0  0  0  0  0  0  0  0  0  0
    5.7190    0.6877   22.0810 H   0  0  0  0  0  0  0  0  0  0  0  0
    8.1775   -6.1919   26.6235 H   0  0  0  0  0  0  0  0  0  0  0  0
    7.6740   -4.4889   26.8933 H   0  0  0  0  0  0  0  0  0  0  0  0
    7.2508   -5.3180   25.3570 H   0  0  0  0  0  0  0  0  0  0  0  0
   10.1974   -6.4996   26.2195 H   0  0  0  0  0  0  0  0  0  0  0  0
   10.7877   -5.8568   24.6496 H   0  0  0  0  0  0  0  0  0  0  0  0
   11.2305   -5.0307   26.1819 H   0  0  0  0  0  0  0  0  0  0  0  0
   11.6011    0.2707   22.2030 H   0  0  0  0  0  0  0  0  0  0  0  0
   11.4624    0.2744   23.9446 H   0  0  0  0  0  0  0  0  0  0  0  0
    8.9284    0.9668   23.5149 H   0  0  0  0  0  0  0  0  0  0  0  0
    8.2385   -1.5646   21.0947 H   0  0  0  0  0  0  0  0  0  0  0  0
  1  2  2  0  0  0  0
  1  7  1  0  0  0  0
  2 10  1  0  0  0  0
  3  5  2  0  0  0  0
  3  9  1  0  0  0  0
  4  6  1  0  0  0  0
  4  9  2  0  0  0  0
  5 11  1  0  0  0  0
  6 11  2  0  0  0  0
  7 12  2  0  0  0  0
  8 10  2  0  0  0  0
  8 12  1  0  0  0  0
  9 23  1  0  0  0  0
 10 22  1  0  0  0  0
 11 28  1  0  0  0  0
 12 30  1  0  0  0  0
 13 15  1  0  0  0  0
 13 24  2  0  0  0  0
 13 26  1  0  0  0  0
 14 25  2  0  0  0  0
 14 26  1  0  0  0  0
 14 27  1  0  0  0  0
 15 16  2  0  0  0  0
 16 17  1  0  0  0  0
 17 18  2  0  0  0  0
 18 26  1  0  0  0  0
 19 23  1  0  0  0  0
 19 27  1  0  0  0  0
 19 29  2  0  0  0  0
 20 28  1  0  0  0  0
 21 28  1  0  0  0  0
 22 23  1  1  0  0  0
 24 25  1  0  0  0  0
  1 31  1  0  0  0  0
  2 32  1  0  0  0  0
  3 33  1  0  0  0  0
  4 34  1  0  0  0  0
  5 35  1  0  0  0  0
  6 36  1  0  0  0  0
  7 37  1  0  0  0  0
  8 38  1  0  0  0  0
 15 39  1  0  0  0  0
 16 40  1  0  0  0  0
 17 41  1  0  0  0  0
 18 42  1  0  0  0  0
 20 43  1  0  0  0  0
 20 44  1  0  0  0  0
 20 45  1  0  0  0  0
 21 46  1  0  0  0  0
 21 47  1  0  0  0  0
 21 48  1  0  0  0  0
 22 49  1  0  0  0  0
 22 50  1  0  0  0  0
 23 51  1  0  0  0  0
 27 52  1  0  0  0  0
M  END
> <clash_score>
0

> <docking_score>
-11.768475532531738

> <overlap_score>
0.9294800162315369

$$$$
BENZO_311_2
  -OEChem-08232013463D

 52 55  0     1  0  0  0  0  0999 V2000
    9.0720   -1.1280   24.8640 C   0  0  0  0  0  0  0  0  0  0  0  0
    9.7200   -2.2600   22.8630 C   0  0  0  0  0  0  0  0  0  0  0  0
    8.9960   -2.3380   25.5320 C   0  0  0  0  0  0  0  0  0  0  0  0
    9.6730   -3.4710   23.5300 C   0  0  0  0  0  0  0  0  0  0  0  0
   10.2230    3.2711   22.6855 C   0  0  0  0  0  0  0  0  0  0  0  0
    8.3607    3.8650   23.6924 C   0  0  0  0  0  0  0  0  0  0  0  0
    9.3350   -1.0880   23.5010 C   0  0  0  0  0  0  0  0  0  0  0  0
    9.1357    2.7638   23.4218 C   0  0  0  0  0  0  0  0  0  0  0  0
    9.3070   -3.5340   24.8780 C   0  0  0  0  0  0  0  0  0  0  0  0
    5.8300    0.9190   18.6970 C   0  0  0  0  0  0  0  0  0  0  0  0
    7.3170   -0.1610   19.8550 C   0  0  0  0  0  0  0  0  0  0  0  0
    4.6890    1.6810   18.4640 C   0  0  0  0  0  0  0  0  0  0  0  0
    3.9160    2.0630   19.5520 C   0  0  0  0  0  0  0  0  0  0  0  0
    4.2750    1.7050   20.8490 C   0  0  0  0  0  0  0  0  0  0  0  0
    5.4210    0.9600   21.0930 C   0  0  0  0  0  0  0  0  0  0  0  0
    9.0420    0.3700   21.5280 C   0  0  0  0  0  0  0  0  0  0  0  0
    8.5727    6.3003   23.1419 C   0  0  0  0  0  0  0  0  0  0  0  0
    8.8766   -4.8075   26.9494 C   0  0  0  0  0  0  0  0  0  0  0  0
    9.5669   -5.9896   24.8578 C   0  0  0  0  0  0  0  0  0  0  0  0
    8.8757    1.3301   23.8233 C   0  0  0  0  0  0  0  0  0  0  0  0
    9.4560    0.1560   22.8130 C   0  0  2  0  0  0  0  0  0  0  0  0
   10.1488    4.5917   22.4999 N   0  0  0  0  0  0  0  0  0  0  0  0
    6.7580    0.3810   17.8350 N   0  0  0  0  0  0  0  0  0  0  0  0
    7.6390   -0.2680   18.5410 N   0  0  0  0  0  0  0  0  0  0  0  0
    9.0056    4.9236   23.1235 N   0  0  0  0  0  0  0  0  0  0  0  0
    6.1790    0.5730   19.9990 N   0  0  0  0  0  0  0  0  0  0  0  0
    8.1890   -0.7180   20.8700 N   0  0  0  0  0  0  0  0  0  0  0  0
    9.2556   -4.7554   25.5513 N   0  0  0  0  0  0  0  0  0  0  0  0
    9.2690    1.4140   20.9380 O   0  0  0  0  0  0  0  0  0  0  0  0
    8.9214   -0.1986   25.4206 H   0  0  0  0  0  0  0  0  0  0  0  0
   10.0622   -2.2326   21.8251 H   0  0  0  0  0  0  0  0  0  0  0  0
    8.6882   -2.3542   26.5803 H   0  0  0  0  0  0  0  0  0  0  0  0
    9.9258   -4.3896   22.9914 H   0  0  0  0  0  0  0  0  0  0  0  0
   11.0671    2.7354   22.2746 H   0  0  0  0  0  0  0  0  0  0  0  0
    7.4277    3.9824   24.2269 H   0  0  0  0  0  0  0  0  0  0  0  0
    4.3967    1.9772   17.4718 H   0  0  0  0  0  0  0  0  0  0  0  0
    3.0218    2.6486   19.3697 H   0  0  0  0  0  0  0  0  0  0  0  0
    3.6566    2.0043   21.7065 H   0  0  0  0  0  0  0  0  0  0  0  0
    5.7190    0.6877   22.0810 H   0  0  0  0  0  0  0  0  0  0  0  0
    8.9983    6.7758   24.0295 H   0  0  0  0  0  0  0  0  0  0  0  0
    8.9199    6.8033   22.2351 H   0  0  0  0  0  0  0  0  0  0  0  0
    7.4802    6.3352   23.1748 H   0  0  0  0  0  0  0  0  0  0  0  0
    8.8955   -5.8512   27.2963 H   0  0  0  0  0  0  0  0  0  0  0  0
    9.5845   -4.2109   27.5435 H   0  0  0  0  0  0  0  0  0  0  0  0
    7.8621   -4.3996   27.0696 H   0  0  0  0  0  0  0  0  0  0  0  0
    9.4707   -6.8361   25.5536 H   0  0  0  0  0  0  0  0  0  0  0  0
    8.8693   -6.1242   24.0181 H   0  0  0  0  0  0  0  0  0  0  0  0
   10.5972   -5.9451   24.4750 H   0  0  0  0  0  0  0  0  0  0  0  0
    9.2390    1.1684   24.8466 H   0  0  0  0  0  0  0  0  0  0  0  0
    7.7875    1.1860   23.8742 H   0  0  0  0  0  0  0  0  0  0  0  0
   10.6103    0.4565   22.8881 H   0  0  0  0  0  0  0  0  0  0  0  0
    8.2385   -1.5646   21.0947 H   0  0  0  0  0  0  0  0  0  0  0  0
  1  3  2  0  0  0  0
  1  7  1  0  0  0  0
  2  4  1  0  0  0  0
  2  7  2  0  0  0  0
  3  9  1  0  0  0  0
  4  9  2  0  0  0  0
  5  8  1  0  0  0  0
  5 22  2  0  0  0  0
  6  8  2  0  0  0  0
  6 25  1  0  0  0  0
  7 21  1  0  0  0  0
  8 20  1  0  0  0  0
  9 28  1  0  0  0  0
 10 12  1  0  0  0  0
 10 23  2  0  0  0  0
 10 26  1  0  0  0  0
 11 24  2  0  0  0  0
 11 26  1  0  0  0  0
 11 27  1  0  0  0  0
 12 13  2  0  0  0  0
 13 14  1  0  0  0  0
 14 15  2  0  0  0  0
 15 26  1  0  0  0  0
 16 21  1  0  0  0  0
 16 27  1  0  0  0  0
 16 29  2  0  0  0  0
 17 25  1  0  0  0  0
 18 28  1  0  0  0  0
 19 28  1  0  0  0  0
 20 21  1  6  0  0  0
 22 25  1  0  0  0  0
 23 24  1  0  0  0  0
  1 30  1  0  0  0  0
  2 31  1  0  0  0  0
  3 32  1  0  0  0  0
  4 33  1  0  0  0  0
  5 34  1  0  0  0  0
  6 35  1  0  0  0  0
 12 36  1  0  0  0  0
 13 37  1  0  0  0  0
 14 38  1  0  0  0  0
 15 39  1  0  0  0  0
 17 40  1  0  0  0  0
 17 41  1  0  0  0  0
 17 42  1  0  0  0  0
 18 43  1  0  0  0  0
 18 44  1  0  0  0  0
 18 45  1  0  0  0  0
 19 46  1  0  0  0  0
 19 47  1  0  0  0  0
 19 48  1  0  0  0  0
 20 49  1  0  0  0  0
 20 50  1  0  0  0  0
 21 51  1  0  0  0  0
 27 52  1  0  0  0  0
M  END
> <clash_score>
0

> <docking_score>
-7.26786994934082

> <overlap_score>
0.8417669534683228

$$$$
BENZO_311_1
  -OEChem-08232013463D

 52 55  0     1  0  0  0  0  0999 V2000
    9.0720   -1.1280   24.8640 C   0  0  0  0  0  0  0  0  0  0  0  0
    9.7200   -2.2600   22.8630 C   0  0  0  0  0  0  0  0  0  0  0  0
    8.9960   -2.3380   25.5320 C   0  0  0  0  0  0  0  0  0  0  0  0
    9.6730   -3.4710   23.5300 C   0  0  0  0  0  0  0  0  0  0  0  0
   10.2428    3.1456   23.5034 C   0  0  0  0  0  0  0  0  0  0  0  0
   12.2645    2.9188   22.6690 C   0  0  0  0  0  0  0  0  0  0  0  0
    9.3350   -1.0880   23.5010 C   0  0  0  0  0  0  0  0  0  0  0  0
   11.1723    2.1848   23.0624 C   0  0  0  0  0  0  0  0  0  0  0  0
    9.3070   -3.5340   24.8780 C   0  0  0  0  0  0  0  0  0  0  0  0
    5.8300    0.9190   18.6970 C   0  0  0  0  0  0  0  0  0  0  0  0
    7.3170   -0.1610   19.8550 C   0  0  0  0  0  0  0  0  0  0  0  0
    4.6890    1.6810   18.4640 C   0  0  0  0  0  0  0  0  0  0  0  0
    3.9160    2.0630   19.5520 C   0  0  0  0  0  0  0  0  0  0  0  0
    4.2750    1.7050   20.8490 C   0  0  0  0  0  0  0  0  0  0  0  0
    5.4210    0.9600   21.0930 C   0  0  0  0  0  0  0  0  0  0  0  0
    9.0420    0.3700   21.5280 C   0  0  0  0  0  0  0  0  0  0  0  0
   12.7694    5.3728   22.6294 C   0  0  0  0  0  0  0  0  0  0  0  0
    8.0148   -5.2164   26.1419 C   0  0  0  0  0  0  0  0  0  0  0  0
   10.4390   -5.5857   25.6570 C   0  0  0  0  0  0  0  0  0  0  0  0
   11.0089    0.6825   23.0307 C   0  0  0  0  0  0  0  0  0  0  0  0
    9.4560    0.1560   22.8130 C   0  0  1  0  0  0  0  0  0  0  0  0
   10.7043    4.3948   23.4002 N   0  0  0  0  0  0  0  0  0  0  0  0
    6.7580    0.3810   17.8350 N   0  0  0  0  0  0  0  0  0  0  0  0
    7.6390   -0.2680   18.5410 N   0  0  0  0  0  0  0  0  0  0  0  0
   11.9357    4.2239   22.8900 N   0  0  0  0  0  0  0  0  0  0  0  0
    6.1790    0.5730   19.9990 N   0  0  0  0  0  0  0  0  0  0  0  0
    8.1890   -0.7180   20.8700 N   0  0  0  0  0  0  0  0  0  0  0  0
    9.2556   -4.7554   25.5513 N   0  0  0  0  0  0  0  0  0  0  0  0
    9.2690    1.4140   20.9380 O   0  0  0  0  0  0  0  0  0  0  0  0
    8.9214   -0.1986   25.4206 H   0  0  0  0  0  0  0  0  0  0  0  0
   10.0622   -2.2326   21.8251 H   0  0  0  0  0  0  0  0  0  0  0  0
    8.6882   -2.3542   26.5803 H   0  0  0  0  0  0  0  0  0  0  0  0
    9.9258   -4.3896   22.9914 H   0  0  0  0  0  0  0  0  0  0  0  0
    9.2482    2.9901   23.8969 H   0  0  0  0  0  0  0  0  0  0  0  0
   13.2243    2.6307   22.2620 H   0  0  0  0  0  0  0  0  0  0  0  0
    4.3967    1.9772   17.4718 H   0  0  0  0  0  0  0  0  0  0  0  0
    3.0218    2.6486   19.3697 H   0  0  0  0  0  0  0  0  0  0  0  0
    3.6566    2.0043   21.7065 H   0  0  0  0  0  0  0  0  0  0  0  0
    5.7190    0.6877   22.0810 H   0  0  0  0  0  0  0  0  0  0  0  0
   12.5744    5.7060   21.6066 H   0  0  0  0  0  0  0  0  0  0  0  0
   12.5290    6.1664   23.3423 H   0  0  0  0  0  0  0  0  0  0  0  0
   13.8196    5.0915   22.7473 H   0  0  0  0  0  0  0  0  0  0  0  0
    8.1775   -6.1919   26.6235 H   0  0  0  0  0  0  0  0  0  0  0  0
    7.6740   -4.4889   26.8933 H   0  0  0  0  0  0  0  0  0  0  0  0
    7.2508   -5.3180   25.3570 H   0  0  0  0  0  0  0  0  0  0  0  0
   10.1974   -6.4996   26.2195 H   0  0  0  0  0  0  0  0  0  0  0  0
   10.7877   -5.8568   24.6496 H   0  0  0  0  0  0  0  0  0  0  0  0
   11.2305   -5.0307   26.1819 H   0  0  0  0  0  0  0  0  0  0  0  0
   11.6011    0.2707   22.2030 H   0  0  0  0  0  0  0  0  0  0  0  0
   11.4624    0.2744   23.9446 H   0  0  0  0  0  0  0  0  0  0  0  0
    8.9284    0.9668   23.5149 H   0  0  0  0  0  0  0  0  0  0  0  0
    8.2385   -1.5646   21.0947 H   0  0  0  0  0  0  0  0  0  0  0  0
  1  3  2  0  0  0  0
  1  7  1  0  0  0  0
  2  4  1  0  0  0  0
  2  7  2  0  0  0  0
  3  9  1  0  0  0  0
  4  9  2  0  0  0  0
  5  8  1  0  0  0  0
  5 22  2  0  0  0  0
  6  8  2  0  0  0  0
  6 25  1  0  0  0  0
  7 21  1  0  0  0  0
  8 20  1  0  0  0  0
  9 28  1  0  0  0  0
 10 12  1  0  0  0  0
 10 23  2  0  0  0  0
 10 26  1  0  0  0  0
 11 24  2  0  0  0  0
 11 26  1  0  0  0  0
 11 27  1  0  0  0  0
 12 13  2  0  0  0  0
 13 14  1  0  0  0  0
 14 15  2  0  0  0  0
 15 26  1  0  0  0  0
 16 21  1  0  0  0  0
 16 27  1  0  0  0  0
 16 29  2  0  0  0  0
 17 25  1  0  0  0  0
 18 28  1  0  0  0  0
 19 28  1  0  0  0  0
 20 21  1  1  0  0  0
 22 25  1  0  0  0  0
 23 24  1  0  0  0  0
  1 30  1  0  0  0  0
  2 31  1  0  0  0  0
  3 32  1  0  0  0  0
  4 33  1  0  0  0  0
  5 34  1  0  0  0  0
  6 35  1  0  0  0  0
 12 36  1  0  0  0  0
 13 37  1  0  0  0  0
 14 38  1  0  0  0  0
 15 39  1  0  0  0  0
 17 40  1  0  0  0  0
 17 41  1  0  0  0  0
 17 42  1  0  0  0  0
 18 43  1  0  0  0  0
 18 44  1  0  0  0  0
 18 45  1  0  0  0  0
 19 46  1  0  0  0  0
 19 47  1  0  0  0  0
 19 48  1  0  0  0  0
 20 49  1  0  0  0  0
 20 50  1  0  0  0  0
 21 51  1  0  0  0  0
 27 52  1  0  0  0  0
M  END
> <clash_score>
0

> <docking_score>
-11.23115062713623

> <overlap_score>
0.9245859980583191

$$$$
BENZO_310_2
  -OEChem-08232013463D

 52 55  0     1  0  0  0  0  0999 V2000
    8.4741    5.0874   23.4171 C   0  0  0  0  0  0  0  0  0  0  0  0
    8.2342    3.7639   23.7862 C   0  0  0  0  0  0  0  0  0  0  0  0
    9.0720   -1.1280   24.8640 C   0  0  0  0  0  0  0  0  0  0  0  0
    9.7200   -2.2600   22.8630 C   0  0  0  0  0  0  0  0  0  0  0  0
    8.9960   -2.3380   25.5320 C   0  0  0  0  0  0  0  0  0  0  0  0
    9.6730   -3.4710   23.5300 C   0  0  0  0  0  0  0  0  0  0  0  0
    9.6155    5.4109   22.6835 C   0  0  0  0  0  0  0  0  0  0  0  0
   10.2772    3.0873   22.6883 C   0  0  0  0  0  0  0  0  0  0  0  0
    9.3350   -1.0880   23.5010 C   0  0  0  0  0  0  0  0  0  0  0  0
    9.1357    2.7638   23.4219 C   0  0  0  0  0  0  0  0  0  0  0  0
    9.3070   -3.5340   24.8780 C   0  0  0  0  0  0  0  0  0  0  0  0
   10.5171    4.4109   22.3191 C   0  0  0  0  0  0  0  0  0  0  0  0
    5.8300    0.9190   18.6970 C   0  0  0  0  0  0  0  0  0  0  0  0
    7.3170   -0.1610   19.8550 C   0  0  0  0  0  0  0  0  0  0  0  0
    4.6890    1.6810   18.4640 C   0  0  0  0  0  0  0  0  0  0  0  0
    3.9160    2.0630   19.5520 C   0  0  0  0  0  0  0  0  0  0  0  0
    4.2750    1.7050   20.8490 C   0  0  0  0  0  0  0  0  0  0  0  0
    5.4210    0.9600   21.0930 C   0  0  0  0  0  0  0  0  0  0  0  0
    9.0420    0.3700   21.5280 C   0  0  0  0  0  0  0  0  0  0  0  0
    8.8766   -4.8075   26.9494 C   0  0  0  0  0  0  0  0  0  0  0  0
    9.5669   -5.9896   24.8578 C   0  0  0  0  0  0  0  0  0  0  0  0
    8.8757    1.3301   23.8233 C   0  0  0  0  0  0  0  0  0  0  0  0
    9.4560    0.1560   22.8130 C   0  0  2  0  0  0  0  0  0  0  0  0
    6.7580    0.3810   17.8350 N   0  0  0  0  0  0  0  0  0  0  0  0
    7.6390   -0.2680   18.5410 N   0  0  0  0  0  0  0  0  0  0  0  0
    6.1790    0.5730   19.9990 N   0  0  0  0  0  0  0  0  0  0  0  0
    8.1890   -0.7180   20.8700 N   0  0  0  0  0  0  0  0  0  0  0  0
    9.2556   -4.7554   25.5513 N   0  0  0  0  0  0  0  0  0  0  0  0
    9.2690    1.4140   20.9380 O   0  0  0  0  0  0  0  0  0  0  0  0
   11.9257    4.8108   21.4150 Cl  0  0  0  0  0  0  0  0  0  0  0  0
    7.7719    5.8659   23.7012 H   0  0  0  0  0  0  0  0  0  0  0  0
    7.3423    3.5209   24.3579 H   0  0  0  0  0  0  0  0  0  0  0  0
    8.9214   -0.1986   25.4206 H   0  0  0  0  0  0  0  0  0  0  0  0
   10.0622   -2.2326   21.8251 H   0  0  0  0  0  0  0  0  0  0  0  0
    8.6882   -2.3542   26.5803 H   0  0  0  0  0  0  0  0  0  0  0  0
    9.9258   -4.3896   22.9914 H   0  0  0  0  0  0  0  0  0  0  0  0
    9.7898    6.4468   22.4029 H   0  0  0  0  0  0  0  0  0  0  0  0
   10.9768    2.3039   22.4061 H   0  0  0  0  0  0  0  0  0  0  0  0
    4.3967    1.9772   17.4718 H   0  0  0  0  0  0  0  0  0  0  0  0
    3.0218    2.6486   19.3697 H   0  0  0  0  0  0  0  0  0  0  0  0
    3.6566    2.0043   21.7065 H   0  0  0  0  0  0  0  0  0  0  0  0
    5.7190    0.6877   22.0810 H   0  0  0  0  0  0  0  0  0  0  0  0
    8.8955   -5.8512   27.2963 H   0  0  0  0  0  0  0  0  0  0  0  0
    9.5845   -4.2109   27.5435 H   0  0  0  0  0  0  0  0  0  0  0  0
    7.8621   -4.3996   27.0696 H   0  0  0  0  0  0  0  0  0  0  0  0
    9.4707   -6.8361   25.5536 H   0  0  0  0  0  0  0  0  0  0  0  0
    8.8693   -6.1242   24.0181 H   0  0  0  0  0  0  0  0  0  0  0  0
   10.5972   -5.9451   24.4750 H   0  0  0  0  0  0  0  0  0  0  0  0
    9.2390    1.1684   24.8466 H   0  0  0  0  0  0  0  0  0  0  0  0
    7.7875    1.1860   23.8742 H   0  0  0  0  0  0  0  0  0  0  0  0
   10.6103    0.4565   22.8881 H   0  0  0  0  0  0  0  0  0  0  0  0
    8.2385   -1.5646   21.0947 H   0  0  0  0  0  0  0  0  0  0  0  0
  1  2  2  0  0  0  0
  1  7  1  0  0  0  0
  2 10  1  0  0  0  0
  3  5  2  0  0  0  0
  3  9  1  0  0  0  0
  4  6  1  0  0  0  0
  4  9  2  0  0  0  0
  5 11  1  0  0  0  0
  6 11  2  0  0  0  0
  7 12  2  0  0  0  0
  8 10  2  0  0  0  0
  8 12  1  0  0  0  0
  9 23  1  0  0  0  0
 10 22  1  0  0  0  0
 11 28  1  0  0  0  0
 12 30  1  0  0  0  0
 13 15  1  0  0  0  0
 13 24  2  0  0  0  0
 13 26  1  0  0  0  0
 14 25  2  0  0  0  0
 14 26  1  0  0  0  0
 14 27  1  0  0  0  0
 15 16  2  0  0  0  0
 16 17  1  0  0  0  0
 17 18  2  0  0  0  0
 18 26  1  0  0  0  0
 19 23  1  0  0  0  0
 19 27  1  0  0  0  0
 19 29  2  0  0  0  0
 20 28  1  0  0  0  0
 21 28  1  0  0  0  0
 22 23  1  6  0  0  0
 24 25  1  0  0  0  0
  1 31  1  0  0  0  0
  2 32  1  0  0  0  0
  3 33  1  0  0  0  0
  4 34  1  0  0  0  0
  5 35  1  0  0  0  0
  6 36  1  0  0  0  0
  7 37  1  0  0  0  0
  8 38  1  0  0  0  0
 15 39  1  0  0  0  0
 16 40  1  0  0  0  0
 17 41  1  0  0  0  0
 18 42  1  0  0  0  0
 20 43  1  0  0  0  0
 20 44  1  0  0  0  0
 20 45  1  0  0  0  0
 21 46  1  0  0  0  0
 21 47  1  0  0  0  0
 21 48  1  0  0  0  0
 22 49  1  0  0  0  0
 22 50  1  0  0  0  0
 23 51  1  0  0  0  0
 27 52  1  0  0  0  0
M  END
> <clash_score>
0

> <docking_score>
-6.892603874206543

> <overlap_score>
0.8466970324516296

$$$$
BENZO_313_2
  -OEChem-08232013463D

 54 57  0     1  0  0  0  0  0999 V2000
    9.6170    5.4099   22.6808 C   0  0  0  0  0  0  0  0  0  0  0  0
    8.4752    5.0878   23.4143 C   0  0  0  0  0  0  0  0  0  0  0  0
   10.5182    4.4090   22.3177 C   0  0  0  0  0  0  0  0  0  0  0  0
    8.2345    3.7648   23.7849 C   0  0  0  0  0  0  0  0  0  0  0  0
   10.2775    3.0860   22.6883 C   0  0  0  0  0  0  0  0  0  0  0  0
    9.0720   -1.1280   24.8640 C   0  0  0  0  0  0  0  0  0  0  0  0
    9.7200   -2.2600   22.8630 C   0  0  0  0  0  0  0  0  0  0  0  0
    8.9960   -2.3380   25.5320 C   0  0  0  0  0  0  0  0  0  0  0  0
    9.6730   -3.4710   23.5300 C   0  0  0  0  0  0  0  0  0  0  0  0
    9.1357    2.7638   23.4218 C   0  0  0  0  0  0  0  0  0  0  0  0
    9.3350   -1.0880   23.5010 C   0  0  0  0  0  0  0  0  0  0  0  0
    9.3070   -3.5340   24.8780 C   0  0  0  0  0  0  0  0  0  0  0  0
    5.8300    0.9190   18.6970 C   0  0  0  0  0  0  0  0  0  0  0  0
    7.3170   -0.1610   19.8550 C   0  0  0  0  0  0  0  0  0  0  0  0
    4.6890    1.6810   18.4640 C   0  0  0  0  0  0  0  0  0  0  0  0
    3.9160    2.0630   19.5520 C   0  0  0  0  0  0  0  0  0  0  0  0
    4.2750    1.7050   20.8490 C   0  0  0  0  0  0  0  0  0  0  0  0
    5.4210    0.9600   21.0930 C   0  0  0  0  0  0  0  0  0  0  0  0
    8.4227   -5.1089   26.6141 C   0  0  0  0  0  0  0  0  0  0  0  0
    9.0420    0.3700   21.5280 C   0  0  0  0  0  0  0  0  0  0  0  0
    8.4174   -7.5521   25.9532 C   0  0  0  0  0  0  0  0  0  0  0  0
    8.8757    1.3301   23.8233 C   0  0  0  0  0  0  0  0  0  0  0  0
    8.6900   -6.5411   27.0525 C   0  0  0  0  0  0  0  0  0  0  0  0
    9.4560    0.1560   22.8130 C   0  0  2  0  0  0  0  0  0  0  0  0
    6.7580    0.3810   17.8350 N   0  0  0  0  0  0  0  0  0  0  0  0
    7.6390   -0.2680   18.5410 N   0  0  0  0  0  0  0  0  0  0  0  0
    6.1790    0.5730   19.9990 N   0  0  0  0  0  0  0  0  0  0  0  0
    9.2546   -4.7423   25.5437 N   0  0  0  0  0  0  0  0  0  0  0  0
    8.1890   -0.7180   20.8700 N   0  0  0  0  0  0  0  0  0  0  0  0
    7.5768   -4.4085   27.1602 O   0  0  0  0  0  0  0  0  0  0  0  0
    9.2690    1.4140   20.9380 O   0  0  0  0  0  0  0  0  0  0  0  0
    9.8035    6.4400   22.3912 H   0  0  0  0  0  0  0  0  0  0  0  0
    7.7728    5.8668   23.6961 H   0  0  0  0  0  0  0  0  0  0  0  0
   11.4067    4.6593   21.7457 H   0  0  0  0  0  0  0  0  0  0  0  0
    7.3424    3.5231   24.3565 H   0  0  0  0  0  0  0  0  0  0  0  0
   10.9853    2.3128   22.4011 H   0  0  0  0  0  0  0  0  0  0  0  0
    8.9202   -0.1986   25.4206 H   0  0  0  0  0  0  0  0  0  0  0  0
   10.0631   -2.2319   21.8252 H   0  0  0  0  0  0  0  0  0  0  0  0
    8.6898   -2.3534   26.5810 H   0  0  0  0  0  0  0  0  0  0  0  0
    9.9254   -4.3899   22.9914 H   0  0  0  0  0  0  0  0  0  0  0  0
    4.3967    1.9772   17.4718 H   0  0  0  0  0  0  0  0  0  0  0  0
    3.0218    2.6486   19.3697 H   0  0  0  0  0  0  0  0  0  0  0  0
    3.6566    2.0043   21.7065 H   0  0  0  0  0  0  0  0  0  0  0  0
    5.7190    0.6877   22.0810 H   0  0  0  0  0  0  0  0  0  0  0  0
    7.3765   -7.4971   25.6176 H   0  0  0  0  0  0  0  0  0  0  0  0
    8.6072   -8.5677   26.3138 H   0  0  0  0  0  0  0  0  0  0  0  0
    9.0599   -7.3717   25.0851 H   0  0  0  0  0  0  0  0  0  0  0  0
    9.2390    1.1684   24.8466 H   0  0  0  0  0  0  0  0  0  0  0  0
    7.7875    1.1860   23.8742 H   0  0  0  0  0  0  0  0  0  0  0  0
    9.7367   -6.6182   27.3685 H   0  0  0  0  0  0  0  0  0  0  0  0
    8.0565   -6.7633   27.9189 H   0  0  0  0  0  0  0  0  0  0  0  0
   10.6103    0.4565   22.8881 H   0  0  0  0  0  0  0  0  0  0  0  0
    9.9034   -5.4689   25.2194 H   0  0  0  0  0  0  0  0  0  0  0  0
    8.2385   -1.5646   21.0947 H   0  0  0  0  0  0  0  0  0  0  0  0
  1  2  1  0  0  0  0
  1  3  2  0  0  0  0
  2  4  2  0  0  0  0
  3  5  1  0  0  0  0
  4 10  1  0  0  0  0
  5 10  2  0  0  0  0
  6  8  2  0  0  0  0
  6 11  1  0  0  0  0
  7  9  1  0  0  0  0
  7 11  2  0  0  0  0
  8 12  1  0  0  0  0
  9 12  2  0  0  0  0
 10 22  1  0  0  0  0
 11 24  1  0  0  0  0
 12 28  1  0  0  0  0
 13 15  1  0  0  0  0
 13 25  2  0  0  0  0
 13 27  1  0  0  0  0
 14 26  2  0  0  0  0
 14 27  1  0  0  0  0
 14 29  1  0  0  0  0
 15 16  2  0  0  0  0
 16 17  1  0  0  0  0
 17 18  2  0  0  0  0
 18 27  1  0  0  0  0
 19 23  1  0  0  0  0
 19 28  1  0  0  0  0
 19 30  2  0  0  0  0
 20 24  1  0  0  0  0
 20 29  1  0  0  0  0
 20 31  2  0  0  0  0
 21 23  1  0  0  0  0
 22 24  1  6  0  0  0
 25 26  1  0  0  0  0
  1 32  1  0  0  0  0
  2 33  1  0  0  0  0
  3 34  1  0  0  0  0
  4 35  1  0  0  0  0
  5 36  1  0  0  0  0
  6 37  1  0  0  0  0
  7 38  1  0  0  0  0
  8 39  1  0  0  0  0
  9 40  1  0  0  0  0
 15 41  1  0  0  0  0
 16 42  1  0  0  0  0
 17 43  1  0  0  0  0
 18 44  1  0  0  0  0
 21 45  1  0  0  0  0
 21 46  1  0  0  0  0
 21 47  1  0  0  0  0
 22 48  1  0  0  0  0
 22 49  1  0  0  0  0
 23 50  1  0  0  0  0
 23 51  1  0  0  0  0
 24 52  1  0  0  0  0
 28 53  1  0  0  0  0
 29 54  1  0  0  0  0
M  END
> <clash_score>
0.6426266954076744

> <docking_score>
-6.184453010559082

> <overlap_score>
0.8434734344482422

$$$$
BENZO_313_1
  -OEChem-08232013463D

 54 57  0     1  0  0  0  0  0999 V2000
   11.4726    4.9577   23.1210 C   0  0  0  0  0  0  0  0  0  0  0  0
   12.5103    4.1537   22.6496 C   0  0  0  0  0  0  0  0  0  0  0  0
   10.2847    4.3753   23.5633 C   0  0  0  0  0  0  0  0  0  0  0  0
   12.3602    2.7672   22.6203 C   0  0  0  0  0  0  0  0  0  0  0  0
   10.1346    2.9888   23.5339 C   0  0  0  0  0  0  0  0  0  0  0  0
    9.0720   -1.1280   24.8640 C   0  0  0  0  0  0  0  0  0  0  0  0
    9.7200   -2.2600   22.8630 C   0  0  0  0  0  0  0  0  0  0  0  0
    8.9960   -2.3380   25.5320 C   0  0  0  0  0  0  0  0  0  0  0  0
    9.6730   -3.4710   23.5300 C   0  0  0  0  0  0  0  0  0  0  0  0
   11.1723    2.1848   23.0624 C   0  0  0  0  0  0  0  0  0  0  0  0
    9.3350   -1.0880   23.5010 C   0  0  0  0  0  0  0  0  0  0  0  0
    9.3070   -3.5340   24.8780 C   0  0  0  0  0  0  0  0  0  0  0  0
    5.8300    0.9190   18.6970 C   0  0  0  0  0  0  0  0  0  0  0  0
    7.3170   -0.1610   19.8550 C   0  0  0  0  0  0  0  0  0  0  0  0
    4.6890    1.6810   18.4640 C   0  0  0  0  0  0  0  0  0  0  0  0
    3.9160    2.0630   19.5520 C   0  0  0  0  0  0  0  0  0  0  0  0
    4.2750    1.7050   20.8490 C   0  0  0  0  0  0  0  0  0  0  0  0
    5.4210    0.9600   21.0930 C   0  0  0  0  0  0  0  0  0  0  0  0
    8.4227   -5.1089   26.6141 C   0  0  0  0  0  0  0  0  0  0  0  0
    9.0420    0.3700   21.5280 C   0  0  0  0  0  0  0  0  0  0  0  0
    8.4174   -7.5521   25.9532 C   0  0  0  0  0  0  0  0  0  0  0  0
   11.0089    0.6825   23.0307 C   0  0  0  0  0  0  0  0  0  0  0  0
    8.6900   -6.5411   27.0525 C   0  0  0  0  0  0  0  0  0  0  0  0
    9.4560    0.1560   22.8130 C   0  0  1  0  0  0  0  0  0  0  0  0
    6.7580    0.3810   17.8350 N   0  0  0  0  0  0  0  0  0  0  0  0
    7.6390   -0.2680   18.5410 N   0  0  0  0  0  0  0  0  0  0  0  0
    6.1790    0.5730   19.9990 N   0  0  0  0  0  0  0  0  0  0  0  0
    9.2546   -4.7423   25.5437 N   0  0  0  0  0  0  0  0  0  0  0  0
    8.1890   -0.7180   20.8700 N   0  0  0  0  0  0  0  0  0  0  0  0
    7.5768   -4.4085   27.1602 O   0  0  0  0  0  0  0  0  0  0  0  0
    9.2690    1.4140   20.9380 O   0  0  0  0  0  0  0  0  0  0  0  0
   11.5901    6.0371   23.1451 H   0  0  0  0  0  0  0  0  0  0  0  0
   13.4357    4.6069   22.3063 H   0  0  0  0  0  0  0  0  0  0  0  0
    9.4770    5.0009   23.9314 H   0  0  0  0  0  0  0  0  0  0  0  0
   13.1740    2.1486   22.2511 H   0  0  0  0  0  0  0  0  0  0  0  0
    9.2056    2.5438   23.8803 H   0  0  0  0  0  0  0  0  0  0  0  0
    8.9202   -0.1986   25.4206 H   0  0  0  0  0  0  0  0  0  0  0  0
   10.0631   -2.2319   21.8252 H   0  0  0  0  0  0  0  0  0  0  0  0
    8.6898   -2.3534   26.5810 H   0  0  0  0  0  0  0  0  0  0  0  0
    9.9254   -4.3899   22.9914 H   0  0  0  0  0  0  0  0  0  0  0  0
    4.3967    1.9772   17.4718 H   0  0  0  0  0  0  0  0  0  0  0  0
    3.0218    2.6486   19.3697 H   0  0  0  0  0  0  0  0  0  0  0  0
    3.6566    2.0043   21.7065 H   0  0  0  0  0  0  0  0  0  0  0  0
    5.7190    0.6877   22.0810 H   0  0  0  0  0  0  0  0  0  0  0  0
    7.3765   -7.4971   25.6176 H   0  0  0  0  0  0  0  0  0  0  0  0
    8.6072   -8.5677   26.3138 H   0  0  0  0  0  0  0  0  0  0  0  0
    9.0599   -7.3717   25.0851 H   0  0  0  0  0  0  0  0  0  0  0  0
   11.6011    0.2707   22.2030 H   0  0  0  0  0  0  0  0  0  0  0  0
   11.4624    0.2744   23.9447 H   0  0  0  0  0  0  0  0  0  0  0  0
    9.7367   -6.6182   27.3685 H   0  0  0  0  0  0  0  0  0  0  0  0
    8.0565   -6.7633   27.9189 H   0  0  0  0  0  0  0  0  0  0  0  0
    8.9284    0.9668   23.5149 H   0  0  0  0  0  0  0  0  0  0  0  0
    9.9034   -5.4689   25.2194 H   0  0  0  0  0  0  0  0  0  0  0  0
    8.2385   -1.5646   21.0947 H   0  0  0  0  0  0  0  0  0  0  0  0
  1  2  1  0  0  0  0
  1  3  2  0  0  0  0
  2  4  2  0  0  0  0
  3  5  1  0  0  0  0
  4 10  1  0  0  0  0
  5 10  2  0  0  0  0
  6  8  2  0  0  0  0
  6 11  1  0  0  0  0
  7  9  1  0  0  0  0
  7 11  2  0  0  0  0
  8 12  1  0  0  0  0
  9 12  2  0  0  0  0
 10 22  1  0  0  0  0
 11 24  1  0  0  0  0
 12 28  1  0  0  0  0
 13 15  1  0  0  0  0
 13 25  2  0  0  0  0
 13 27  1  0  0  0  0
 14 26  2  0  0  0  0
 14 27  1  0  0  0  0
 14 29  1  0  0  0  0
 15 16  2  0  0  0  0
 16 17  1  0  0  0  0
 17 18  2  0  0  0  0
 18 27  1  0  0  0  0
 19 23  1  0  0  0  0
 19 28  1  0  0  0  0
 19 30  2  0  0  0  0
 20 24  1  0  0  0  0
 20 29  1  0  0  0  0
 20 31  2  0  0  0  0
 21 23  1  0  0  0  0
 22 24  1  1  0  0  0
 25 26  1  0  0  0  0
  1 32  1  0  0  0  0
  2 33  1  0  0  0  0
  3 34  1  0  0  0  0
  4 35  1  0  0  0  0
  5 36  1  0  0  0  0
  6 37  1  0  0  0  0
  7 38  1  0  0  0  0
  8 39  1  0  0  0  0
  9 40  1  0  0  0  0
 15 41  1  0  0  0  0
 16 42  1  0  0  0  0
 17 43  1  0  0  0  0
 18 44  1  0  0  0  0
 21 45  1  0  0  0  0
 21 46  1  0  0  0  0
 21 47  1  0  0  0  0
 22 48  1  0  0  0  0
 22 49  1  0  0  0  0
 23 50  1  0  0  0  0
 23 51  1  0  0  0  0
 24 52  1  0  0  0  0
 28 53  1  0  0  0  0
 29 54  1  0  0  0  0
M  END
> <clash_score>
0.6426266954076744

> <docking_score>
-9.64880084991455

> <overlap_score>
0.9320542216300964

$$$$
BENZO_312_2
  -OEChem-08232013463D

 51 54  0     1  0  0  0  0  0999 V2000
    9.0720   -1.1280   24.8640 C   0  0  0  0  0  0  0  0  0  0  0  0
    9.7200   -2.2600   22.8630 C   0  0  0  0  0  0  0  0  0  0  0  0
    8.9960   -2.3380   25.5320 C   0  0  0  0  0  0  0  0  0  0  0  0
    9.6730   -3.4710   23.5300 C   0  0  0  0  0  0  0  0  0  0  0  0
   10.3314    3.2065   22.7858 C   0  0  0  0  0  0  0  0  0  0  0  0
   10.3108    4.5599   22.5298 C   0  0  0  0  0  0  0  0  0  0  0  0
    8.2468    3.7959   23.6280 C   0  0  0  0  0  0  0  0  0  0  0  0
    9.3350   -1.0880   23.5010 C   0  0  0  0  0  0  0  0  0  0  0  0
    9.1357    2.7638   23.4218 C   0  0  0  0  0  0  0  0  0  0  0  0
    9.3070   -3.5340   24.8780 C   0  0  0  0  0  0  0  0  0  0  0  0
    5.8300    0.9190   18.6970 C   0  0  0  0  0  0  0  0  0  0  0  0
    7.3170   -0.1610   19.8550 C   0  0  0  0  0  0  0  0  0  0  0  0
    4.6890    1.6810   18.4640 C   0  0  0  0  0  0  0  0  0  0  0  0
    3.9160    2.0630   19.5520 C   0  0  0  0  0  0  0  0  0  0  0  0
    4.2750    1.7050   20.8490 C   0  0  0  0  0  0  0  0  0  0  0  0
    5.4210    0.9600   21.0930 C   0  0  0  0  0  0  0  0  0  0  0  0
    8.4227   -5.1089   26.6141 C   0  0  0  0  0  0  0  0  0  0  0  0
    9.0420    0.3700   21.5280 C   0  0  0  0  0  0  0  0  0  0  0  0
    8.4174   -7.5521   25.9532 C   0  0  0  0  0  0  0  0  0  0  0  0
    8.8757    1.3301   23.8233 C   0  0  0  0  0  0  0  0  0  0  0  0
    8.6900   -6.5411   27.0525 C   0  0  0  0  0  0  0  0  0  0  0  0
    9.4560    0.1560   22.8130 C   0  0  2  0  0  0  0  0  0  0  0  0
    6.7580    0.3810   17.8350 N   0  0  0  0  0  0  0  0  0  0  0  0
    7.6390   -0.2680   18.5410 N   0  0  0  0  0  0  0  0  0  0  0  0
    6.1790    0.5730   19.9990 N   0  0  0  0  0  0  0  0  0  0  0  0
    9.2546   -4.7423   25.5437 N   0  0  0  0  0  0  0  0  0  0  0  0
    8.1890   -0.7180   20.8700 N   0  0  0  0  0  0  0  0  0  0  0  0
    7.5768   -4.4085   27.1602 O   0  0  0  0  0  0  0  0  0  0  0  0
    9.2690    1.4140   20.9380 O   0  0  0  0  0  0  0  0  0  0  0  0
    8.8543    5.2911   23.0556 S   0  0  0  0  0  0  0  0  0  0  0  0
    8.9202   -0.1986   25.4206 H   0  0  0  0  0  0  0  0  0  0  0  0
   10.0631   -2.2319   21.8252 H   0  0  0  0  0  0  0  0  0  0  0  0
    8.6898   -2.3534   26.5810 H   0  0  0  0  0  0  0  0  0  0  0  0
    9.9254   -4.3899   22.9914 H   0  0  0  0  0  0  0  0  0  0  0  0
   11.1669    2.5681   22.5277 H   0  0  0  0  0  0  0  0  0  0  0  0
   11.0815    5.1544   22.0599 H   0  0  0  0  0  0  0  0  0  0  0  0
    7.2694    3.7480   24.0879 H   0  0  0  0  0  0  0  0  0  0  0  0
    4.3967    1.9772   17.4718 H   0  0  0  0  0  0  0  0  0  0  0  0
    3.0218    2.6486   19.3697 H   0  0  0  0  0  0  0  0  0  0  0  0
    3.6566    2.0043   21.7065 H   0  0  0  0  0  0  0  0  0  0  0  0
    5.7190    0.6877   22.0810 H   0  0  0  0  0  0  0  0  0  0  0  0
    7.3765   -7.4971   25.6176 H   0  0  0  0  0  0  0  0  0  0  0  0
    8.6072   -8.5677   26.3138 H   0  0  0  0  0  0  0  0  0  0  0  0
    9.0599   -7.3717   25.0851 H   0  0  0  0  0  0  0  0  0  0  0  0
    9.2390    1.1684   24.8466 H   0  0  0  0  0  0  0  0  0  0  0  0
    7.7875    1.1860   23.8742 H   0  0  0  0  0  0  0  0  0  0  0  0
    9.7367   -6.6182   27.3685 H   0  0  0  0  0  0  0  0  0  0  0  0
    8.0565   -6.7633   27.9189 H   0  0  0  0  0  0  0  0  0  0  0  0
   10.6103    0.4565   22.8881 H   0  0  0  0  0  0  0  0  0  0  0  0
    9.9034   -5.4689   25.2194 H   0  0  0  0  0  0  0  0  0  0  0  0
    8.2385   -1.5646   21.0947 H   0  0  0  0  0  0  0  0  0  0  0  0
  1  3  2  0  0  0  0
  1  8  1  0  0  0  0
  2  4  1  0  0  0  0
  2  8  2  0  0  0  0
  3 10  1  0  0  0  0
  4 10  2  0  0  0  0
  5  6  2  0  0  0  0
  5  9  1  0  0  0  0
  6 30  1  0  0  0  0
  7  9  2  0  0  0  0
  7 30  1  0  0  0  0
  8 22  1  0  0  0  0
  9 20  1  0  0  0  0
 10 26  1  0  0  0  0
 11 13  1  0  0  0  0
 11 23  2  0  0  0  0
 11 25  1  0  0  0  0
 12 24  2  0  0  0  0
 12 25  1  0  0  0  0
 12 27  1  0  0  0  0
 13 14  2  0  0  0  0
 14 15  1  0  0  0  0
 15 16  2  0  0  0  0
 16 25  1  0  0  0  0
 17 21  1  0  0  0  0
 17 26  1  0  0  0  0
 17 28  2  0  0  0  0
 18 22  1  0  0  0  0
 18 27  1  0  0  0  0
 18 29  2  0  0  0  0
 19 21  1  0  0  0  0
 20 22  1  6  0  0  0
 23 24  1  0  0  0  0
  1 31  1  0  0  0  0
  2 32  1  0  0  0  0
  3 33  1  0  0  0  0
  4 34  1  0  0  0  0
  5 35  1  0  0  0  0
  6 36  1  0  0  0  0
  7 37  1  0  0  0  0
 13 38  1  0  0  0  0
 14 39  1  0  0  0  0
 15 40  1  0  0  0  0
 16 41  1  0  0  0  0
 19 42  1  0  0  0  0
 19 43  1  0  0  0  0
 19 44  1  0  0  0  0
 20 45  1  0  0  0  0
 20 46  1  0  0  0  0
 21 47  1  0  0  0  0
 21 48  1  0  0  0  0
 22 49  1  0  0  0  0
 26 50  1  0  0  0  0
 27 51  1  0  0  0  0
M  END
> <clash_score>
0.6426266954076744

> <docking_score>
-6.571562767028809

> <overlap_score>
0.8437493443489075

$$$$
BENZO_312_1
  -OEChem-08232013463D

 51 54  0     1  0  0  0  0  0999 V2000
    9.0720   -1.1280   24.8640 C   0  0  0  0  0  0  0  0  0  0  0  0
    9.7200   -2.2600   22.8630 C   0  0  0  0  0  0  0  0  0  0  0  0
    8.9960   -2.3380   25.5320 C   0  0  0  0  0  0  0  0  0  0  0  0
    9.6730   -3.4710   23.5300 C   0  0  0  0  0  0  0  0  0  0  0  0
   11.9789    2.9159   22.1431 C   0  0  0  0  0  0  0  0  0  0  0  0
   11.9531    4.2698   22.3953 C   0  0  0  0  0  0  0  0  0  0  0  0
   10.5610    3.0079   23.9825 C   0  0  0  0  0  0  0  0  0  0  0  0
    9.3350   -1.0880   23.5010 C   0  0  0  0  0  0  0  0  0  0  0  0
   11.1723    2.1848   23.0624 C   0  0  0  0  0  0  0  0  0  0  0  0
    9.3070   -3.5340   24.8780 C   0  0  0  0  0  0  0  0  0  0  0  0
    5.8300    0.9190   18.6970 C   0  0  0  0  0  0  0  0  0  0  0  0
    7.3170   -0.1610   19.8550 C   0  0  0  0  0  0  0  0  0  0  0  0
    4.6890    1.6810   18.4640 C   0  0  0  0  0  0  0  0  0  0  0  0
    3.9160    2.0630   19.5520 C   0  0  0  0  0  0  0  0  0  0  0  0
    4.2750    1.7050   20.8490 C   0  0  0  0  0  0  0  0  0  0  0  0
    5.4210    0.9600   21.0930 C   0  0  0  0  0  0  0  0  0  0  0  0
    8.4227   -5.1089   26.6141 C   0  0  0  0  0  0  0  0  0  0  0  0
    9.0420    0.3700   21.5280 C   0  0  0  0  0  0  0  0  0  0  0  0
    8.4174   -7.5521   25.9532 C   0  0  0  0  0  0  0  0  0  0  0  0
   11.0089    0.6825   23.0307 C   0  0  0  0  0  0  0  0  0  0  0  0
    8.6900   -6.5411   27.0525 C   0  0  0  0  0  0  0  0  0  0  0  0
    9.4560    0.1560   22.8130 C   0  0  1  0  0  0  0  0  0  0  0  0
    6.7580    0.3810   17.8350 N   0  0  0  0  0  0  0  0  0  0  0  0
    7.6390   -0.2680   18.5410 N   0  0  0  0  0  0  0  0  0  0  0  0
    6.1790    0.5730   19.9990 N   0  0  0  0  0  0  0  0  0  0  0  0
    9.2546   -4.7423   25.5437 N   0  0  0  0  0  0  0  0  0  0  0  0
    8.1890   -0.7180   20.8700 N   0  0  0  0  0  0  0  0  0  0  0  0
    7.5768   -4.4085   27.1602 O   0  0  0  0  0  0  0  0  0  0  0  0
    9.2690    1.4140   20.9380 O   0  0  0  0  0  0  0  0  0  0  0  0
   10.9597    4.6549   23.7359 S   0  0  0  0  0  0  0  0  0  0  0  0
    8.9202   -0.1986   25.4206 H   0  0  0  0  0  0  0  0  0  0  0  0
   10.0631   -2.2319   21.8252 H   0  0  0  0  0  0  0  0  0  0  0  0
    8.6898   -2.3534   26.5810 H   0  0  0  0  0  0  0  0  0  0  0  0
    9.9254   -4.3899   22.9914 H   0  0  0  0  0  0  0  0  0  0  0  0
   12.5509    2.4750   21.3365 H   0  0  0  0  0  0  0  0  0  0  0  0
   12.4707    5.0513   21.8570 H   0  0  0  0  0  0  0  0  0  0  0  0
    9.8997    2.7250   24.7898 H   0  0  0  0  0  0  0  0  0  0  0  0
    4.3967    1.9772   17.4718 H   0  0  0  0  0  0  0  0  0  0  0  0
    3.0218    2.6486   19.3697 H   0  0  0  0  0  0  0  0  0  0  0  0
    3.6566    2.0043   21.7065 H   0  0  0  0  0  0  0  0  0  0  0  0
    5.7190    0.6877   22.0810 H   0  0  0  0  0  0  0  0  0  0  0  0
    7.3765   -7.4971   25.6176 H   0  0  0  0  0  0  0  0  0  0  0  0
    8.6072   -8.5677   26.3138 H   0  0  0  0  0  0  0  0  0  0  0  0
    9.0599   -7.3717   25.0851 H   0  0  0  0  0  0  0  0  0  0  0  0
   11.6011    0.2707   22.2030 H   0  0  0  0  0  0  0  0  0  0  0  0
   11.4624    0.2744   23.9446 H   0  0  0  0  0  0  0  0  0  0  0  0
    9.7367   -6.6182   27.3685 H   0  0  0  0  0  0  0  0  0  0  0  0
    8.0565   -6.7633   27.9189 H   0  0  0  0  0  0  0  0  0  0  0  0
    8.9284    0.9668   23.5149 H   0  0  0  0  0  0  0  0  0  0  0  0
    9.9034   -5.4689   25.2194 H   0  0  0  0  0  0  0  0  0  0  0  0
    8.2385   -1.5646   21.0947 H   0  0  0  0  0  0  0  0  0  0  0  0
  1  3  2  0  0  0  0
  1  8  1  0  0  0  0
  2  4  1  0  0  0  0
  2  8  2  0  0  0  0
  3 10  1  0  0  0  0
  4 10  2  0  0  0  0
  5  6  2  0  0  0  0
  5  9  1  0  0  0  0
  6 30  1  0  0  0  0
  7  9  2  0  0  0  0
  7 30  1  0  0  0  0
  8 22  1  0  0  0  0
  9 20  1  0  0  0  0
 10 26  1  0  0  0  0
 11 13  1  0  0  0  0
 11 23  2  0  0  0  0
 11 25  1  0  0  0  0
 12 24  2  0  0  0  0
 12 25  1  0  0  0  0
 12 27  1  0  0  0  0
 13 14  2  0  0  0  0
 14 15  1  0  0  0  0
 15 16  2  0  0  0  0
 16 25  1  0  0  0  0
 17 21  1  0  0  0  0
 17 26  1  0  0  0  0
 17 28  2  0  0  0  0
 18 22  1  0  0  0  0
 18 27  1  0  0  0  0
 18 29  2  0  0  0  0
 19 21  1  0  0  0  0
 20 22  1  1  0  0  0
 23 24  1  0  0  0  0
  1 31  1  0  0  0  0
  2 32  1  0  0  0  0
  3 33  1  0  0  0  0
  4 34  1  0  0  0  0
  5 35  1  0  0  0  0
  6 36  1  0  0  0  0
  7 37  1  0  0  0  0
 13 38  1  0  0  0  0
 14 39  1  0  0  0  0
 15 40  1  0  0  0  0
 16 41  1  0  0  0  0
 19 42  1  0  0  0  0
 19 43  1  0  0  0  0
 19 44  1  0  0  0  0
 20 45  1  0  0  0  0
 20 46  1  0  0  0  0
 21 47  1  0  0  0  0
 21 48  1  0  0  0  0
 22 49  1  0  0  0  0
 26 50  1  0  0  0  0
 27 51  1  0  0  0  0
M  END
> <clash_score>
0.6426266954076744

> <docking_score>
-8.690491676330566

> <overlap_score>
0.9194599986076355

$$$$
BENZO_317_1
  -OEChem-08232013463D

 59 63  0     1  0  0  0  0  0999 V2000
    9.5866    5.4188   22.6537 C   0  0  0  0  0  0  0  0  0  0  0  0
    8.4493    5.0927   23.3925 C   0  0  0  0  0  0  0  0  0  0  0  0
   10.4927    4.4220   22.2918 C   0  0  0  0  0  0  0  0  0  0  0  0
    8.2182    3.7698   23.7695 C   0  0  0  0  0  0  0  0  0  0  0  0
   10.2616    3.0991   22.6687 C   0  0  0  0  0  0  0  0  0  0  0  0
    9.0720   -1.1280   24.8640 C   0  0  0  0  0  0  0  0  0  0  0  0
    9.7200   -2.2600   22.8630 C   0  0  0  0  0  0  0  0  0  0  0  0
    8.9960   -2.3380   25.5320 C   0  0  0  0  0  0  0  0  0  0  0  0
    9.6730   -3.4710   23.5300 C   0  0  0  0  0  0  0  0  0  0  0  0
    9.1243    2.7729   23.4075 C   0  0  0  0  0  0  0  0  0  0  0  0
    9.3350   -1.0880   23.5010 C   0  0  0  0  0  0  0  0  0  0  0  0
    9.3070   -3.5340   24.8780 C   0  0  0  0  0  0  0  0  0  0  0  0
    5.8300    0.9190   18.6970 C   0  0  0  0  0  0  0  0  0  0  0  0
    7.3170   -0.1610   19.8550 C   0  0  0  0  0  0  0  0  0  0  0  0
    4.6890    1.6810   18.4640 C   0  0  0  0  0  0  0  0  0  0  0  0
    3.9160    2.0630   19.5520 C   0  0  0  0  0  0  0  0  0  0  0  0
    4.2750    1.7050   20.8490 C   0  0  0  0  0  0  0  0  0  0  0  0
    5.4210    0.9600   21.0930 C   0  0  0  0  0  0  0  0  0  0  0  0
    9.0420    0.3700   21.5280 C   0  0  0  0  0  0  0  0  0  0  0  0
    8.0667   -7.3160   25.1085 C   0  0  0  0  0  0  0  0  0  0  0  0
    9.3319   -6.8814   24.3649 C   0  0  0  0  0  0  0  0  0  0  0  0
    7.2362   -6.1096   25.5522 C   0  0  0  0  0  0  0  0  0  0  0  0
   10.1245   -5.8640   25.1853 C   0  0  0  0  0  0  0  0  0  0  0  0
    8.0817   -5.1052   26.3413 C   0  0  0  0  0  0  0  0  0  0  0  0
    8.8746    1.3393   23.8158 C   0  0  0  0  0  0  0  0  0  0  0  0
    9.4560    0.1560   22.8130 C   0  0  1  0  0  0  0  0  0  0  0  0
    6.7580    0.3810   17.8350 N   0  0  0  0  0  0  0  0  0  0  0  0
    7.6390   -0.2680   18.5410 N   0  0  0  0  0  0  0  0  0  0  0  0
    6.1790    0.5730   19.9990 N   0  0  0  0  0  0  0  0  0  0  0  0
    9.2563   -4.7384   25.5420 N   0  0  0  0  0  0  0  0  0  0  0  0
    8.1890   -0.7180   20.8700 N   0  0  0  0  0  0  0  0  0  0  0  0
    9.2690    1.4140   20.9380 O   0  0  0  0  0  0  0  0  0  0  0  0
    9.7657    6.4488   22.3592 H   0  0  0  0  0  0  0  0  0  0  0  0
    7.7431    5.8686   23.6735 H   0  0  0  0  0  0  0  0  0  0  0  0
   11.3777    4.6754   21.7156 H   0  0  0  0  0  0  0  0  0  0  0  0
    7.3295    3.5250   24.3452 H   0  0  0  0  0  0  0  0  0  0  0  0
   10.9731    2.3291   22.3823 H   0  0  0  0  0  0  0  0  0  0  0  0
    8.9214   -0.1986   25.4206 H   0  0  0  0  0  0  0  0  0  0  0  0
   10.0622   -2.2326   21.8251 H   0  0  0  0  0  0  0  0  0  0  0  0
    8.6882   -2.3542   26.5803 H   0  0  0  0  0  0  0  0  0  0  0  0
    9.9258   -4.3896   22.9914 H   0  0  0  0  0  0  0  0  0  0  0  0
    4.3967    1.9772   17.4718 H   0  0  0  0  0  0  0  0  0  0  0  0
    3.0218    2.6486   19.3697 H   0  0  0  0  0  0  0  0  0  0  0  0
    3.6566    2.0043   21.7065 H   0  0  0  0  0  0  0  0  0  0  0  0
    5.7190    0.6877   22.0810 H   0  0  0  0  0  0  0  0  0  0  0  0
    7.4598   -7.9634   24.4571 H   0  0  0  0  0  0  0  0  0  0  0  0
    8.3410   -7.9201   25.9853 H   0  0  0  0  0  0  0  0  0  0  0  0
    9.9559   -7.7558   24.1617 H   0  0  0  0  0  0  0  0  0  0  0  0
    9.0580   -6.4449   23.4022 H   0  0  0  0  0  0  0  0  0  0  0  0
    6.8081   -5.6166   24.6732 H   0  0  0  0  0  0  0  0  0  0  0  0
    6.3966   -6.4479   26.1707 H   0  0  0  0  0  0  0  0  0  0  0  0
   10.5035   -6.3556   26.0849 H   0  0  0  0  0  0  0  0  0  0  0  0
   10.9797   -5.5057   24.6053 H   0  0  0  0  0  0  0  0  0  0  0  0
    7.4889   -4.2178   26.5663 H   0  0  0  0  0  0  0  0  0  0  0  0
    8.3867   -5.5668   27.2810 H   0  0  0  0  0  0  0  0  0  0  0  0
    9.2322    1.1871   24.8426 H   0  0  0  0  0  0  0  0  0  0  0  0
    7.7874    1.1856   23.8601 H   0  0  0  0  0  0  0  0  0  0  0  0
   10.6111    0.4645   22.8838 H   0  0  0  0  0  0  0  0  0  0  0  0
    8.2585   -1.5522   21.1129 H   0  0  0  0  0  0  0  0  0  0  0  0
  1  2  1  0  0  0  0
  1  3  2  0  0  0  0
  2  4  2  0  0  0  0
  3  5  1  0  0  0  0
  4 10  1  0  0  0  0
  5 10  2  0  0  0  0
  6  8  2  0  0  0  0
  6 11  1  0  0  0  0
  7  9  1  0  0  0  0
  7 11  2  0  0  0  0
  8 12  1  0  0  0  0
  9 12  2  0  0  0  0
 10 25  1  0  0  0  0
 11 26  1  0  0  0  0
 12 30  1  0  0  0  0
 13 15  1  0  0  0  0
 13 27  2  0  0  0  0
 13 29  1  0  0  0  0
 14 28  2  0  0  0  0
 14 29  1  0  0  0  0
 14 31  1  0  0  0  0
 15 16  2  0  0  0  0
 16 17  1  0  0  0  0
 17 18  2  0  0  0  0
 18 29  1  0  0  0  0
 19 26  1  1  0  0  0
 19 31  1  0  0  0  0
 19 32  2  0  0  0  0
 20 21  1  0  0  0  0
 20 22  1  0  0  0  0
 21 23  1  0  0  0  0
 22 24  1  0  0  0  0
 23 30  1  0  0  0  0
 24 30  1  0  0  0  0
 25 26  1  0  0  0  0
 27 28  1  0  0  0  0
  1 33  1  0  0  0  0
  2 34  1  0  0  0  0
  3 35  1  0  0  0  0
  4 36  1  0  0  0  0
  5 37  1  0  0  0  0
  6 38  1  0  0  0  0
  7 39  1  0  0  0  0
  8 40  1  0  0  0  0
  9 41  1  0  0  0  0
 15 42  1  0  0  0  0
 16 43  1  0  0  0  0
 17 44  1  0  0  0  0
 18 45  1  0  0  0  0
 20 46  1  0  0  0  0
 20 47  1  0  0  0  0
 21 48  1  0  0  0  0
 21 49  1  0  0  0  0
 22 50  1  0  0  0  0
 22 51  1  0  0  0  0
 23 52  1  0  0  0  0
 23 53  1  0  0  0  0
 24 54  1  0  0  0  0
 24 55  1  0  0  0  0
 25 56  1  0  0  0  0
 25 57  1  0  0  0  0
 26 58  1  0  0  0  0
 31 59  1  0  0  0  0
M  END
> <clash_score>
0.6917505343088597

> <docking_score>
-5.752494812011719

> <overlap_score>
0.8603013157844543

$$$$
BENZO_314_2
  -OEChem-08232013463D

 54 57  0     1  0  0  0  0  0999 V2000
   10.5170    4.4086   22.3156 C   0  0  0  0  0  0  0  0  0  0  0  0
   10.2770    3.0858   22.6874 C   0  0  0  0  0  0  0  0  0  0  0  0
    9.0720   -1.1280   24.8640 C   0  0  0  0  0  0  0  0  0  0  0  0
    9.7200   -2.2600   22.8630 C   0  0  0  0  0  0  0  0  0  0  0  0
    8.9960   -2.3380   25.5320 C   0  0  0  0  0  0  0  0  0  0  0  0
    9.6730   -3.4710   23.5300 C   0  0  0  0  0  0  0  0  0  0  0  0
    9.6157    5.4095   22.6784 C   0  0  0  0  0  0  0  0  0  0  0  0
    8.2344    3.7647   23.7847 C   0  0  0  0  0  0  0  0  0  0  0  0
    9.3350   -1.0880   23.5010 C   0  0  0  0  0  0  0  0  0  0  0  0
    9.1357    2.7638   23.4219 C   0  0  0  0  0  0  0  0  0  0  0  0
    9.3070   -3.5340   24.8780 C   0  0  0  0  0  0  0  0  0  0  0  0
    8.4744    5.0875   23.4129 C   0  0  0  0  0  0  0  0  0  0  0  0
    5.8300    0.9190   18.6970 C   0  0  0  0  0  0  0  0  0  0  0  0
    7.3170   -0.1610   19.8550 C   0  0  0  0  0  0  0  0  0  0  0  0
    4.6890    1.6810   18.4640 C   0  0  0  0  0  0  0  0  0  0  0  0
    3.9160    2.0630   19.5520 C   0  0  0  0  0  0  0  0  0  0  0  0
    4.2750    1.7050   20.8490 C   0  0  0  0  0  0  0  0  0  0  0  0
    5.4210    0.9600   21.0930 C   0  0  0  0  0  0  0  0  0  0  0  0
    8.4227   -5.1089   26.6141 C   0  0  0  0  0  0  0  0  0  0  0  0
    9.0420    0.3700   21.5280 C   0  0  0  0  0  0  0  0  0  0  0  0
    8.4174   -7.5521   25.9532 C   0  0  0  0  0  0  0  0  0  0  0  0
    8.8757    1.3301   23.8233 C   0  0  0  0  0  0  0  0  0  0  0  0
    8.6900   -6.5411   27.0525 C   0  0  0  0  0  0  0  0  0  0  0  0
    9.4560    0.1560   22.8130 C   0  0  2  0  0  0  0  0  0  0  0  0
    6.7580    0.3810   17.8350 N   0  0  0  0  0  0  0  0  0  0  0  0
    7.6390   -0.2680   18.5410 N   0  0  0  0  0  0  0  0  0  0  0  0
    6.1790    0.5730   19.9990 N   0  0  0  0  0  0  0  0  0  0  0  0
    9.2546   -4.7423   25.5437 N   0  0  0  0  0  0  0  0  0  0  0  0
    8.1890   -0.7180   20.8700 N   0  0  0  0  0  0  0  0  0  0  0  0
    7.5768   -4.4085   27.1602 O   0  0  0  0  0  0  0  0  0  0  0  0
    9.2690    1.4140   20.9380 O   0  0  0  0  0  0  0  0  0  0  0  0
    7.3623    6.3227   23.8593 Cl  0  0  0  0  0  0  0  0  0  0  0  0
   11.4057    4.6588   21.7435 H   0  0  0  0  0  0  0  0  0  0  0  0
   10.9846    2.3124   22.4002 H   0  0  0  0  0  0  0  0  0  0  0  0
    8.9202   -0.1986   25.4206 H   0  0  0  0  0  0  0  0  0  0  0  0
   10.0631   -2.2319   21.8252 H   0  0  0  0  0  0  0  0  0  0  0  0
    8.6898   -2.3534   26.5810 H   0  0  0  0  0  0  0  0  0  0  0  0
    9.9254   -4.3899   22.9914 H   0  0  0  0  0  0  0  0  0  0  0  0
    9.8155    6.4362   22.3815 H   0  0  0  0  0  0  0  0  0  0  0  0
    7.3463    3.5086   24.3578 H   0  0  0  0  0  0  0  0  0  0  0  0
    4.3967    1.9772   17.4718 H   0  0  0  0  0  0  0  0  0  0  0  0
    3.0218    2.6486   19.3697 H   0  0  0  0  0  0  0  0  0  0  0  0
    3.6566    2.0043   21.7065 H   0  0  0  0  0  0  0  0  0  0  0  0
    5.7190    0.6877   22.0810 H   0  0  0  0  0  0  0  0  0  0  0  0
    7.3765   -7.4971   25.6176 H   0  0  0  0  0  0  0  0  0  0  0  0
    8.6072   -8.5677   26.3138 H   0  0  0  0  0  0  0  0  0  0  0  0
    9.0599   -7.3717   25.0851 H   0  0  0  0  0  0  0  0  0  0  0  0
    9.2390    1.1684   24.8466 H   0  0  0  0  0  0  0  0  0  0  0  0
    7.7875    1.1860   23.8742 H   0  0  0  0  0  0  0  0  0  0  0  0
    9.7367   -6.6182   27.3685 H   0  0  0  0  0  0  0  0  0  0  0  0
    8.0565   -6.7633   27.9189 H   0  0  0  0  0  0  0  0  0  0  0  0
   10.6103    0.4565   22.8881 H   0  0  0  0  0  0  0  0  0  0  0  0
    9.9034   -5.4689   25.2194 H   0  0  0  0  0  0  0  0  0  0  0  0
    8.2385   -1.5646   21.0947 H   0  0  0  0  0  0  0  0  0  0  0  0
  1  2  2  0  0  0  0
  1  7  1  0  0  0  0
  2 10  1  0  0  0  0
  3  5  2  0  0  0  0
  3  9  1  0  0  0  0
  4  6  1  0  0  0  0
  4  9  2  0  0  0  0
  5 11  1  0  0  0  0
  6 11  2  0  0  0  0
  7 12  2  0  0  0  0
  8 10  2  0  0  0  0
  8 12  1  0  0  0  0
  9 24  1  0  0  0  0
 10 22  1  0  0  0  0
 11 28  1  0  0  0  0
 12 32  1  0  0  0  0
 13 15  1  0  0  0  0
 13 25  2  0  0  0  0
 13 27  1  0  0  0  0
 14 26  2  0  0  0  0
 14 27  1  0  0  0  0
 14 29  1  0  0  0  0
 15 16  2  0  0  0  0
 16 17  1  0  0  0  0
 17 18  2  0  0  0  0
 18 27  1  0  0  0  0
 19 23  1  0  0  0  0
 19 28  1  0  0  0  0
 19 30  2  0  0  0  0
 20 24  1  0  0  0  0
 20 29  1  0  0  0  0
 20 31  2  0  0  0  0
 21 23  1  0  0  0  0
 22 24  1  6  0  0  0
 25 26  1  0  0  0  0
  1 33  1  0  0  0  0
  2 34  1  0  0  0  0
  3 35  1  0  0  0  0
  4 36  1  0  0  0  0
  5 37  1  0  0  0  0
  6 38  1  0  0  0  0
  7 39  1  0  0  0  0
  8 40  1  0  0  0  0
 15 41  1  0  0  0  0
 16 42  1  0  0  0  0
 17 43  1  0  0  0  0
 18 44  1  0  0  0  0
 21 45  1  0  0  0  0
 21 46  1  0  0  0  0
 21 47  1  0  0  0  0
 22 48  1  0  0  0  0
 22 49  1  0  0  0  0
 23 50  1  0  0  0  0
 23 51  1  0  0  0  0
 24 52  1  0  0  0  0
 28 53  1  0  0  0  0
 29 54  1  0  0  0  0
M  END
> <clash_score>
0.6426266954076744

> <docking_score>
-6.086640357971191

> <overlap_score>
0.8423012495040894

$$$$
BENZO_315_2
  -OEChem-08232013463D

 54 57  0     1  0  0  0  0  0999 V2000
    9.0720   -1.1280   24.8640 C   0  0  0  0  0  0  0  0  0  0  0  0
    9.7200   -2.2600   22.8630 C   0  0  0  0  0  0  0  0  0  0  0  0
    8.9960   -2.3380   25.5320 C   0  0  0  0  0  0  0  0  0  0  0  0
    9.6730   -3.4710   23.5300 C   0  0  0  0  0  0  0  0  0  0  0  0
   10.2230    3.2711   22.6855 C   0  0  0  0  0  0  0  0  0  0  0  0
    8.3607    3.8650   23.6924 C   0  0  0  0  0  0  0  0  0  0  0  0
    9.3350   -1.0880   23.5010 C   0  0  0  0  0  0  0  0  0  0  0  0
    9.1357    2.7638   23.4218 C   0  0  0  0  0  0  0  0  0  0  0  0
    9.3070   -3.5340   24.8780 C   0  0  0  0  0  0  0  0  0  0  0  0
    5.8300    0.9190   18.6970 C   0  0  0  0  0  0  0  0  0  0  0  0
    7.3170   -0.1610   19.8550 C   0  0  0  0  0  0  0  0  0  0  0  0
    4.6890    1.6810   18.4640 C   0  0  0  0  0  0  0  0  0  0  0  0
    3.9160    2.0630   19.5520 C   0  0  0  0  0  0  0  0  0  0  0  0
    4.2750    1.7050   20.8490 C   0  0  0  0  0  0  0  0  0  0  0  0
    5.4210    0.9600   21.0930 C   0  0  0  0  0  0  0  0  0  0  0  0
    8.4227   -5.1089   26.6141 C   0  0  0  0  0  0  0  0  0  0  0  0
    9.0420    0.3700   21.5280 C   0  0  0  0  0  0  0  0  0  0  0  0
    8.4174   -7.5521   25.9532 C   0  0  0  0  0  0  0  0  0  0  0  0
    8.5727    6.3003   23.1419 C   0  0  0  0  0  0  0  0  0  0  0  0
    8.8757    1.3301   23.8233 C   0  0  0  0  0  0  0  0  0  0  0  0
    8.6900   -6.5411   27.0525 C   0  0  0  0  0  0  0  0  0  0  0  0
    9.4560    0.1560   22.8130 C   0  0  2  0  0  0  0  0  0  0  0  0
   10.1488    4.5917   22.4999 N   0  0  0  0  0  0  0  0  0  0  0  0
    6.7580    0.3810   17.8350 N   0  0  0  0  0  0  0  0  0  0  0  0
    7.6390   -0.2680   18.5410 N   0  0  0  0  0  0  0  0  0  0  0  0
    9.0056    4.9236   23.1235 N   0  0  0  0  0  0  0  0  0  0  0  0
    6.1790    0.5730   19.9990 N   0  0  0  0  0  0  0  0  0  0  0  0
    9.2546   -4.7423   25.5437 N   0  0  0  0  0  0  0  0  0  0  0  0
    8.1890   -0.7180   20.8700 N   0  0  0  0  0  0  0  0  0  0  0  0
    7.5768   -4.4085   27.1602 O   0  0  0  0  0  0  0  0  0  0  0  0
    9.2690    1.4140   20.9380 O   0  0  0  0  0  0  0  0  0  0  0  0
    8.9202   -0.1986   25.4206 H   0  0  0  0  0  0  0  0  0  0  0  0
   10.0631   -2.2319   21.8252 H   0  0  0  0  0  0  0  0  0  0  0  0
    8.6898   -2.3534   26.5810 H   0  0  0  0  0  0  0  0  0  0  0  0
    9.9254   -4.3899   22.9914 H   0  0  0  0  0  0  0  0  0  0  0  0
   11.0671    2.7354   22.2746 H   0  0  0  0  0  0  0  0  0  0  0  0
    7.4277    3.9824   24.2269 H   0  0  0  0  0  0  0  0  0  0  0  0
    4.3967    1.9772   17.4718 H   0  0  0  0  0  0  0  0  0  0  0  0
    3.0218    2.6486   19.3697 H   0  0  0  0  0  0  0  0  0  0  0  0
    3.6566    2.0043   21.7065 H   0  0  0  0  0  0  0  0  0  0  0  0
    5.7190    0.6877   22.0810 H   0  0  0  0  0  0  0  0  0  0  0  0
    7.3765   -7.4971   25.6176 H   0  0  0  0  0  0  0  0  0  0  0  0
    8.6072   -8.5677   26.3138 H   0  0  0  0  0  0  0  0  0  0  0  0
    9.0599   -7.3717   25.0851 H   0  0  0  0  0  0  0  0  0  0  0  0
    8.9983    6.7758   24.0295 H   0  0  0  0  0  0  0  0  0  0  0  0
    8.9199    6.8033   22.2351 H   0  0  0  0  0  0  0  0  0  0  0  0
    7.4802    6.3352   23.1748 H   0  0  0  0  0  0  0  0  0  0  0  0
    9.2390    1.1684   24.8466 H   0  0  0  0  0  0  0  0  0  0  0  0
    7.7875    1.1860   23.8742 H   0  0  0  0  0  0  0  0  0  0  0  0
    9.7367   -6.6182   27.3685 H   0  0  0  0  0  0  0  0  0  0  0  0
    8.0565   -6.7633   27.9189 H   0  0  0  0  0  0  0  0  0  0  0  0
   10.6103    0.4565   22.8881 H   0  0  0  0  0  0  0  0  0  0  0  0
    9.9034   -5.4689   25.2194 H   0  0  0  0  0  0  0  0  0  0  0  0
    8.2385   -1.5646   21.0947 H   0  0  0  0  0  0  0  0  0  0  0  0
  1  3  2  0  0  0  0
  1  7  1  0  0  0  0
  2  4  1  0  0  0  0
  2  7  2  0  0  0  0
  3  9  1  0  0  0  0
  4  9  2  0  0  0  0
  5  8  1  0  0  0  0
  5 23  2  0  0  0  0
  6  8  2  0  0  0  0
  6 26  1  0  0  0  0
  7 22  1  0  0  0  0
  8 20  1  0  0  0  0
  9 28  1  0  0  0  0
 10 12  1  0  0  0  0
 10 24  2  0  0  0  0
 10 27  1  0  0  0  0
 11 25  2  0  0  0  0
 11 27  1  0  0  0  0
 11 29  1  0  0  0  0
 12 13  2  0  0  0  0
 13 14  1  0  0  0  0
 14 15  2  0  0  0  0
 15 27  1  0  0  0  0
 16 21  1  0  0  0  0
 16 28  1  0  0  0  0
 16 30  2  0  0  0  0
 17 22  1  0  0  0  0
 17 29  1  0  0  0  0
 17 31  2  0  0  0  0
 18 21  1  0  0  0  0
 19 26  1  0  0  0  0
 20 22  1  6  0  0  0
 23 26  1  0  0  0  0
 24 25  1  0  0  0  0
  1 32  1  0  0  0  0
  2 33  1  0  0  0  0
  3 34  1  0  0  0  0
  4 35  1  0  0  0  0
  5 36  1  0  0  0  0
  6 37  1  0  0  0  0
 12 38  1  0  0  0  0
 13 39  1  0  0  0  0
 14 40  1  0  0  0  0
 15 41  1  0  0  0  0
 18 42  1  0  0  0  0
 18 43  1  0  0  0  0
 18 44  1  0  0  0  0
 19 45  1  0  0  0  0
 19 46  1  0  0  0  0
 19 47  1  0  0  0  0
 20 48  1  0  0  0  0
 20 49  1  0  0  0  0
 21 50  1  0  0  0  0
 21 51  1  0  0  0  0
 22 52  1  0  0  0  0
 28 53  1  0  0  0  0
 29 54  1  0  0  0  0
M  END
> <clash_score>
0.6426266954076744

> <docking_score>
-5.912864685058594

> <overlap_score>
0.8392736315727234

$$$$
BENZO_315_1
  -OEChem-08232013463D

 54 57  0     1  0  0  0  0  0999 V2000
    9.0720   -1.1280   24.8640 C   0  0  0  0  0  0  0  0  0  0  0  0
    9.7200   -2.2600   22.8630 C   0  0  0  0  0  0  0  0  0  0  0  0
    8.9960   -2.3380   25.5320 C   0  0  0  0  0  0  0  0  0  0  0  0
    9.6730   -3.4710   23.5300 C   0  0  0  0  0  0  0  0  0  0  0  0
   10.2428    3.1456   23.5034 C   0  0  0  0  0  0  0  0  0  0  0  0
   12.2645    2.9188   22.6690 C   0  0  0  0  0  0  0  0  0  0  0  0
    9.3350   -1.0880   23.5010 C   0  0  0  0  0  0  0  0  0  0  0  0
   11.1723    2.1848   23.0624 C   0  0  0  0  0  0  0  0  0  0  0  0
    9.3070   -3.5340   24.8780 C   0  0  0  0  0  0  0  0  0  0  0  0
    5.8300    0.9190   18.6970 C   0  0  0  0  0  0  0  0  0  0  0  0
    7.3170   -0.1610   19.8550 C   0  0  0  0  0  0  0  0  0  0  0  0
    4.6890    1.6810   18.4640 C   0  0  0  0  0  0  0  0  0  0  0  0
    3.9160    2.0630   19.5520 C   0  0  0  0  0  0  0  0  0  0  0  0
    4.2750    1.7050   20.8490 C   0  0  0  0  0  0  0  0  0  0  0  0
    5.4210    0.9600   21.0930 C   0  0  0  0  0  0  0  0  0  0  0  0
    8.4227   -5.1089   26.6141 C   0  0  0  0  0  0  0  0  0  0  0  0
    9.0420    0.3700   21.5280 C   0  0  0  0  0  0  0  0  0  0  0  0
    8.4174   -7.5521   25.9532 C   0  0  0  0  0  0  0  0  0  0  0  0
   12.7694    5.3728   22.6294 C   0  0  0  0  0  0  0  0  0  0  0  0
   11.0089    0.6825   23.0307 C   0  0  0  0  0  0  0  0  0  0  0  0
    8.6900   -6.5411   27.0525 C   0  0  0  0  0  0  0  0  0  0  0  0
    9.4560    0.1560   22.8130 C   0  0  1  0  0  0  0  0  0  0  0  0
   10.7043    4.3948   23.4002 N   0  0  0  0  0  0  0  0  0  0  0  0
    6.7580    0.3810   17.8350 N   0  0  0  0  0  0  0  0  0  0  0  0
    7.6390   -0.2680   18.5410 N   0  0  0  0  0  0  0  0  0  0  0  0
   11.9357    4.2239   22.8900 N   0  0  0  0  0  0  0  0  0  0  0  0
    6.1790    0.5730   19.9990 N   0  0  0  0  0  0  0  0  0  0  0  0
    9.2546   -4.7423   25.5437 N   0  0  0  0  0  0  0  0  0  0  0  0
    8.1890   -0.7180   20.8700 N   0  0  0  0  0  0  0  0  0  0  0  0
    7.5768   -4.4085   27.1602 O   0  0  0  0  0  0  0  0  0  0  0  0
    9.2690    1.4140   20.9380 O   0  0  0  0  0  0  0  0  0  0  0  0
    8.9202   -0.1986   25.4206 H   0  0  0  0  0  0  0  0  0  0  0  0
   10.0631   -2.2319   21.8252 H   0  0  0  0  0  0  0  0  0  0  0  0
    8.6898   -2.3534   26.5810 H   0  0  0  0  0  0  0  0  0  0  0  0
    9.9254   -4.3899   22.9914 H   0  0  0  0  0  0  0  0  0  0  0  0
    9.2482    2.9901   23.8969 H   0  0  0  0  0  0  0  0  0  0  0  0
   13.2243    2.6307   22.2620 H   0  0  0  0  0  0  0  0  0  0  0  0
    4.3967    1.9772   17.4718 H   0  0  0  0  0  0  0  0  0  0  0  0
    3.0218    2.6486   19.3697 H   0  0  0  0  0  0  0  0  0  0  0  0
    3.6566    2.0043   21.7065 H   0  0  0  0  0  0  0  0  0  0  0  0
    5.7190    0.6877   22.0810 H   0  0  0  0  0  0  0  0  0  0  0  0
    7.3765   -7.4971   25.6176 H   0  0  0  0  0  0  0  0  0  0  0  0
    8.6072   -8.5677   26.3138 H   0  0  0  0  0  0  0  0  0  0  0  0
    9.0599   -7.3717   25.0851 H   0  0  0  0  0  0  0  0  0  0  0  0
   12.5744    5.7060   21.6066 H   0  0  0  0  0  0  0  0  0  0  0  0
   12.5290    6.1664   23.3423 H   0  0  0  0  0  0  0  0  0  0  0  0
   13.8196    5.0915   22.7473 H   0  0  0  0  0  0  0  0  0  0  0  0
   11.6011    0.2707   22.2030 H   0  0  0  0  0  0  0  0  0  0  0  0
   11.4624    0.2744   23.9446 H   0  0  0  0  0  0  0  0  0  0  0  0
    9.7367   -6.6182   27.3685 H   0  0  0  0  0  0  0  0  0  0  0  0
    8.0565   -6.7633   27.9189 H   0  0  0  0  0  0  0  0  0  0  0  0
    8.9284    0.9668   23.5149 H   0  0  0  0  0  0  0  0  0  0  0  0
    9.9034   -5.4689   25.2194 H   0  0  0  0  0  0  0  0  0  0  0  0
    8.2385   -1.5646   21.0947 H   0  0  0  0  0  0  0  0  0  0  0  0
  1  3  2  0  0  0  0
  1  7  1  0  0  0  0
  2  4  1  0  0  0  0
  2  7  2  0  0  0  0
  3  9  1  0  0  0  0
  4  9  2  0  0  0  0
  5  8  1  0  0  0  0
  5 23  2  0  0  0  0
  6  8  2  0  0  0  0
  6 26  1  0  0  0  0
  7 22  1  0  0  0  0
  8 20  1  0  0  0  0
  9 28  1  0  0  0  0
 10 12  1  0  0  0  0
 10 24  2  0  0  0  0
 10 27  1  0  0  0  0
 11 25  2  0  0  0  0
 11 27  1  0  0  0  0
 11 29  1  0  0  0  0
 12 13  2  0  0  0  0
 13 14  1  0  0  0  0
 14 15  2  0  0  0  0
 15 27  1  0  0  0  0
 16 21  1  0  0  0  0
 16 28  1  0  0  0  0
 16 30  2  0  0  0  0
 17 22  1  0  0  0  0
 17 29  1  0  0  0  0
 17 31  2  0  0  0  0
 18 21  1  0  0  0  0
 19 26  1  0  0  0  0
 20 22  1  1  0  0  0
 23 26  1  0  0  0  0
 24 25  1  0  0  0  0
  1 32  1  0  0  0  0
  2 33  1  0  0  0  0
  3 34  1  0  0  0  0
  4 35  1  0  0  0  0
  5 36  1  0  0  0  0
  6 37  1  0  0  0  0
 12 38  1  0  0  0  0
 13 39  1  0  0  0  0
 14 40  1  0  0  0  0
 15 41  1  0  0  0  0
 18 42  1  0  0  0  0
 18 43  1  0  0  0  0
 18 44  1  0  0  0  0
 19 45  1  0  0  0  0
 19 46  1  0  0  0  0
 19 47  1  0  0  0  0
 20 48  1  0  0  0  0
 20 49  1  0  0  0  0
 21 50  1  0  0  0  0
 21 51  1  0  0  0  0
 22 52  1  0  0  0  0
 28 53  1  0  0  0  0
 29 54  1  0  0  0  0
M  END
> <clash_score>
0.6426266954076744

> <docking_score>
-9.554939270019531

> <overlap_score>
0.928145170211792

$$$$
BENZO_314_1
  -OEChem-08232013463D

 54 57  0     1  0  0  0  0  0999 V2000
   10.2856    4.3750   23.5656 C   0  0  0  0  0  0  0  0  0  0  0  0
   10.1350    2.9887   23.5349 C   0  0  0  0  0  0  0  0  0  0  0  0
    9.0720   -1.1280   24.8640 C   0  0  0  0  0  0  0  0  0  0  0  0
    9.7200   -2.2600   22.8630 C   0  0  0  0  0  0  0  0  0  0  0  0
    8.9960   -2.3380   25.5320 C   0  0  0  0  0  0  0  0  0  0  0  0
    9.6730   -3.4710   23.5300 C   0  0  0  0  0  0  0  0  0  0  0  0
   11.4735    4.9575   23.1236 C   0  0  0  0  0  0  0  0  0  0  0  0
   12.3603    2.7672   22.6205 C   0  0  0  0  0  0  0  0  0  0  0  0
    9.3350   -1.0880   23.5010 C   0  0  0  0  0  0  0  0  0  0  0  0
   11.1723    2.1848   23.0624 C   0  0  0  0  0  0  0  0  0  0  0  0
    9.3070   -3.5340   24.8780 C   0  0  0  0  0  0  0  0  0  0  0  0
   12.5108    4.1536   22.6511 C   0  0  0  0  0  0  0  0  0  0  0  0
    5.8300    0.9190   18.6970 C   0  0  0  0  0  0  0  0  0  0  0  0
    7.3170   -0.1610   19.8550 C   0  0  0  0  0  0  0  0  0  0  0  0
    4.6890    1.6810   18.4640 C   0  0  0  0  0  0  0  0  0  0  0  0
    3.9160    2.0630   19.5520 C   0  0  0  0  0  0  0  0  0  0  0  0
    4.2750    1.7050   20.8490 C   0  0  0  0  0  0  0  0  0  0  0  0
    5.4210    0.9600   21.0930 C   0  0  0  0  0  0  0  0  0  0  0  0
    8.4227   -5.1089   26.6141 C   0  0  0  0  0  0  0  0  0  0  0  0
    9.0420    0.3700   21.5280 C   0  0  0  0  0  0  0  0  0  0  0  0
    8.4174   -7.5521   25.9532 C   0  0  0  0  0  0  0  0  0  0  0  0
   11.0089    0.6825   23.0307 C   0  0  0  0  0  0  0  0  0  0  0  0
    8.6900   -6.5411   27.0525 C   0  0  0  0  0  0  0  0  0  0  0  0
    9.4560    0.1560   22.8130 C   0  0  1  0  0  0  0  0  0  0  0  0
    6.7580    0.3810   17.8350 N   0  0  0  0  0  0  0  0  0  0  0  0
    7.6390   -0.2680   18.5410 N   0  0  0  0  0  0  0  0  0  0  0  0
    6.1790    0.5730   19.9990 N   0  0  0  0  0  0  0  0  0  0  0  0
    9.2546   -4.7423   25.5437 N   0  0  0  0  0  0  0  0  0  0  0  0
    8.1890   -0.7180   20.8700 N   0  0  0  0  0  0  0  0  0  0  0  0
    7.5768   -4.4085   27.1602 O   0  0  0  0  0  0  0  0  0  0  0  0
    9.2690    1.4140   20.9380 O   0  0  0  0  0  0  0  0  0  0  0  0
   13.9766    4.8727   22.1070 Cl  0  0  0  0  0  0  0  0  0  0  0  0
    9.4776    5.0007   23.9337 H   0  0  0  0  0  0  0  0  0  0  0  0
    9.2060    2.5434   23.8814 H   0  0  0  0  0  0  0  0  0  0  0  0
    8.9202   -0.1986   25.4206 H   0  0  0  0  0  0  0  0  0  0  0  0
   10.0631   -2.2319   21.8252 H   0  0  0  0  0  0  0  0  0  0  0  0
    8.6898   -2.3534   26.5810 H   0  0  0  0  0  0  0  0  0  0  0  0
    9.9254   -4.3899   22.9914 H   0  0  0  0  0  0  0  0  0  0  0  0
   11.5769    6.0394   23.1535 H   0  0  0  0  0  0  0  0  0  0  0  0
   13.1659    2.1361   22.2525 H   0  0  0  0  0  0  0  0  0  0  0  0
    4.3967    1.9772   17.4718 H   0  0  0  0  0  0  0  0  0  0  0  0
    3.0218    2.6486   19.3697 H   0  0  0  0  0  0  0  0  0  0  0  0
    3.6566    2.0043   21.7065 H   0  0  0  0  0  0  0  0  0  0  0  0
    5.7190    0.6877   22.0810 H   0  0  0  0  0  0  0  0  0  0  0  0
    7.3765   -7.4971   25.6176 H   0  0  0  0  0  0  0  0  0  0  0  0
    8.6072   -8.5677   26.3138 H   0  0  0  0  0  0  0  0  0  0  0  0
    9.0599   -7.3717   25.0851 H   0  0  0  0  0  0  0  0  0  0  0  0
   11.6011    0.2707   22.2030 H   0  0  0  0  0  0  0  0  0  0  0  0
   11.4624    0.2744   23.9446 H   0  0  0  0  0  0  0  0  0  0  0  0
    9.7367   -6.6182   27.3685 H   0  0  0  0  0  0  0  0  0  0  0  0
    8.0565   -6.7633   27.9189 H   0  0  0  0  0  0  0  0  0  0  0  0
    8.9284    0.9668   23.5149 H   0  0  0  0  0  0  0  0  0  0  0  0
    9.9034   -5.4689   25.2194 H   0  0  0  0  0  0  0  0  0  0  0  0
    8.2385   -1.5646   21.0947 H   0  0  0  0  0  0  0  0  0  0  0  0
  1  2  2  0  0  0  0
  1  7  1  0  0  0  0
  2 10  1  0  0  0  0
  3  5  2  0  0  0  0
  3  9  1  0  0  0  0
  4  6  1  0  0  0  0
  4  9  2  0  0  0  0
  5 11  1  0  0  0  0
  6 11  2  0  0  0  0
  7 12  2  0  0  0  0
  8 10  2  0  0  0  0
  8 12  1  0  0  0  0
  9 24  1  0  0  0  0
 10 22  1  0  0  0  0
 11 28  1  0  0  0  0
 12 32  1  0  0  0  0
 13 15  1  0  0  0  0
 13 25  2  0  0  0  0
 13 27  1  0  0  0  0
 14 26  2  0  0  0  0
 14 27  1  0  0  0  0
 14 29  1  0  0  0  0
 15 16  2  0  0  0  0
 16 17  1  0  0  0  0
 17 18  2  0  0  0  0
 18 27  1  0  0  0  0
 19 23  1  0  0  0  0
 19 28  1  0  0  0  0
 19 30  2  0  0  0  0
 20 24  1  0  0  0  0
 20 29  1  0  0  0  0
 20 31  2  0  0  0  0
 21 23  1  0  0  0  0
 22 24  1  1  0  0  0
 25 26  1  0  0  0  0
  1 33  1  0  0  0  0
  2 34  1  0  0  0  0
  3 35  1  0  0  0  0
  4 36  1  0  0  0  0
  5 37  1  0  0  0  0
  6 38  1  0  0  0  0
  7 39  1  0  0  0  0
  8 40  1  0  0  0  0
 15 41  1  0  0  0  0
 16 42  1  0  0  0  0
 17 43  1  0  0  0  0
 18 44  1  0  0  0  0
 21 45  1  0  0  0  0
 21 46  1  0  0  0  0
 21 47  1  0  0  0  0
 22 48  1  0  0  0  0
 22 49  1  0  0  0  0
 23 50  1  0  0  0  0
 23 51  1  0  0  0  0
 24 52  1  0  0  0  0
 28 53  1  0  0  0  0
 29 54  1  0  0  0  0
M  END
> <clash_score>
0.6426266954076744

> <docking_score>
-10.092265129089355

> <overlap_score>
0.9330189824104309

$$$$
BENZO_316_1
  -OEChem-08232013463D

 56 60  0     1  0  0  0  0  0999 V2000
    9.0720   -1.1280   24.8640 C   0  0  0  0  0  0  0  0  0  0  0  0
    9.7200   -2.2600   22.8630 C   0  0  0  0  0  0  0  0  0  0  0  0
    8.9960   -2.3380   25.5320 C   0  0  0  0  0  0  0  0  0  0  0  0
    9.6730   -3.4710   23.5300 C   0  0  0  0  0  0  0  0  0  0  0  0
   10.3203    3.2228   22.7771 C   0  0  0  0  0  0  0  0  0  0  0  0
   10.2891    4.5743   22.5128 C   0  0  0  0  0  0  0  0  0  0  0  0
    8.2246    3.7981   23.6013 C   0  0  0  0  0  0  0  0  0  0  0  0
    9.3350   -1.0880   23.5010 C   0  0  0  0  0  0  0  0  0  0  0  0
    9.1243    2.7729   23.4075 C   0  0  0  0  0  0  0  0  0  0  0  0
    9.3070   -3.5340   24.8780 C   0  0  0  0  0  0  0  0  0  0  0  0
    5.8300    0.9190   18.6970 C   0  0  0  0  0  0  0  0  0  0  0  0
    7.3170   -0.1610   19.8550 C   0  0  0  0  0  0  0  0  0  0  0  0
    4.6890    1.6810   18.4640 C   0  0  0  0  0  0  0  0  0  0  0  0
    3.9160    2.0630   19.5520 C   0  0  0  0  0  0  0  0  0  0  0  0
    4.2750    1.7050   20.8490 C   0  0  0  0  0  0  0  0  0  0  0  0
    5.4210    0.9600   21.0930 C   0  0  0  0  0  0  0  0  0  0  0  0
    9.0420    0.3700   21.5280 C   0  0  0  0  0  0  0  0  0  0  0  0
    8.0667   -7.3160   25.1085 C   0  0  0  0  0  0  0  0  0  0  0  0
    9.3319   -6.8814   24.3649 C   0  0  0  0  0  0  0  0  0  0  0  0
    7.2362   -6.1096   25.5522 C   0  0  0  0  0  0  0  0  0  0  0  0
   10.1245   -5.8640   25.1853 C   0  0  0  0  0  0  0  0  0  0  0  0
    8.0817   -5.1052   26.3413 C   0  0  0  0  0  0  0  0  0  0  0  0
    8.8746    1.3393   23.8158 C   0  0  0  0  0  0  0  0  0  0  0  0
    9.4560    0.1560   22.8130 C   0  0  1  0  0  0  0  0  0  0  0  0
    6.7580    0.3810   17.8350 N   0  0  0  0  0  0  0  0  0  0  0  0
    7.6390   -0.2680   18.5410 N   0  0  0  0  0  0  0  0  0  0  0  0
    6.1790    0.5730   19.9990 N   0  0  0  0  0  0  0  0  0  0  0  0
    9.2563   -4.7384   25.5420 N   0  0  0  0  0  0  0  0  0  0  0  0
    8.1890   -0.7180   20.8700 N   0  0  0  0  0  0  0  0  0  0  0  0
    9.2690    1.4140   20.9380 O   0  0  0  0  0  0  0  0  0  0  0  0
    8.8224    5.2953   23.0240 S   0  0  0  0  0  0  0  0  0  0  0  0
    8.9214   -0.1986   25.4206 H   0  0  0  0  0  0  0  0  0  0  0  0
   10.0622   -2.2326   21.8251 H   0  0  0  0  0  0  0  0  0  0  0  0
    8.6882   -2.3542   26.5803 H   0  0  0  0  0  0  0  0  0  0  0  0
    9.9258   -4.3896   22.9914 H   0  0  0  0  0  0  0  0  0  0  0  0
   11.1634    2.5905   22.5286 H   0  0  0  0  0  0  0  0  0  0  0  0
   11.0576    5.1730   22.0446 H   0  0  0  0  0  0  0  0  0  0  0  0
    7.2445    3.7440   24.0547 H   0  0  0  0  0  0  0  0  0  0  0  0
    4.3967    1.9772   17.4718 H   0  0  0  0  0  0  0  0  0  0  0  0
    3.0218    2.6486   19.3697 H   0  0  0  0  0  0  0  0  0  0  0  0
    3.6566    2.0043   21.7065 H   0  0  0  0  0  0  0  0  0  0  0  0
    5.7190    0.6877   22.0810 H   0  0  0  0  0  0  0  0  0  0  0  0
    7.4598   -7.9634   24.4571 H   0  0  0  0  0  0  0  0  0  0  0  0
    8.3410   -7.9201   25.9853 H   0  0  0  0  0  0  0  0  0  0  0  0
    9.9559   -7.7558   24.1617 H   0  0  0  0  0  0  0  0  0  0  0  0
    9.0580   -6.4449   23.4022 H   0  0  0  0  0  0  0  0  0  0  0  0
    6.8081   -5.6166   24.6732 H   0  0  0  0  0  0  0  0  0  0  0  0
    6.3966   -6.4479   26.1707 H   0  0  0  0  0  0  0  0  0  0  0  0
   10.5035   -6.3556   26.0849 H   0  0  0  0  0  0  0  0  0  0  0  0
   10.9797   -5.5057   24.6053 H   0  0  0  0  0  0  0  0  0  0  0  0
    7.4889   -4.2178   26.5663 H   0  0  0  0  0  0  0  0  0  0  0  0
    8.3867   -5.5668   27.2810 H   0  0  0  0  0  0  0  0  0  0  0  0
    9.2322    1.1871   24.8426 H   0  0  0  0  0  0  0  0  0  0  0  0
    7.7874    1.1856   23.8601 H   0  0  0  0  0  0  0  0  0  0  0  0
   10.6111    0.4645   22.8838 H   0  0  0  0  0  0  0  0  0  0  0  0
    8.2585   -1.5522   21.1129 H   0  0  0  0  0  0  0  0  0  0  0  0
  1  3  2  0  0  0  0
  1  8  1  0  0  0  0
  2  4  1  0  0  0  0
  2  8  2  0  0  0  0
  3 10  1  0  0  0  0
  4 10  2  0  0  0  0
  5  6  2  0  0  0  0
  5  9  1  0  0  0  0
  6 31  1  0  0  0  0
  7  9  2  0  0  0  0
  7 31  1  0  0  0  0
  8 24  1  0  0  0  0
  9 23  1  0  0  0  0
 10 28  1  0  0  0  0
 11 13  1  0  0  0  0
 11 25  2  0  0  0  0
 11 27  1  0  0  0  0
 12 26  2  0  0  0  0
 12 27  1  0  0  0  0
 12 29  1  0  0  0  0
 13 14  2  0  0  0  0
 14 15  1  0  0  0  0
 15 16  2  0  0  0  0
 16 27  1  0  0  0  0
 17 24  1  1  0  0  0
 17 29  1  0  0  0  0
 17 30  2  0  0  0  0
 18 19  1  0  0  0  0
 18 20  1  0  0  0  0
 19 21  1  0  0  0  0
 20 22  1  0  0  0  0
 21 28  1  0  0  0  0
 22 28  1  0  0  0  0
 23 24  1  0  0  0  0
 25 26  1  0  0  0  0
  1 32  1  0  0  0  0
  2 33  1  0  0  0  0
  3 34  1  0  0  0  0
  4 35  1  0  0  0  0
  5 36  1  0  0  0  0
  6 37  1  0  0  0  0
  7 38  1  0  0  0  0
 13 39  1  0  0  0  0
 14 40  1  0  0  0  0
 15 41  1  0  0  0  0
 16 42  1  0  0  0  0
 18 43  1  0  0  0  0
 18 44  1  0  0  0  0
 19 45  1  0  0  0  0
 19 46  1  0  0  0  0
 20 47  1  0  0  0  0
 20 48  1  0  0  0  0
 21 49  1  0  0  0  0
 21 50  1  0  0  0  0
 22 51  1  0  0  0  0
 22 52  1  0  0  0  0
 23 53  1  0  0  0  0
 23 54  1  0  0  0  0
 24 55  1  0  0  0  0
 29 56  1  0  0  0  0
M  END
> <clash_score>
0.6917505343088597

> <docking_score>
-6.143582344055176

> <overlap_score>
0.8607398867607117

$$$$
BENZO_317_2
  -OEChem-08232013463D

 59 63  0     1  0  0  0  0  0999 V2000
   11.4754    4.9665   23.0809 C   0  0  0  0  0  0  0  0  0  0  0  0
   12.5125    4.1581   22.6155 C   0  0  0  0  0  0  0  0  0  0  0  0
   10.2875    4.3882   23.5284 C   0  0  0  0  0  0  0  0  0  0  0  0
   12.3617    2.7716   22.5975 C   0  0  0  0  0  0  0  0  0  0  0  0
   10.1367    3.0017   23.5105 C   0  0  0  0  0  0  0  0  0  0  0  0
    9.0720   -1.1280   24.8640 C   0  0  0  0  0  0  0  0  0  0  0  0
    9.7200   -2.2600   22.8630 C   0  0  0  0  0  0  0  0  0  0  0  0
    8.9960   -2.3380   25.5320 C   0  0  0  0  0  0  0  0  0  0  0  0
    9.6730   -3.4710   23.5300 C   0  0  0  0  0  0  0  0  0  0  0  0
   11.1738    2.1933   23.0450 C   0  0  0  0  0  0  0  0  0  0  0  0
    9.3350   -1.0880   23.5010 C   0  0  0  0  0  0  0  0  0  0  0  0
    9.3070   -3.5340   24.8780 C   0  0  0  0  0  0  0  0  0  0  0  0
    5.8300    0.9190   18.6970 C   0  0  0  0  0  0  0  0  0  0  0  0
    7.3170   -0.1610   19.8550 C   0  0  0  0  0  0  0  0  0  0  0  0
    4.6890    1.6810   18.4640 C   0  0  0  0  0  0  0  0  0  0  0  0
    3.9160    2.0630   19.5520 C   0  0  0  0  0  0  0  0  0  0  0  0
    4.2750    1.7050   20.8490 C   0  0  0  0  0  0  0  0  0  0  0  0
    5.4210    0.9600   21.0930 C   0  0  0  0  0  0  0  0  0  0  0  0
    9.0420    0.3700   21.5280 C   0  0  0  0  0  0  0  0  0  0  0  0
    7.3637   -6.1365   27.1885 C   0  0  0  0  0  0  0  0  0  0  0  0
    8.1962   -4.9739   27.7340 C   0  0  0  0  0  0  0  0  0  0  0  0
    7.1943   -6.0395   25.6706 C   0  0  0  0  0  0  0  0  0  0  0  0
    9.5197   -4.8493   26.9795 C   0  0  0  0  0  0  0  0  0  0  0  0
    8.5443   -5.8838   24.9636 C   0  0  0  0  0  0  0  0  0  0  0  0
   11.0096    0.6909   23.0256 C   0  0  0  0  0  0  0  0  0  0  0  0
    9.4560    0.1560   22.8130 C   0  0  2  0  0  0  0  0  0  0  0  0
    6.7580    0.3810   17.8350 N   0  0  0  0  0  0  0  0  0  0  0  0
    7.6390   -0.2680   18.5410 N   0  0  0  0  0  0  0  0  0  0  0  0
    6.1790    0.5730   19.9990 N   0  0  0  0  0  0  0  0  0  0  0  0
    9.2563   -4.7385   25.5420 N   0  0  0  0  0  0  0  0  0  0  0  0
    8.1890   -0.7180   20.8700 N   0  0  0  0  0  0  0  0  0  0  0  0
    9.2690    1.4140   20.9380 O   0  0  0  0  0  0  0  0  0  0  0  0
   11.5935    6.0460   23.0961 H   0  0  0  0  0  0  0  0  0  0  0  0
   13.4379    4.6081   22.2680 H   0  0  0  0  0  0  0  0  0  0  0  0
    9.4802    5.0172   23.8919 H   0  0  0  0  0  0  0  0  0  0  0  0
   13.1750    2.1496   22.2330 H   0  0  0  0  0  0  0  0  0  0  0  0
    9.2076    2.5600   23.8610 H   0  0  0  0  0  0  0  0  0  0  0  0
    8.9214   -0.1986   25.4206 H   0  0  0  0  0  0  0  0  0  0  0  0
   10.0622   -2.2326   21.8251 H   0  0  0  0  0  0  0  0  0  0  0  0
    8.6882   -2.3542   26.5803 H   0  0  0  0  0  0  0  0  0  0  0  0
    9.9258   -4.3896   22.9914 H   0  0  0  0  0  0  0  0  0  0  0  0
    4.3967    1.9772   17.4718 H   0  0  0  0  0  0  0  0  0  0  0  0
    3.0218    2.6486   19.3697 H   0  0  0  0  0  0  0  0  0  0  0  0
    3.6566    2.0043   21.7065 H   0  0  0  0  0  0  0  0  0  0  0  0
    5.7190    0.6877   22.0810 H   0  0  0  0  0  0  0  0  0  0  0  0
    7.8484   -7.0905   27.4464 H   0  0  0  0  0  0  0  0  0  0  0  0
    6.3761   -6.1442   27.6721 H   0  0  0  0  0  0  0  0  0  0  0  0
    7.6308   -4.0428   27.6404 H   0  0  0  0  0  0  0  0  0  0  0  0
    8.3917   -5.1316   28.7967 H   0  0  0  0  0  0  0  0  0  0  0  0
    6.6889   -6.9376   25.3006 H   0  0  0  0  0  0  0  0  0  0  0  0
    6.5516   -5.1860   25.4256 H   0  0  0  0  0  0  0  0  0  0  0  0
   10.0494   -3.9643   27.3413 H   0  0  0  0  0  0  0  0  0  0  0  0
   10.1432   -5.7258   27.1775 H   0  0  0  0  0  0  0  0  0  0  0  0
    9.1338   -6.7931   25.0863 H   0  0  0  0  0  0  0  0  0  0  0  0
    8.3657   -5.7262   23.8995 H   0  0  0  0  0  0  0  0  0  0  0  0
   11.6022    0.2720   22.2019 H   0  0  0  0  0  0  0  0  0  0  0  0
   11.4622    0.2902   23.9433 H   0  0  0  0  0  0  0  0  0  0  0  0
    8.9292    0.9747   23.5105 H   0  0  0  0  0  0  0  0  0  0  0  0
    8.2585   -1.5522   21.1129 H   0  0  0  0  0  0  0  0  0  0  0  0
  1  2  1  0  0  0  0
  1  3  2  0  0  0  0
  2  4  2  0  0  0  0
  3  5  1  0  0  0  0
  4 10  1  0  0  0  0
  5 10  2  0  0  0  0
  6  8  2  0  0  0  0
  6 11  1  0  0  0  0
  7  9  1  0  0  0  0
  7 11  2  0  0  0  0
  8 12  1  0  0  0  0
  9 12  2  0  0  0  0
 10 25  1  0  0  0  0
 11 26  1  0  0  0  0
 12 30  1  0  0  0  0
 13 15  1  0  0  0  0
 13 27  2  0  0  0  0
 13 29  1  0  0  0  0
 14 28  2  0  0  0  0
 14 29  1  0  0  0  0
 14 31  1  0  0  0  0
 15 16  2  0  0  0  0
 16 17  1  0  0  0  0
 17 18  2  0  0  0  0
 18 29  1  0  0  0  0
 19 26  1  6  0  0  0
 19 31  1  0  0  0  0
 19 32  2  0  0  0  0
 20 21  1  0  0  0  0
 20 22  1  0  0  0  0
 21 23  1  0  0  0  0
 22 24  1  0  0  0  0
 23 30  1  0  0  0  0
 24 30  1  0  0  0  0
 25 26  1  0  0  0  0
 27 28  1  0  0  0  0
  1 33  1  0  0  0  0
  2 34  1  0  0  0  0
  3 35  1  0  0  0  0
  4 36  1  0  0  0  0
  5 37  1  0  0  0  0
  6 38  1  0  0  0  0
  7 39  1  0  0  0  0
  8 40  1  0  0  0  0
  9 41  1  0  0  0  0
 15 42  1  0  0  0  0
 16 43  1  0  0  0  0
 17 44  1  0  0  0  0
 18 45  1  0  0  0  0
 20 46  1  0  0  0  0
 20 47  1  0  0  0  0
 21 48  1  0  0  0  0
 21 49  1  0  0  0  0
 22 50  1  0  0  0  0
 22 51  1  0  0  0  0
 23 52  1  0  0  0  0
 23 53  1  0  0  0  0
 24 54  1  0  0  0  0
 24 55  1  0  0  0  0
 25 56  1  0  0  0  0
 25 57  1  0  0  0  0
 26 58  1  0  0  0  0
 31 59  1  0  0  0  0
M  END
> <clash_score>
0

> <docking_score>
-10.360855102539062

> <overlap_score>
0.9432650208473206

$$$$
BENZO_316_2
  -OEChem-08232013463D

 56 60  0     1  0  0  0  0  0999 V2000
    9.0720   -1.1280   24.8640 C   0  0  0  0  0  0  0  0  0  0  0  0
    9.7200   -2.2600   22.8630 C   0  0  0  0  0  0  0  0  0  0  0  0
    8.9960   -2.3380   25.5320 C   0  0  0  0  0  0  0  0  0  0  0  0
    9.6730   -3.4710   23.5300 C   0  0  0  0  0  0  0  0  0  0  0  0
   11.9814    2.9163   22.1204 C   0  0  0  0  0  0  0  0  0  0  0  0
   11.9562    4.2724   22.3613 C   0  0  0  0  0  0  0  0  0  0  0  0
   10.5621    3.0244   23.9578 C   0  0  0  0  0  0  0  0  0  0  0  0
    9.3350   -1.0880   23.5010 C   0  0  0  0  0  0  0  0  0  0  0  0
   11.1738    2.1933   23.0450 C   0  0  0  0  0  0  0  0  0  0  0  0
    9.3070   -3.5340   24.8780 C   0  0  0  0  0  0  0  0  0  0  0  0
    5.8300    0.9190   18.6970 C   0  0  0  0  0  0  0  0  0  0  0  0
    7.3170   -0.1610   19.8550 C   0  0  0  0  0  0  0  0  0  0  0  0
    4.6890    1.6810   18.4640 C   0  0  0  0  0  0  0  0  0  0  0  0
    3.9160    2.0630   19.5520 C   0  0  0  0  0  0  0  0  0  0  0  0
    4.2750    1.7050   20.8490 C   0  0  0  0  0  0  0  0  0  0  0  0
    5.4210    0.9600   21.0930 C   0  0  0  0  0  0  0  0  0  0  0  0
    9.0420    0.3700   21.5280 C   0  0  0  0  0  0  0  0  0  0  0  0
    7.3637   -6.1365   27.1885 C   0  0  0  0  0  0  0  0  0  0  0  0
    8.1962   -4.9739   27.7340 C   0  0  0  0  0  0  0  0  0  0  0  0
    7.1943   -6.0395   25.6706 C   0  0  0  0  0  0  0  0  0  0  0  0
    9.5197   -4.8493   26.9795 C   0  0  0  0  0  0  0  0  0  0  0  0
    8.5443   -5.8838   24.9636 C   0  0  0  0  0  0  0  0  0  0  0  0
   11.0096    0.6909   23.0256 C   0  0  0  0  0  0  0  0  0  0  0  0
    9.4560    0.1560   22.8130 C   0  0  2  0  0  0  0  0  0  0  0  0
    6.7580    0.3810   17.8350 N   0  0  0  0  0  0  0  0  0  0  0  0
    7.6390   -0.2680   18.5410 N   0  0  0  0  0  0  0  0  0  0  0  0
    6.1790    0.5730   19.9990 N   0  0  0  0  0  0  0  0  0  0  0  0
    9.2563   -4.7385   25.5420 N   0  0  0  0  0  0  0  0  0  0  0  0
    8.1890   -0.7180   20.8700 N   0  0  0  0  0  0  0  0  0  0  0  0
    9.2690    1.4140   20.9380 O   0  0  0  0  0  0  0  0  0  0  0  0
   10.9619    4.6690   23.6979 S   0  0  0  0  0  0  0  0  0  0  0  0
    8.9214   -0.1986   25.4206 H   0  0  0  0  0  0  0  0  0  0  0  0
   10.0622   -2.2326   21.8251 H   0  0  0  0  0  0  0  0  0  0  0  0
    8.6882   -2.3542   26.5803 H   0  0  0  0  0  0  0  0  0  0  0  0
    9.9258   -4.3896   22.9914 H   0  0  0  0  0  0  0  0  0  0  0  0
   12.5539    2.4685   21.3179 H   0  0  0  0  0  0  0  0  0  0  0  0
   12.4745    5.0491   21.8170 H   0  0  0  0  0  0  0  0  0  0  0  0
    9.9000    2.7485   24.7669 H   0  0  0  0  0  0  0  0  0  0  0  0
    4.3967    1.9772   17.4718 H   0  0  0  0  0  0  0  0  0  0  0  0
    3.0218    2.6486   19.3697 H   0  0  0  0  0  0  0  0  0  0  0  0
    3.6566    2.0043   21.7065 H   0  0  0  0  0  0  0  0  0  0  0  0
    5.7190    0.6877   22.0810 H   0  0  0  0  0  0  0  0  0  0  0  0
    7.8484   -7.0905   27.4464 H   0  0  0  0  0  0  0  0  0  0  0  0
    6.3761   -6.1442   27.6721 H   0  0  0  0  0  0  0  0  0  0  0  0
    7.6308   -4.0428   27.6404 H   0  0  0  0  0  0  0  0  0  0  0  0
    8.3917   -5.1316   28.7967 H   0  0  0  0  0  0  0  0  0  0  0  0
    6.6889   -6.9376   25.3006 H   0  0  0  0  0  0  0  0  0  0  0  0
    6.5516   -5.1860   25.4256 H   0  0  0  0  0  0  0  0  0  0  0  0
   10.0494   -3.9643   27.3413 H   0  0  0  0  0  0  0  0  0  0  0  0
   10.1432   -5.7258   27.1775 H   0  0  0  0  0  0  0  0  0  0  0  0
    9.1338   -6.7931   25.0863 H   0  0  0  0  0  0  0  0  0  0  0  0
    8.3657   -5.7262   23.8995 H   0  0  0  0  0  0  0  0  0  0  0  0
   11.6022    0.2720   22.2019 H   0  0  0  0  0  0  0  0  0  0  0  0
   11.4622    0.2902   23.9433 H   0  0  0  0  0  0  0  0  0  0  0  0
    8.9292    0.9747   23.5105 H   0  0  0  0  0  0  0  0  0  0  0  0
    8.2585   -1.5522   21.1129 H   0  0  0  0  0  0  0  0  0  0  0  0
  1  3  2  0  0  0  0
  1  8  1  0  0  0  0
  2  4  1  0  0  0  0
  2  8  2  0  0  0  0
  3 10  1  0  0  0  0
  4 10  2  0  0  0  0
  5  6  2  0  0  0  0
  5  9  1  0  0  0  0
  6 31  1  0  0  0  0
  7  9  2  0  0  0  0
  7 31  1  0  0  0  0
  8 24  1  0  0  0  0
  9 23  1  0  0  0  0
 10 28  1  0  0  0  0
 11 13  1  0  0  0  0
 11 25  2  0  0  0  0
 11 27  1  0  0  0  0
 12 26  2  0  0  0  0
 12 27  1  0  0  0  0
 12 29  1  0  0  0  0
 13 14  2  0  0  0  0
 14 15  1  0  0  0  0
 15 16  2  0  0  0  0
 16 27  1  0  0  0  0
 17 24  1  6  0  0  0
 17 29  1  0  0  0  0
 17 30  2  0  0  0  0
 18 19  1  0  0  0  0
 18 20  1  0  0  0  0
 19 21  1  0  0  0  0
 20 22  1  0  0  0  0
 21 28  1  0  0  0  0
 22 28  1  0  0  0  0
 23 24  1  0  0  0  0
 25 26  1  0  0  0  0
  1 32  1  0  0  0  0
  2 33  1  0  0  0  0
  3 34  1  0  0  0  0
  4 35  1  0  0  0  0
  5 36  1  0  0  0  0
  6 37  1  0  0  0  0
  7 38  1  0  0  0  0
 13 39  1  0  0  0  0
 14 40  1  0  0  0  0
 15 41  1  0  0  0  0
 16 42  1  0  0  0  0
 18 43  1  0  0  0  0
 18 44  1  0  0  0  0
 19 45  1  0  0  0  0
 19 46  1  0  0  0  0
 20 47  1  0  0  0  0
 20 48  1  0  0  0  0
 21 49  1  0  0  0  0
 21 50  1  0  0  0  0
 22 51  1  0  0  0  0
 22 52  1  0  0  0  0
 23 53  1  0  0  0  0
 23 54  1  0  0  0  0
 24 55  1  0  0  0  0
 29 56  1  0  0  0  0
M  END
> <clash_score>
0

> <docking_score>
-9.418863296508789

> <overlap_score>
0.930773138999939

$$$$
BENZO_321_1
  -OEChem-08232013463D

 47 50  0     1  0  0  0  0  0999 V2000
   11.4726    4.9577   23.1210 C   0  0  0  0  0  0  0  0  0  0  0  0
   12.5103    4.1537   22.6496 C   0  0  0  0  0  0  0  0  0  0  0  0
   10.2847    4.3753   23.5633 C   0  0  0  0  0  0  0  0  0  0  0  0
   12.3602    2.7672   22.6203 C   0  0  0  0  0  0  0  0  0  0  0  0
   10.1346    2.9888   23.5339 C   0  0  0  0  0  0  0  0  0  0  0  0
    8.9960   -2.3380   25.5320 C   0  0  0  0  0  0  0  0  0  0  0  0
    9.6730   -3.4710   23.5300 C   0  0  0  0  0  0  0  0  0  0  0  0
    9.0720   -1.1280   24.8640 C   0  0  0  0  0  0  0  0  0  0  0  0
    9.7200   -2.2600   22.8630 C   0  0  0  0  0  0  0  0  0  0  0  0
    9.3070   -3.5340   24.8780 C   0  0  0  0  0  0  0  0  0  0  0  0
   11.1723    2.1848   23.0624 C   0  0  0  0  0  0  0  0  0  0  0  0
    9.3350   -1.0880   23.5010 C   0  0  0  0  0  0  0  0  0  0  0  0
    5.8300    0.9190   18.6970 C   0  0  0  0  0  0  0  0  0  0  0  0
    7.3170   -0.1610   19.8550 C   0  0  0  0  0  0  0  0  0  0  0  0
    4.6890    1.6810   18.4640 C   0  0  0  0  0  0  0  0  0  0  0  0
    3.9160    2.0630   19.5520 C   0  0  0  0  0  0  0  0  0  0  0  0
    4.2750    1.7050   20.8490 C   0  0  0  0  0  0  0  0  0  0  0  0
    5.4210    0.9600   21.0930 C   0  0  0  0  0  0  0  0  0  0  0  0
    9.0420    0.3700   21.5280 C   0  0  0  0  0  0  0  0  0  0  0  0
    9.2507   -4.8268   25.5895 C   0  0  0  0  0  0  0  0  0  0  0  0
   11.0089    0.6825   23.0307 C   0  0  0  0  0  0  0  0  0  0  0  0
    9.4560    0.1560   22.8130 C   0  0  1  0  0  0  0  0  0  0  0  0
    6.7580    0.3810   17.8350 N   0  0  0  0  0  0  0  0  0  0  0  0
    7.6390   -0.2680   18.5410 N   0  0  0  0  0  0  0  0  0  0  0  0
    6.1790    0.5730   19.9990 N   0  0  0  0  0  0  0  0  0  0  0  0
    8.1890   -0.7180   20.8700 N   0  0  0  0  0  0  0  0  0  0  0  0
    9.2690    1.4140   20.9380 O   0  0  0  0  0  0  0  0  0  0  0  0
   11.5901    6.0371   23.1451 H   0  0  0  0  0  0  0  0  0  0  0  0
   13.4357    4.6069   22.3063 H   0  0  0  0  0  0  0  0  0  0  0  0
    9.4770    5.0009   23.9314 H   0  0  0  0  0  0  0  0  0  0  0  0
   13.1740    2.1486   22.2511 H   0  0  0  0  0  0  0  0  0  0  0  0
    9.2056    2.5438   23.8803 H   0  0  0  0  0  0  0  0  0  0  0  0
    8.6904   -2.3557   26.5808 H   0  0  0  0  0  0  0  0  0  0  0  0
    9.9249   -4.3911   22.9935 H   0  0  0  0  0  0  0  0  0  0  0  0
    8.9209   -0.1987   25.4207 H   0  0  0  0  0  0  0  0  0  0  0  0
   10.0640   -2.2315   21.8255 H   0  0  0  0  0  0  0  0  0  0  0  0
    4.3967    1.9772   17.4718 H   0  0  0  0  0  0  0  0  0  0  0  0
    3.0218    2.6486   19.3697 H   0  0  0  0  0  0  0  0  0  0  0  0
    3.6566    2.0043   21.7065 H   0  0  0  0  0  0  0  0  0  0  0  0
    5.7190    0.6877   22.0810 H   0  0  0  0  0  0  0  0  0  0  0  0
    8.2506   -5.2684   25.5009 H   0  0  0  0  0  0  0  0  0  0  0  0
    9.9820   -5.5375   25.1832 H   0  0  0  0  0  0  0  0  0  0  0  0
    9.4843   -4.7055   26.6554 H   0  0  0  0  0  0  0  0  0  0  0  0
   11.6011    0.2707   22.2030 H   0  0  0  0  0  0  0  0  0  0  0  0
   11.4624    0.2744   23.9447 H   0  0  0  0  0  0  0  0  0  0  0  0
    8.9284    0.9668   23.5149 H   0  0  0  0  0  0  0  0  0  0  0  0
    8.2385   -1.5646   21.0947 H   0  0  0  0  0  0  0  0  0  0  0  0
  1  2  1  0  0  0  0
  1  3  2  0  0  0  0
  2  4  2  0  0  0  0
  3  5  1  0  0  0  0
  4 11  1  0  0  0  0
  5 11  2  0  0  0  0
  6  8  2  0  0  0  0
  6 10  1  0  0  0  0
  7  9  1  0  0  0  0
  7 10  2  0  0  0  0
  8 12  1  0  0  0  0
  9 12  2  0  0  0  0
 10 20  1  0  0  0  0
 11 21  1  0  0  0  0
 12 22  1  0  0  0  0
 13 15  1  0  0  0  0
 13 23  2  0  0  0  0
 13 25  1  0  0  0  0
 14 24  2  0  0  0  0
 14 25  1  0  0  0  0
 14 26  1  0  0  0  0
 15 16  2  0  0  0  0
 16 17  1  0  0  0  0
 17 18  2  0  0  0  0
 18 25  1  0  0  0  0
 19 22  1  0  0  0  0
 19 26  1  0  0  0  0
 19 27  2  0  0  0  0
 21 22  1  1  0  0  0
 23 24  1  0  0  0  0
  1 28  1  0  0  0  0
  2 29  1  0  0  0  0
  3 30  1  0  0  0  0
  4 31  1  0  0  0  0
  5 32  1  0  0  0  0
  6 33  1  0  0  0  0
  7 34  1  0  0  0  0
  8 35  1  0  0  0  0
  9 36  1  0  0  0  0
 15 37  1  0  0  0  0
 16 38  1  0  0  0  0
 17 39  1  0  0  0  0
 18 40  1  0  0  0  0
 20 41  1  0  0  0  0
 20 42  1  0  0  0  0
 20 43  1  0  0  0  0
 21 44  1  0  0  0  0
 21 45  1  0  0  0  0
 22 46  1  0  0  0  0
 26 47  1  0  0  0  0
M  END
> <clash_score>
0

> <docking_score>
-10.666722297668457

> <overlap_score>
0.8897681832313538

$$$$
BENZO_321_2
  -OEChem-08232013463D

 47 50  0     1  0  0  0  0  0999 V2000
    9.6170    5.4099   22.6808 C   0  0  0  0  0  0  0  0  0  0  0  0
    8.4752    5.0878   23.4143 C   0  0  0  0  0  0  0  0  0  0  0  0
   10.5182    4.4090   22.3177 C   0  0  0  0  0  0  0  0  0  0  0  0
    8.2345    3.7648   23.7849 C   0  0  0  0  0  0  0  0  0  0  0  0
   10.2775    3.0860   22.6883 C   0  0  0  0  0  0  0  0  0  0  0  0
    8.9960   -2.3380   25.5320 C   0  0  0  0  0  0  0  0  0  0  0  0
    9.6730   -3.4710   23.5300 C   0  0  0  0  0  0  0  0  0  0  0  0
    9.0720   -1.1280   24.8640 C   0  0  0  0  0  0  0  0  0  0  0  0
    9.7200   -2.2600   22.8630 C   0  0  0  0  0  0  0  0  0  0  0  0
    9.3070   -3.5340   24.8780 C   0  0  0  0  0  0  0  0  0  0  0  0
    9.1357    2.7638   23.4218 C   0  0  0  0  0  0  0  0  0  0  0  0
    9.3350   -1.0880   23.5010 C   0  0  0  0  0  0  0  0  0  0  0  0
    5.8300    0.9190   18.6970 C   0  0  0  0  0  0  0  0  0  0  0  0
    7.3170   -0.1610   19.8550 C   0  0  0  0  0  0  0  0  0  0  0  0
    4.6890    1.6810   18.4640 C   0  0  0  0  0  0  0  0  0  0  0  0
    3.9160    2.0630   19.5520 C   0  0  0  0  0  0  0  0  0  0  0  0
    4.2750    1.7050   20.8490 C   0  0  0  0  0  0  0  0  0  0  0  0
    5.4210    0.9600   21.0930 C   0  0  0  0  0  0  0  0  0  0  0  0
    9.0420    0.3700   21.5280 C   0  0  0  0  0  0  0  0  0  0  0  0
    9.2507   -4.8268   25.5895 C   0  0  0  0  0  0  0  0  0  0  0  0
    8.8757    1.3301   23.8233 C   0  0  0  0  0  0  0  0  0  0  0  0
    9.4560    0.1560   22.8130 C   0  0  2  0  0  0  0  0  0  0  0  0
    6.7580    0.3810   17.8350 N   0  0  0  0  0  0  0  0  0  0  0  0
    7.6390   -0.2680   18.5410 N   0  0  0  0  0  0  0  0  0  0  0  0
    6.1790    0.5730   19.9990 N   0  0  0  0  0  0  0  0  0  0  0  0
    8.1890   -0.7180   20.8700 N   0  0  0  0  0  0  0  0  0  0  0  0
    9.2690    1.4140   20.9380 O   0  0  0  0  0  0  0  0  0  0  0  0
    9.8035    6.4400   22.3912 H   0  0  0  0  0  0  0  0  0  0  0  0
    7.7728    5.8668   23.6961 H   0  0  0  0  0  0  0  0  0  0  0  0
   11.4067    4.6593   21.7457 H   0  0  0  0  0  0  0  0  0  0  0  0
    7.3424    3.5231   24.3565 H   0  0  0  0  0  0  0  0  0  0  0  0
   10.9853    2.3128   22.4011 H   0  0  0  0  0  0  0  0  0  0  0  0
    8.6904   -2.3557   26.5808 H   0  0  0  0  0  0  0  0  0  0  0  0
    9.9249   -4.3911   22.9935 H   0  0  0  0  0  0  0  0  0  0  0  0
    8.9209   -0.1987   25.4207 H   0  0  0  0  0  0  0  0  0  0  0  0
   10.0640   -2.2315   21.8255 H   0  0  0  0  0  0  0  0  0  0  0  0
    4.3967    1.9772   17.4718 H   0  0  0  0  0  0  0  0  0  0  0  0
    3.0218    2.6486   19.3697 H   0  0  0  0  0  0  0  0  0  0  0  0
    3.6566    2.0043   21.7065 H   0  0  0  0  0  0  0  0  0  0  0  0
    5.7190    0.6877   22.0810 H   0  0  0  0  0  0  0  0  0  0  0  0
    8.2506   -5.2684   25.5009 H   0  0  0  0  0  0  0  0  0  0  0  0
    9.9820   -5.5375   25.1832 H   0  0  0  0  0  0  0  0  0  0  0  0
    9.4843   -4.7055   26.6554 H   0  0  0  0  0  0  0  0  0  0  0  0
    9.2390    1.1684   24.8466 H   0  0  0  0  0  0  0  0  0  0  0  0
    7.7875    1.1860   23.8742 H   0  0  0  0  0  0  0  0  0  0  0  0
   10.6103    0.4565   22.8881 H   0  0  0  0  0  0  0  0  0  0  0  0
    8.2385   -1.5646   21.0947 H   0  0  0  0  0  0  0  0  0  0  0  0
  1  2  1  0  0  0  0
  1  3  2  0  0  0  0
  2  4  2  0  0  0  0
  3  5  1  0  0  0  0
  4 11  1  0  0  0  0
  5 11  2  0  0  0  0
  6  8  2  0  0  0  0
  6 10  1  0  0  0  0
  7  9  1  0  0  0  0
  7 10  2  0  0  0  0
  8 12  1  0  0  0  0
  9 12  2  0  0  0  0
 10 20  1  0  0  0  0
 11 21  1  0  0  0  0
 12 22  1  0  0  0  0
 13 15  1  0  0  0  0
 13 23  2  0  0  0  0
 13 25  1  0  0  0  0
 14 24  2  0  0  0  0
 14 25  1  0  0  0  0
 14 26  1  0  0  0  0
 15 16  2  0  0  0  0
 16 17  1  0  0  0  0
 17 18  2  0  0  0  0
 18 25  1  0  0  0  0
 19 22  1  0  0  0  0
 19 26  1  0  0  0  0
 19 27  2  0  0  0  0
 21 22  1  6  0  0  0
 23 24  1  0  0  0  0
  1 28  1  0  0  0  0
  2 29  1  0  0  0  0
  3 30  1  0  0  0  0
  4 31  1  0  0  0  0
  5 32  1  0  0  0  0
  6 33  1  0  0  0  0
  7 34  1  0  0  0  0
  8 35  1  0  0  0  0
  9 36  1  0  0  0  0
 15 37  1  0  0  0  0
 16 38  1  0  0  0  0
 17 39  1  0  0  0  0
 18 40  1  0  0  0  0
 20 41  1  0  0  0  0
 20 42  1  0  0  0  0
 20 43  1  0  0  0  0
 21 44  1  0  0  0  0
 21 45  1  0  0  0  0
 22 46  1  0  0  0  0
 26 47  1  0  0  0  0
M  END
> <clash_score>
0

> <docking_score>
-7.202376365661621

> <overlap_score>
0.8005932569503784

$$$$
BENZO_319_2
  -OEChem-08232013463D

 59 63  0     1  0  0  0  0  0999 V2000
    9.0720   -1.1280   24.8640 C   0  0  0  0  0  0  0  0  0  0  0  0
    9.7200   -2.2600   22.8630 C   0  0  0  0  0  0  0  0  0  0  0  0
    8.9960   -2.3380   25.5320 C   0  0  0  0  0  0  0  0  0  0  0  0
    9.6730   -3.4710   23.5300 C   0  0  0  0  0  0  0  0  0  0  0  0
   10.2059    3.2838   22.6653 C   0  0  0  0  0  0  0  0  0  0  0  0
    8.3433    3.8704   23.6762 C   0  0  0  0  0  0  0  0  0  0  0  0
    9.3350   -1.0880   23.5010 C   0  0  0  0  0  0  0  0  0  0  0  0
    9.1243    2.7729   23.4075 C   0  0  0  0  0  0  0  0  0  0  0  0
    9.3070   -3.5340   24.8780 C   0  0  0  0  0  0  0  0  0  0  0  0
    5.8300    0.9190   18.6970 C   0  0  0  0  0  0  0  0  0  0  0  0
    7.3170   -0.1610   19.8550 C   0  0  0  0  0  0  0  0  0  0  0  0
    4.6890    1.6810   18.4640 C   0  0  0  0  0  0  0  0  0  0  0  0
    3.9160    2.0630   19.5520 C   0  0  0  0  0  0  0  0  0  0  0  0
    4.2750    1.7050   20.8490 C   0  0  0  0  0  0  0  0  0  0  0  0
    5.4210    0.9600   21.0930 C   0  0  0  0  0  0  0  0  0  0  0  0
    9.0420    0.3700   21.5280 C   0  0  0  0  0  0  0  0  0  0  0  0
    7.2237   -6.6201   26.3005 C   0  0  0  0  0  0  0  0  0  0  0  0
    7.4295   -5.3104   27.0650 C   0  0  0  0  0  0  0  0  0  0  0  0
    7.7218   -6.5099   24.8576 C   0  0  0  0  0  0  0  0  0  0  0  0
    8.8783   -4.8360   26.9547 C   0  0  0  0  0  0  0  0  0  0  0  0
    9.1653   -6.0007   24.7991 C   0  0  0  0  0  0  0  0  0  0  0  0
    8.5383    6.3046   23.1148 C   0  0  0  0  0  0  0  0  0  0  0  0
    8.8746    1.3393   23.8158 C   0  0  0  0  0  0  0  0  0  0  0  0
    9.4560    0.1560   22.8130 C   0  0  2  0  0  0  0  0  0  0  0  0
   10.1229    4.6032   22.4745 N   0  0  0  0  0  0  0  0  0  0  0  0
    6.7580    0.3810   17.8350 N   0  0  0  0  0  0  0  0  0  0  0  0
    7.6390   -0.2680   18.5410 N   0  0  0  0  0  0  0  0  0  0  0  0
    8.9797    4.9306   23.1006 N   0  0  0  0  0  0  0  0  0  0  0  0
    6.1790    0.5730   19.9990 N   0  0  0  0  0  0  0  0  0  0  0  0
    9.2563   -4.7385   25.5420 N   0  0  0  0  0  0  0  0  0  0  0  0
    8.1890   -0.7180   20.8700 N   0  0  0  0  0  0  0  0  0  0  0  0
    9.2690    1.4140   20.9380 O   0  0  0  0  0  0  0  0  0  0  0  0
    8.9214   -0.1986   25.4206 H   0  0  0  0  0  0  0  0  0  0  0  0
   10.0622   -2.2326   21.8251 H   0  0  0  0  0  0  0  0  0  0  0  0
    8.6882   -2.3542   26.5803 H   0  0  0  0  0  0  0  0  0  0  0  0
    9.9258   -4.3896   22.9914 H   0  0  0  0  0  0  0  0  0  0  0  0
   11.0518    2.7517   22.2537 H   0  0  0  0  0  0  0  0  0  0  0  0
    7.4115    3.9842   24.2133 H   0  0  0  0  0  0  0  0  0  0  0  0
    4.3967    1.9772   17.4718 H   0  0  0  0  0  0  0  0  0  0  0  0
    3.0218    2.6486   19.3697 H   0  0  0  0  0  0  0  0  0  0  0  0
    3.6566    2.0043   21.7065 H   0  0  0  0  0  0  0  0  0  0  0  0
    5.7190    0.6877   22.0810 H   0  0  0  0  0  0  0  0  0  0  0  0
    7.7561   -7.4351   26.8143 H   0  0  0  0  0  0  0  0  0  0  0  0
    6.1574   -6.8886   26.3051 H   0  0  0  0  0  0  0  0  0  0  0  0
    6.7603   -4.5438   26.6651 H   0  0  0  0  0  0  0  0  0  0  0  0
    7.1686   -5.4557   28.1153 H   0  0  0  0  0  0  0  0  0  0  0  0
    7.6596   -7.4899   24.3731 H   0  0  0  0  0  0  0  0  0  0  0  0
    7.0707   -5.8316   24.2940 H   0  0  0  0  0  0  0  0  0  0  0  0
    8.9682   -3.8625   27.4435 H   0  0  0  0  0  0  0  0  0  0  0  0
    9.5389   -5.5394   27.4694 H   0  0  0  0  0  0  0  0  0  0  0  0
    9.8375   -6.7414   25.2339 H   0  0  0  0  0  0  0  0  0  0  0  0
    9.4414   -5.8513   23.7549 H   0  0  0  0  0  0  0  0  0  0  0  0
    8.9640    6.7865   23.9989 H   0  0  0  0  0  0  0  0  0  0  0  0
    8.8793    6.8060   22.2046 H   0  0  0  0  0  0  0  0  0  0  0  0
    7.4457    6.3329   23.1513 H   0  0  0  0  0  0  0  0  0  0  0  0
    9.2322    1.1871   24.8426 H   0  0  0  0  0  0  0  0  0  0  0  0
    7.7874    1.1856   23.8601 H   0  0  0  0  0  0  0  0  0  0  0  0
   10.6111    0.4645   22.8838 H   0  0  0  0  0  0  0  0  0  0  0  0
    8.2585   -1.5522   21.1129 H   0  0  0  0  0  0  0  0  0  0  0  0
  1  3  2  0  0  0  0
  1  7  1  0  0  0  0
  2  4  1  0  0  0  0
  2  7  2  0  0  0  0
  3  9  1  0  0  0  0
  4  9  2  0  0  0  0
  5  8  1  0  0  0  0
  5 25  2  0  0  0  0
  6  8  2  0  0  0  0
  6 28  1  0  0  0  0
  7 24  1  0  0  0  0
  8 23  1  0  0  0  0
  9 30  1  0  0  0  0
 10 12  1  0  0  0  0
 10 26  2  0  0  0  0
 10 29  1  0  0  0  0
 11 27  2  0  0  0  0
 11 29  1  0  0  0  0
 11 31  1  0  0  0  0
 12 13  2  0  0  0  0
 13 14  1  0  0  0  0
 14 15  2  0  0  0  0
 15 29  1  0  0  0  0
 16 24  1  0  0  0  0
 16 31  1  0  0  0  0
 16 32  2  0  0  0  0
 17 18  1  0  0  0  0
 17 19  1  0  0  0  0
 18 20  1  0  0  0  0
 19 21  1  0  0  0  0
 20 30  1  0  0  0  0
 21 30  1  0  0  0  0
 22 28  1  0  0  0  0
 23 24  1  6  0  0  0
 25 28  1  0  0  0  0
 26 27  1  0  0  0  0
  1 33  1  0  0  0  0
  2 34  1  0  0  0  0
  3 35  1  0  0  0  0
  4 36  1  0  0  0  0
  5 37  1  0  0  0  0
  6 38  1  0  0  0  0
 12 39  1  0  0  0  0
 13 40  1  0  0  0  0
 14 41  1  0  0  0  0
 15 42  1  0  0  0  0
 17 43  1  0  0  0  0
 17 44  1  0  0  0  0
 18 45  1  0  0  0  0
 18 46  1  0  0  0  0
 19 47  1  0  0  0  0
 19 48  1  0  0  0  0
 20 49  1  0  0  0  0
 20 50  1  0  0  0  0
 21 51  1  0  0  0  0
 21 52  1  0  0  0  0
 22 53  1  0  0  0  0
 22 54  1  0  0  0  0
 22 55  1  0  0  0  0
 23 56  1  0  0  0  0
 23 57  1  0  0  0  0
 24 58  1  0  0  0  0
 31 59  1  0  0  0  0
M  END
> <clash_score>
0

> <docking_score>
-6.459722518920898

> <overlap_score>
0.8560754656791687

$$$$
BENZO_320_1
  -OEChem-08232013463D

 44 47  0     1  0  0  0  0  0999 V2000
    8.9960   -2.3380   25.5320 C   0  0  0  0  0  0  0  0  0  0  0  0
    9.6730   -3.4710   23.5300 C   0  0  0  0  0  0  0  0  0  0  0  0
    9.0720   -1.1280   24.8640 C   0  0  0  0  0  0  0  0  0  0  0  0
    9.7200   -2.2600   22.8630 C   0  0  0  0  0  0  0  0  0  0  0  0
   11.9789    2.9159   22.1431 C   0  0  0  0  0  0  0  0  0  0  0  0
   11.9531    4.2698   22.3953 C   0  0  0  0  0  0  0  0  0  0  0  0
   10.5610    3.0079   23.9825 C   0  0  0  0  0  0  0  0  0  0  0  0
    9.3070   -3.5340   24.8780 C   0  0  0  0  0  0  0  0  0  0  0  0
    9.3350   -1.0880   23.5010 C   0  0  0  0  0  0  0  0  0  0  0  0
   11.1723    2.1848   23.0624 C   0  0  0  0  0  0  0  0  0  0  0  0
    5.8300    0.9190   18.6970 C   0  0  0  0  0  0  0  0  0  0  0  0
    7.3170   -0.1610   19.8550 C   0  0  0  0  0  0  0  0  0  0  0  0
    4.6890    1.6810   18.4640 C   0  0  0  0  0  0  0  0  0  0  0  0
    3.9160    2.0630   19.5520 C   0  0  0  0  0  0  0  0  0  0  0  0
    4.2750    1.7050   20.8490 C   0  0  0  0  0  0  0  0  0  0  0  0
    5.4210    0.9600   21.0930 C   0  0  0  0  0  0  0  0  0  0  0  0
    9.0420    0.3700   21.5280 C   0  0  0  0  0  0  0  0  0  0  0  0
    9.2507   -4.8268   25.5895 C   0  0  0  0  0  0  0  0  0  0  0  0
   11.0089    0.6825   23.0307 C   0  0  0  0  0  0  0  0  0  0  0  0
    9.4560    0.1560   22.8130 C   0  0  1  0  0  0  0  0  0  0  0  0
    6.7580    0.3810   17.8350 N   0  0  0  0  0  0  0  0  0  0  0  0
    7.6390   -0.2680   18.5410 N   0  0  0  0  0  0  0  0  0  0  0  0
    6.1790    0.5730   19.9990 N   0  0  0  0  0  0  0  0  0  0  0  0
    8.1890   -0.7180   20.8700 N   0  0  0  0  0  0  0  0  0  0  0  0
    9.2690    1.4140   20.9380 O   0  0  0  0  0  0  0  0  0  0  0  0
   10.9597    4.6549   23.7359 S   0  0  0  0  0  0  0  0  0  0  0  0
    8.6904   -2.3557   26.5808 H   0  0  0  0  0  0  0  0  0  0  0  0
    9.9249   -4.3911   22.9935 H   0  0  0  0  0  0  0  0  0  0  0  0
    8.9209   -0.1987   25.4207 H   0  0  0  0  0  0  0  0  0  0  0  0
   10.0640   -2.2315   21.8255 H   0  0  0  0  0  0  0  0  0  0  0  0
   12.5509    2.4750   21.3365 H   0  0  0  0  0  0  0  0  0  0  0  0
   12.4707    5.0513   21.8570 H   0  0  0  0  0  0  0  0  0  0  0  0
    9.8997    2.7250   24.7898 H   0  0  0  0  0  0  0  0  0  0  0  0
    4.3967    1.9772   17.4718 H   0  0  0  0  0  0  0  0  0  0  0  0
    3.0218    2.6486   19.3697 H   0  0  0  0  0  0  0  0  0  0  0  0
    3.6566    2.0043   21.7065 H   0  0  0  0  0  0  0  0  0  0  0  0
    5.7190    0.6877   22.0810 H   0  0  0  0  0  0  0  0  0  0  0  0
    8.2506   -5.2684   25.5009 H   0  0  0  0  0  0  0  0  0  0  0  0
    9.9820   -5.5375   25.1832 H   0  0  0  0  0  0  0  0  0  0  0  0
    9.4843   -4.7055   26.6554 H   0  0  0  0  0  0  0  0  0  0  0  0
   11.6011    0.2707   22.2030 H   0  0  0  0  0  0  0  0  0  0  0  0
   11.4624    0.2744   23.9446 H   0  0  0  0  0  0  0  0  0  0  0  0
    8.9284    0.9668   23.5149 H   0  0  0  0  0  0  0  0  0  0  0  0
    8.2385   -1.5646   21.0947 H   0  0  0  0  0  0  0  0  0  0  0  0
  1  3  2  0  0  0  0
  1  8  1  0  0  0  0
  2  4  1  0  0  0  0
  2  8  2  0  0  0  0
  3  9  1  0  0  0  0
  4  9  2  0  0  0  0
  5  6  2  0  0  0  0
  5 10  1  0  0  0  0
  6 26  1  0  0  0  0
  7 10  2  0  0  0  0
  7 26  1  0  0  0  0
  8 18  1  0  0  0  0
  9 20  1  0  0  0  0
 10 19  1  0  0  0  0
 11 13  1  0  0  0  0
 11 21  2  0  0  0  0
 11 23  1  0  0  0  0
 12 22  2  0  0  0  0
 12 23  1  0  0  0  0
 12 24  1  0  0  0  0
 13 14  2  0  0  0  0
 14 15  1  0  0  0  0
 15 16  2  0  0  0  0
 16 23  1  0  0  0  0
 17 20  1  0  0  0  0
 17 24  1  0  0  0  0
 17 25  2  0  0  0  0
 19 20  1  1  0  0  0
 21 22  1  0  0  0  0
  1 27  1  0  0  0  0
  2 28  1  0  0  0  0
  3 29  1  0  0  0  0
  4 30  1  0  0  0  0
  5 31  1  0  0  0  0
  6 32  1  0  0  0  0
  7 33  1  0  0  0  0
 13 34  1  0  0  0  0
 14 35  1  0  0  0  0
 15 36  1  0  0  0  0
 16 37  1  0  0  0  0
 18 38  1  0  0  0  0
 18 39  1  0  0  0  0
 18 40  1  0  0  0  0
 19 41  1  0  0  0  0
 19 42  1  0  0  0  0
 20 43  1  0  0  0  0
 24 44  1  0  0  0  0
M  END
> <clash_score>
0

> <docking_score>
-9.708414077758789

> <overlap_score>
0.8769888281822205

$$$$
BENZO_320_2
  -OEChem-08232013463D

 44 47  0     1  0  0  0  0  0999 V2000
    8.9960   -2.3380   25.5320 C   0  0  0  0  0  0  0  0  0  0  0  0
    9.6730   -3.4710   23.5300 C   0  0  0  0  0  0  0  0  0  0  0  0
    9.0720   -1.1280   24.8640 C   0  0  0  0  0  0  0  0  0  0  0  0
    9.7200   -2.2600   22.8630 C   0  0  0  0  0  0  0  0  0  0  0  0
   10.3314    3.2065   22.7858 C   0  0  0  0  0  0  0  0  0  0  0  0
   10.3108    4.5599   22.5298 C   0  0  0  0  0  0  0  0  0  0  0  0
    8.2468    3.7959   23.6280 C   0  0  0  0  0  0  0  0  0  0  0  0
    9.3070   -3.5340   24.8780 C   0  0  0  0  0  0  0  0  0  0  0  0
    9.3350   -1.0880   23.5010 C   0  0  0  0  0  0  0  0  0  0  0  0
    9.1357    2.7638   23.4218 C   0  0  0  0  0  0  0  0  0  0  0  0
    5.8300    0.9190   18.6970 C   0  0  0  0  0  0  0  0  0  0  0  0
    7.3170   -0.1610   19.8550 C   0  0  0  0  0  0  0  0  0  0  0  0
    4.6890    1.6810   18.4640 C   0  0  0  0  0  0  0  0  0  0  0  0
    3.9160    2.0630   19.5520 C   0  0  0  0  0  0  0  0  0  0  0  0
    4.2750    1.7050   20.8490 C   0  0  0  0  0  0  0  0  0  0  0  0
    5.4210    0.9600   21.0930 C   0  0  0  0  0  0  0  0  0  0  0  0
    9.0420    0.3700   21.5280 C   0  0  0  0  0  0  0  0  0  0  0  0
    9.2507   -4.8268   25.5895 C   0  0  0  0  0  0  0  0  0  0  0  0
    8.8757    1.3301   23.8233 C   0  0  0  0  0  0  0  0  0  0  0  0
    9.4560    0.1560   22.8130 C   0  0  2  0  0  0  0  0  0  0  0  0
    6.7580    0.3810   17.8350 N   0  0  0  0  0  0  0  0  0  0  0  0
    7.6390   -0.2680   18.5410 N   0  0  0  0  0  0  0  0  0  0  0  0
    6.1790    0.5730   19.9990 N   0  0  0  0  0  0  0  0  0  0  0  0
    8.1890   -0.7180   20.8700 N   0  0  0  0  0  0  0  0  0  0  0  0
    9.2690    1.4140   20.9380 O   0  0  0  0  0  0  0  0  0  0  0  0
    8.8543    5.2911   23.0556 S   0  0  0  0  0  0  0  0  0  0  0  0
    8.6904   -2.3557   26.5808 H   0  0  0  0  0  0  0  0  0  0  0  0
    9.9249   -4.3911   22.9935 H   0  0  0  0  0  0  0  0  0  0  0  0
    8.9209   -0.1987   25.4207 H   0  0  0  0  0  0  0  0  0  0  0  0
   10.0640   -2.2315   21.8255 H   0  0  0  0  0  0  0  0  0  0  0  0
   11.1669    2.5681   22.5277 H   0  0  0  0  0  0  0  0  0  0  0  0
   11.0815    5.1544   22.0599 H   0  0  0  0  0  0  0  0  0  0  0  0
    7.2694    3.7480   24.0879 H   0  0  0  0  0  0  0  0  0  0  0  0
    4.3967    1.9772   17.4718 H   0  0  0  0  0  0  0  0  0  0  0  0
    3.0218    2.6486   19.3697 H   0  0  0  0  0  0  0  0  0  0  0  0
    3.6566    2.0043   21.7065 H   0  0  0  0  0  0  0  0  0  0  0  0
    5.7190    0.6877   22.0810 H   0  0  0  0  0  0  0  0  0  0  0  0
    8.2506   -5.2684   25.5009 H   0  0  0  0  0  0  0  0  0  0  0  0
    9.9820   -5.5375   25.1832 H   0  0  0  0  0  0  0  0  0  0  0  0
    9.4843   -4.7055   26.6554 H   0  0  0  0  0  0  0  0  0  0  0  0
    9.2390    1.1684   24.8466 H   0  0  0  0  0  0  0  0  0  0  0  0
    7.7875    1.1860   23.8742 H   0  0  0  0  0  0  0  0  0  0  0  0
   10.6103    0.4565   22.8881 H   0  0  0  0  0  0  0  0  0  0  0  0
    8.2385   -1.5646   21.0947 H   0  0  0  0  0  0  0  0  0  0  0  0
  1  3  2  0  0  0  0
  1  8  1  0  0  0  0
  2  4  1  0  0  0  0
  2  8  2  0  0  0  0
  3  9  1  0  0  0  0
  4  9  2  0  0  0  0
  5  6  2  0  0  0  0
  5 10  1  0  0  0  0
  6 26  1  0  0  0  0
  7 10  2  0  0  0  0
  7 26  1  0  0  0  0
  8 18  1  0  0  0  0
  9 20  1  0  0  0  0
 10 19  1  0  0  0  0
 11 13  1  0  0  0  0
 11 21  2  0  0  0  0
 11 23  1  0  0  0  0
 12 22  2  0  0  0  0
 12 23  1  0  0  0  0
 12 24  1  0  0  0  0
 13 14  2  0  0  0  0
 14 15  1  0  0  0  0
 15 16  2  0  0  0  0
 16 23  1  0  0  0  0
 17 20  1  0  0  0  0
 17 24  1  0  0  0  0
 17 25  2  0  0  0  0
 19 20  1  6  0  0  0
 21 22  1  0  0  0  0
  1 27  1  0  0  0  0
  2 28  1  0  0  0  0
  3 29  1  0  0  0  0
  4 30  1  0  0  0  0
  5 31  1  0  0  0  0
  6 32  1  0  0  0  0
  7 33  1  0  0  0  0
 13 34  1  0  0  0  0
 14 35  1  0  0  0  0
 15 36  1  0  0  0  0
 16 37  1  0  0  0  0
 18 38  1  0  0  0  0
 18 39  1  0  0  0  0
 18 40  1  0  0  0  0
 19 41  1  0  0  0  0
 19 42  1  0  0  0  0
 20 43  1  0  0  0  0
 24 44  1  0  0  0  0
M  END
> <clash_score>
0

> <docking_score>
-7.589485168457031

> <overlap_score>
0.800769567489624

$$$$
BENZO_318_1
  -OEChem-08232013463D

 59 63  0     1  0  0  0  0  0999 V2000
    8.4482    5.0923   23.3954 C   0  0  0  0  0  0  0  0  0  0  0  0
    8.2178    3.7689   23.7708 C   0  0  0  0  0  0  0  0  0  0  0  0
    9.0720   -1.1280   24.8640 C   0  0  0  0  0  0  0  0  0  0  0  0
    9.7200   -2.2600   22.8630 C   0  0  0  0  0  0  0  0  0  0  0  0
    8.9960   -2.3380   25.5320 C   0  0  0  0  0  0  0  0  0  0  0  0
    9.6730   -3.4710   23.5300 C   0  0  0  0  0  0  0  0  0  0  0  0
    9.5851    5.4198   22.6564 C   0  0  0  0  0  0  0  0  0  0  0  0
   10.2612    3.1004   22.6687 C   0  0  0  0  0  0  0  0  0  0  0  0
    9.3350   -1.0880   23.5010 C   0  0  0  0  0  0  0  0  0  0  0  0
    9.1243    2.7729   23.4075 C   0  0  0  0  0  0  0  0  0  0  0  0
    9.3070   -3.5340   24.8780 C   0  0  0  0  0  0  0  0  0  0  0  0
   10.4916    4.4239   22.2931 C   0  0  0  0  0  0  0  0  0  0  0  0
    5.8300    0.9190   18.6970 C   0  0  0  0  0  0  0  0  0  0  0  0
    7.3170   -0.1610   19.8550 C   0  0  0  0  0  0  0  0  0  0  0  0
    4.6890    1.6810   18.4640 C   0  0  0  0  0  0  0  0  0  0  0  0
    3.9160    2.0630   19.5520 C   0  0  0  0  0  0  0  0  0  0  0  0
    4.2750    1.7050   20.8490 C   0  0  0  0  0  0  0  0  0  0  0  0
    5.4210    0.9600   21.0930 C   0  0  0  0  0  0  0  0  0  0  0  0
    9.0420    0.3700   21.5280 C   0  0  0  0  0  0  0  0  0  0  0  0
    7.2237   -6.6201   26.3005 C   0  0  0  0  0  0  0  0  0  0  0  0
    7.4295   -5.3104   27.0650 C   0  0  0  0  0  0  0  0  0  0  0  0
    7.7218   -6.5099   24.8576 C   0  0  0  0  0  0  0  0  0  0  0  0
    8.8783   -4.8360   26.9547 C   0  0  0  0  0  0  0  0  0  0  0  0
    9.1653   -6.0007   24.7991 C   0  0  0  0  0  0  0  0  0  0  0  0
    8.8746    1.3393   23.8158 C   0  0  0  0  0  0  0  0  0  0  0  0
    9.4560    0.1560   22.8130 C   0  0  1  0  0  0  0  0  0  0  0  0
    6.7580    0.3810   17.8350 N   0  0  0  0  0  0  0  0  0  0  0  0
    7.6390   -0.2680   18.5410 N   0  0  0  0  0  0  0  0  0  0  0  0
    6.1790    0.5730   19.9990 N   0  0  0  0  0  0  0  0  0  0  0  0
    9.2563   -4.7385   25.5420 N   0  0  0  0  0  0  0  0  0  0  0  0
    8.1890   -0.7180   20.8700 N   0  0  0  0  0  0  0  0  0  0  0  0
    9.2690    1.4140   20.9380 O   0  0  0  0  0  0  0  0  0  0  0  0
   11.8946    4.8288   21.3825 Cl  0  0  0  0  0  0  0  0  0  0  0  0
    7.7422    5.8676   23.6786 H   0  0  0  0  0  0  0  0  0  0  0  0
    7.3294    3.5228   24.3466 H   0  0  0  0  0  0  0  0  0  0  0  0
    8.9214   -0.1986   25.4206 H   0  0  0  0  0  0  0  0  0  0  0  0
   10.0622   -2.2326   21.8251 H   0  0  0  0  0  0  0  0  0  0  0  0
    8.6882   -2.3542   26.5803 H   0  0  0  0  0  0  0  0  0  0  0  0
    9.9258   -4.3896   22.9914 H   0  0  0  0  0  0  0  0  0  0  0  0
    9.7519    6.4556   22.3710 H   0  0  0  0  0  0  0  0  0  0  0  0
   10.9647    2.3202   22.3874 H   0  0  0  0  0  0  0  0  0  0  0  0
    4.3967    1.9772   17.4718 H   0  0  0  0  0  0  0  0  0  0  0  0
    3.0218    2.6486   19.3697 H   0  0  0  0  0  0  0  0  0  0  0  0
    3.6566    2.0043   21.7065 H   0  0  0  0  0  0  0  0  0  0  0  0
    5.7190    0.6877   22.0810 H   0  0  0  0  0  0  0  0  0  0  0  0
    7.7561   -7.4351   26.8143 H   0  0  0  0  0  0  0  0  0  0  0  0
    6.1574   -6.8886   26.3051 H   0  0  0  0  0  0  0  0  0  0  0  0
    6.7603   -4.5438   26.6651 H   0  0  0  0  0  0  0  0  0  0  0  0
    7.1686   -5.4557   28.1153 H   0  0  0  0  0  0  0  0  0  0  0  0
    7.6596   -7.4899   24.3731 H   0  0  0  0  0  0  0  0  0  0  0  0
    7.0707   -5.8316   24.2940 H   0  0  0  0  0  0  0  0  0  0  0  0
    8.9682   -3.8625   27.4435 H   0  0  0  0  0  0  0  0  0  0  0  0
    9.5389   -5.5394   27.4694 H   0  0  0  0  0  0  0  0  0  0  0  0
    9.8375   -6.7414   25.2339 H   0  0  0  0  0  0  0  0  0  0  0  0
    9.4414   -5.8513   23.7549 H   0  0  0  0  0  0  0  0  0  0  0  0
    9.2322    1.1871   24.8426 H   0  0  0  0  0  0  0  0  0  0  0  0
    7.7874    1.1856   23.8601 H   0  0  0  0  0  0  0  0  0  0  0  0
   10.6111    0.4645   22.8838 H   0  0  0  0  0  0  0  0  0  0  0  0
    8.2585   -1.5522   21.1129 H   0  0  0  0  0  0  0  0  0  0  0  0
  1  2  2  0  0  0  0
  1  7  1  0  0  0  0
  2 10  1  0  0  0  0
  3  5  2  0  0  0  0
  3  9  1  0  0  0  0
  4  6  1  0  0  0  0
  4  9  2  0  0  0  0
  5 11  1  0  0  0  0
  6 11  2  0  0  0  0
  7 12  2  0  0  0  0
  8 10  2  0  0  0  0
  8 12  1  0  0  0  0
  9 26  1  0  0  0  0
 10 25  1  0  0  0  0
 11 30  1  0  0  0  0
 12 33  1  0  0  0  0
 13 15  1  0  0  0  0
 13 27  2  0  0  0  0
 13 29  1  0  0  0  0
 14 28  2  0  0  0  0
 14 29  1  0  0  0  0
 14 31  1  0  0  0  0
 15 16  2  0  0  0  0
 16 17  1  0  0  0  0
 17 18  2  0  0  0  0
 18 29  1  0  0  0  0
 19 26  1  1  0  0  0
 19 31  1  0  0  0  0
 19 32  2  0  0  0  0
 20 21  1  0  0  0  0
 20 22  1  0  0  0  0
 21 23  1  0  0  0  0
 22 24  1  0  0  0  0
 23 30  1  0  0  0  0
 24 30  1  0  0  0  0
 25 26  1  0  0  0  0
 27 28  1  0  0  0  0
  1 34  1  0  0  0  0
  2 35  1  0  0  0  0
  3 36  1  0  0  0  0
  4 37  1  0  0  0  0
  5 38  1  0  0  0  0
  6 39  1  0  0  0  0
  7 40  1  0  0  0  0
  8 41  1  0  0  0  0
 15 42  1  0  0  0  0
 16 43  1  0  0  0  0
 17 44  1  0  0  0  0
 18 45  1  0  0  0  0
 20 46  1  0  0  0  0
 20 47  1  0  0  0  0
 21 48  1  0  0  0  0
 21 49  1  0  0  0  0
 22 50  1  0  0  0  0
 22 51  1  0  0  0  0
 23 52  1  0  0  0  0
 23 53  1  0  0  0  0
 24 54  1  0  0  0  0
 24 55  1  0  0  0  0
 25 56  1  0  0  0  0
 25 57  1  0  0  0  0
 26 58  1  0  0  0  0
 31 59  1  0  0  0  0
M  END
> <clash_score>
0

> <docking_score>
-6.07766056060791

> <overlap_score>
0.8607004880905151

$$$$
BENZO_319_1
  -OEChem-08232013463D

 59 63  0     1  0  0  0  0  0999 V2000
    9.0720   -1.1280   24.8640 C   0  0  0  0  0  0  0  0  0  0  0  0
    9.7200   -2.2600   22.8630 C   0  0  0  0  0  0  0  0  0  0  0  0
    8.9960   -2.3380   25.5320 C   0  0  0  0  0  0  0  0  0  0  0  0
    9.6730   -3.4710   23.5300 C   0  0  0  0  0  0  0  0  0  0  0  0
   10.2449    3.1582   23.4786 C   0  0  0  0  0  0  0  0  0  0  0  0
   12.2661    2.9236   22.6451 C   0  0  0  0  0  0  0  0  0  0  0  0
    9.3350   -1.0880   23.5010 C   0  0  0  0  0  0  0  0  0  0  0  0
   11.1738    2.1933   23.0450 C   0  0  0  0  0  0  0  0  0  0  0  0
    9.3070   -3.5340   24.8780 C   0  0  0  0  0  0  0  0  0  0  0  0
    5.8300    0.9190   18.6970 C   0  0  0  0  0  0  0  0  0  0  0  0
    7.3170   -0.1610   19.8550 C   0  0  0  0  0  0  0  0  0  0  0  0
    4.6890    1.6810   18.4640 C   0  0  0  0  0  0  0  0  0  0  0  0
    3.9160    2.0630   19.5520 C   0  0  0  0  0  0  0  0  0  0  0  0
    4.2750    1.7050   20.8490 C   0  0  0  0  0  0  0  0  0  0  0  0
    5.4210    0.9600   21.0930 C   0  0  0  0  0  0  0  0  0  0  0  0
    9.0420    0.3700   21.5280 C   0  0  0  0  0  0  0  0  0  0  0  0
    7.3637   -6.1365   27.1885 C   0  0  0  0  0  0  0  0  0  0  0  0
    8.1962   -4.9739   27.7340 C   0  0  0  0  0  0  0  0  0  0  0  0
    7.1943   -6.0395   25.6706 C   0  0  0  0  0  0  0  0  0  0  0  0
    9.5197   -4.8493   26.9795 C   0  0  0  0  0  0  0  0  0  0  0  0
    8.5443   -5.8838   24.9636 C   0  0  0  0  0  0  0  0  0  0  0  0
   12.7722    5.3769   22.5852 C   0  0  0  0  0  0  0  0  0  0  0  0
   11.0096    0.6909   23.0256 C   0  0  0  0  0  0  0  0  0  0  0  0
    9.4560    0.1560   22.8130 C   0  0  1  0  0  0  0  0  0  0  0  0
   10.7069    4.4063   23.3651 N   0  0  0  0  0  0  0  0  0  0  0  0
    6.7580    0.3810   17.8350 N   0  0  0  0  0  0  0  0  0  0  0  0
    7.6390   -0.2680   18.5410 N   0  0  0  0  0  0  0  0  0  0  0  0
   11.9381    4.2306   22.8556 N   0  0  0  0  0  0  0  0  0  0  0  0
    6.1790    0.5730   19.9990 N   0  0  0  0  0  0  0  0  0  0  0  0
    9.2563   -4.7385   25.5420 N   0  0  0  0  0  0  0  0  0  0  0  0
    8.1890   -0.7180   20.8700 N   0  0  0  0  0  0  0  0  0  0  0  0
    9.2690    1.4140   20.9380 O   0  0  0  0  0  0  0  0  0  0  0  0
    8.9214   -0.1986   25.4206 H   0  0  0  0  0  0  0  0  0  0  0  0
   10.0622   -2.2326   21.8251 H   0  0  0  0  0  0  0  0  0  0  0  0
    8.6882   -2.3542   26.5803 H   0  0  0  0  0  0  0  0  0  0  0  0
    9.9258   -4.3896   22.9914 H   0  0  0  0  0  0  0  0  0  0  0  0
    9.2505    3.0064   23.8739 H   0  0  0  0  0  0  0  0  0  0  0  0
   13.2256    2.6317   22.2400 H   0  0  0  0  0  0  0  0  0  0  0  0
    4.3967    1.9772   17.4718 H   0  0  0  0  0  0  0  0  0  0  0  0
    3.0218    2.6486   19.3697 H   0  0  0  0  0  0  0  0  0  0  0  0
    3.6566    2.0043   21.7065 H   0  0  0  0  0  0  0  0  0  0  0  0
    5.7190    0.6877   22.0810 H   0  0  0  0  0  0  0  0  0  0  0  0
    7.8484   -7.0905   27.4464 H   0  0  0  0  0  0  0  0  0  0  0  0
    6.3761   -6.1442   27.6721 H   0  0  0  0  0  0  0  0  0  0  0  0
    7.6308   -4.0428   27.6404 H   0  0  0  0  0  0  0  0  0  0  0  0
    8.3917   -5.1316   28.7967 H   0  0  0  0  0  0  0  0  0  0  0  0
    6.6889   -6.9376   25.3006 H   0  0  0  0  0  0  0  0  0  0  0  0
    6.5516   -5.1860   25.4256 H   0  0  0  0  0  0  0  0  0  0  0  0
   10.0494   -3.9643   27.3413 H   0  0  0  0  0  0  0  0  0  0  0  0
   10.1432   -5.7258   27.1775 H   0  0  0  0  0  0  0  0  0  0  0  0
    9.1338   -6.7931   25.0863 H   0  0  0  0  0  0  0  0  0  0  0  0
    8.3657   -5.7262   23.8995 H   0  0  0  0  0  0  0  0  0  0  0  0
   12.5768    5.7019   21.5598 H   0  0  0  0  0  0  0  0  0  0  0  0
   12.5325    6.1764   23.2918 H   0  0  0  0  0  0  0  0  0  0  0  0
   13.8223    5.0961   22.7049 H   0  0  0  0  0  0  0  0  0  0  0  0
   11.6022    0.2720   22.2019 H   0  0  0  0  0  0  0  0  0  0  0  0
   11.4622    0.2902   23.9433 H   0  0  0  0  0  0  0  0  0  0  0  0
    8.9292    0.9747   23.5105 H   0  0  0  0  0  0  0  0  0  0  0  0
    8.2585   -1.5522   21.1129 H   0  0  0  0  0  0  0  0  0  0  0  0
  1  3  2  0  0  0  0
  1  7  1  0  0  0  0
  2  4  1  0  0  0  0
  2  7  2  0  0  0  0
  3  9  1  0  0  0  0
  4  9  2  0  0  0  0
  5  8  1  0  0  0  0
  5 25  2  0  0  0  0
  6  8  2  0  0  0  0
  6 28  1  0  0  0  0
  7 24  1  0  0  0  0
  8 23  1  0  0  0  0
  9 30  1  0  0  0  0
 10 12  1  0  0  0  0
 10 26  2  0  0  0  0
 10 29  1  0  0  0  0
 11 27  2  0  0  0  0
 11 29  1  0  0  0  0
 11 31  1  0  0  0  0
 12 13  2  0  0  0  0
 13 14  1  0  0  0  0
 14 15  2  0  0  0  0
 15 29  1  0  0  0  0
 16 24  1  0  0  0  0
 16 31  1  0  0  0  0
 16 32  2  0  0  0  0
 17 18  1  0  0  0  0
 17 19  1  0  0  0  0
 18 20  1  0  0  0  0
 19 21  1  0  0  0  0
 20 30  1  0  0  0  0
 21 30  1  0  0  0  0
 22 28  1  0  0  0  0
 23 24  1  1  0  0  0
 25 28  1  0  0  0  0
 26 27  1  0  0  0  0
  1 33  1  0  0  0  0
  2 34  1  0  0  0  0
  3 35  1  0  0  0  0
  4 36  1  0  0  0  0
  5 37  1  0  0  0  0
  6 38  1  0  0  0  0
 12 39  1  0  0  0  0
 13 40  1  0  0  0  0
 14 41  1  0  0  0  0
 15 42  1  0  0  0  0
 17 43  1  0  0  0  0
 17 44  1  0  0  0  0
 18 45  1  0  0  0  0
 18 46  1  0  0  0  0
 19 47  1  0  0  0  0
 19 48  1  0  0  0  0
 20 49  1  0  0  0  0
 20 50  1  0  0  0  0
 21 51  1  0  0  0  0
 21 52  1  0  0  0  0
 22 53  1  0  0  0  0
 22 54  1  0  0  0  0
 22 55  1  0  0  0  0
 23 56  1  0  0  0  0
 23 57  1  0  0  0  0
 24 58  1  0  0  0  0
 31 59  1  0  0  0  0
M  END
> <clash_score>
0

> <docking_score>
-10.263940811157227

> <overlap_score>
0.9394319653511047

$$$$
BENZO_318_2
  -OEChem-08232013463D

 59 63  0     1  0  0  0  0  0999 V2000
   10.2883    4.3880   23.5308 C   0  0  0  0  0  0  0  0  0  0  0  0
   10.1370    3.0016   23.5115 C   0  0  0  0  0  0  0  0  0  0  0  0
    9.0720   -1.1280   24.8640 C   0  0  0  0  0  0  0  0  0  0  0  0
    9.7200   -2.2600   22.8630 C   0  0  0  0  0  0  0  0  0  0  0  0
    8.9960   -2.3380   25.5320 C   0  0  0  0  0  0  0  0  0  0  0  0
    9.6730   -3.4710   23.5300 C   0  0  0  0  0  0  0  0  0  0  0  0
   11.4763    4.9663   23.0834 C   0  0  0  0  0  0  0  0  0  0  0  0
   12.3618    2.7715   22.5978 C   0  0  0  0  0  0  0  0  0  0  0  0
    9.3350   -1.0880   23.5010 C   0  0  0  0  0  0  0  0  0  0  0  0
   11.1738    2.1933   23.0450 C   0  0  0  0  0  0  0  0  0  0  0  0
    9.3070   -3.5340   24.8780 C   0  0  0  0  0  0  0  0  0  0  0  0
   12.5130    4.1581   22.6170 C   0  0  0  0  0  0  0  0  0  0  0  0
    5.8300    0.9190   18.6970 C   0  0  0  0  0  0  0  0  0  0  0  0
    7.3170   -0.1610   19.8550 C   0  0  0  0  0  0  0  0  0  0  0  0
    4.6890    1.6810   18.4640 C   0  0  0  0  0  0  0  0  0  0  0  0
    3.9160    2.0630   19.5520 C   0  0  0  0  0  0  0  0  0  0  0  0
    4.2750    1.7050   20.8490 C   0  0  0  0  0  0  0  0  0  0  0  0
    5.4210    0.9600   21.0930 C   0  0  0  0  0  0  0  0  0  0  0  0
    9.0420    0.3700   21.5280 C   0  0  0  0  0  0  0  0  0  0  0  0
    7.3637   -6.1365   27.1885 C   0  0  0  0  0  0  0  0  0  0  0  0
    8.1962   -4.9739   27.7340 C   0  0  0  0  0  0  0  0  0  0  0  0
    7.1943   -6.0395   25.6706 C   0  0  0  0  0  0  0  0  0  0  0  0
    9.5197   -4.8493   26.9795 C   0  0  0  0  0  0  0  0  0  0  0  0
    8.5443   -5.8838   24.9636 C   0  0  0  0  0  0  0  0  0  0  0  0
   11.0096    0.6909   23.0256 C   0  0  0  0  0  0  0  0  0  0  0  0
    9.4560    0.1560   22.8130 C   0  0  2  0  0  0  0  0  0  0  0  0
    6.7580    0.3810   17.8350 N   0  0  0  0  0  0  0  0  0  0  0  0
    7.6390   -0.2680   18.5410 N   0  0  0  0  0  0  0  0  0  0  0  0
    6.1790    0.5730   19.9990 N   0  0  0  0  0  0  0  0  0  0  0  0
    9.2563   -4.7385   25.5420 N   0  0  0  0  0  0  0  0  0  0  0  0
    8.1890   -0.7180   20.8700 N   0  0  0  0  0  0  0  0  0  0  0  0
    9.2690    1.4140   20.9380 O   0  0  0  0  0  0  0  0  0  0  0  0
   13.9789    4.8720   22.0663 Cl  0  0  0  0  0  0  0  0  0  0  0  0
    9.4808    5.0171   23.8942 H   0  0  0  0  0  0  0  0  0  0  0  0
    9.2080    2.5596   23.8620 H   0  0  0  0  0  0  0  0  0  0  0  0
    8.9214   -0.1986   25.4206 H   0  0  0  0  0  0  0  0  0  0  0  0
   10.0622   -2.2326   21.8251 H   0  0  0  0  0  0  0  0  0  0  0  0
    8.6882   -2.3542   26.5803 H   0  0  0  0  0  0  0  0  0  0  0  0
    9.9258   -4.3896   22.9914 H   0  0  0  0  0  0  0  0  0  0  0  0
   11.5802    6.0484   23.1045 H   0  0  0  0  0  0  0  0  0  0  0  0
   13.1669    2.1371   22.2345 H   0  0  0  0  0  0  0  0  0  0  0  0
    4.3967    1.9772   17.4718 H   0  0  0  0  0  0  0  0  0  0  0  0
    3.0218    2.6486   19.3697 H   0  0  0  0  0  0  0  0  0  0  0  0
    3.6566    2.0043   21.7065 H   0  0  0  0  0  0  0  0  0  0  0  0
    5.7190    0.6877   22.0810 H   0  0  0  0  0  0  0  0  0  0  0  0
    7.8484   -7.0905   27.4464 H   0  0  0  0  0  0  0  0  0  0  0  0
    6.3761   -6.1442   27.6721 H   0  0  0  0  0  0  0  0  0  0  0  0
    7.6308   -4.0428   27.6404 H   0  0  0  0  0  0  0  0  0  0  0  0
    8.3917   -5.1316   28.7967 H   0  0  0  0  0  0  0  0  0  0  0  0
    6.6889   -6.9376   25.3006 H   0  0  0  0  0  0  0  0  0  0  0  0
    6.5516   -5.1860   25.4256 H   0  0  0  0  0  0  0  0  0  0  0  0
   10.0494   -3.9643   27.3413 H   0  0  0  0  0  0  0  0  0  0  0  0
   10.1432   -5.7258   27.1775 H   0  0  0  0  0  0  0  0  0  0  0  0
    9.1338   -6.7931   25.0863 H   0  0  0  0  0  0  0  0  0  0  0  0
    8.3657   -5.7262   23.8995 H   0  0  0  0  0  0  0  0  0  0  0  0
   11.6022    0.2720   22.2019 H   0  0  0  0  0  0  0  0  0  0  0  0
   11.4622    0.2902   23.9433 H   0  0  0  0  0  0  0  0  0  0  0  0
    8.9292    0.9747   23.5105 H   0  0  0  0  0  0  0  0  0  0  0  0
    8.2585   -1.5522   21.1129 H   0  0  0  0  0  0  0  0  0  0  0  0
  1  2  2  0  0  0  0
  1  7  1  0  0  0  0
  2 10  1  0  0  0  0
  3  5  2  0  0  0  0
  3  9  1  0  0  0  0
  4  6  1  0  0  0  0
  4  9  2  0  0  0  0
  5 11  1  0  0  0  0
  6 11  2  0  0  0  0
  7 12  2  0  0  0  0
  8 10  2  0  0  0  0
  8 12  1  0  0  0  0
  9 26  1  0  0  0  0
 10 25  1  0  0  0  0
 11 30  1  0  0  0  0
 12 33  1  0  0  0  0
 13 15  1  0  0  0  0
 13 27  2  0  0  0  0
 13 29  1  0  0  0  0
 14 28  2  0  0  0  0
 14 29  1  0  0  0  0
 14 31  1  0  0  0  0
 15 16  2  0  0  0  0
 16 17  1  0  0  0  0
 17 18  2  0  0  0  0
 18 29  1  0  0  0  0
 19 26  1  6  0  0  0
 19 31  1  0  0  0  0
 19 32  2  0  0  0  0
 20 21  1  0  0  0  0
 20 22  1  0  0  0  0
 21 23  1  0  0  0  0
 22 24  1  0  0  0  0
 23 30  1  0  0  0  0
 24 30  1  0  0  0  0
 25 26  1  0  0  0  0
 27 28  1  0  0  0  0
  1 34  1  0  0  0  0
  2 35  1  0  0  0  0
  3 36  1  0  0  0  0
  4 37  1  0  0  0  0
  5 38  1  0  0  0  0
  6 39  1  0  0  0  0
  7 40  1  0  0  0  0
  8 41  1  0  0  0  0
 15 42  1  0  0  0  0
 16 43  1  0  0  0  0
 17 44  1  0  0  0  0
 18 45  1  0  0  0  0
 20 46  1  0  0  0  0
 20 47  1  0  0  0  0
 21 48  1  0  0  0  0
 21 49  1  0  0  0  0
 22 50  1  0  0  0  0
 22 51  1  0  0  0  0
 23 52  1  0  0  0  0
 23 53  1  0  0  0  0
 24 54  1  0  0  0  0
 24 55  1  0  0  0  0
 25 56  1  0  0  0  0
 25 57  1  0  0  0  0
 26 58  1  0  0  0  0
 31 59  1  0  0  0  0
M  END
> <clash_score>
0

> <docking_score>
-10.789786338806152

> <overlap_score>
0.9441561102867126

$$$$
BENZO_323_1
  -OEChem-08232013463D

 47 50  0     1  0  0  0  0  0999 V2000
    8.9960   -2.3380   25.5320 C   0  0  0  0  0  0  0  0  0  0  0  0
    9.6730   -3.4710   23.5300 C   0  0  0  0  0  0  0  0  0  0  0  0
    9.0720   -1.1280   24.8640 C   0  0  0  0  0  0  0  0  0  0  0  0
    9.7200   -2.2600   22.8630 C   0  0  0  0  0  0  0  0  0  0  0  0
   10.2428    3.1456   23.5034 C   0  0  0  0  0  0  0  0  0  0  0  0
   12.2645    2.9188   22.6690 C   0  0  0  0  0  0  0  0  0  0  0  0
    9.3070   -3.5340   24.8780 C   0  0  0  0  0  0  0  0  0  0  0  0
    9.3350   -1.0880   23.5010 C   0  0  0  0  0  0  0  0  0  0  0  0
   11.1723    2.1848   23.0624 C   0  0  0  0  0  0  0  0  0  0  0  0
    5.8300    0.9190   18.6970 C   0  0  0  0  0  0  0  0  0  0  0  0
    7.3170   -0.1610   19.8550 C   0  0  0  0  0  0  0  0  0  0  0  0
    4.6890    1.6810   18.4640 C   0  0  0  0  0  0  0  0  0  0  0  0
    3.9160    2.0630   19.5520 C   0  0  0  0  0  0  0  0  0  0  0  0
    4.2750    1.7050   20.8490 C   0  0  0  0  0  0  0  0  0  0  0  0
    5.4210    0.9600   21.0930 C   0  0  0  0  0  0  0  0  0  0  0  0
    9.0420    0.3700   21.5280 C   0  0  0  0  0  0  0  0  0  0  0  0
    9.2507   -4.8268   25.5895 C   0  0  0  0  0  0  0  0  0  0  0  0
   12.7694    5.3728   22.6294 C   0  0  0  0  0  0  0  0  0  0  0  0
   11.0089    0.6825   23.0307 C   0  0  0  0  0  0  0  0  0  0  0  0
    9.4560    0.1560   22.8130 C   0  0  1  0  0  0  0  0  0  0  0  0
   10.7043    4.3948   23.4002 N   0  0  0  0  0  0  0  0  0  0  0  0
    6.7580    0.3810   17.8350 N   0  0  0  0  0  0  0  0  0  0  0  0
    7.6390   -0.2680   18.5410 N   0  0  0  0  0  0  0  0  0  0  0  0
   11.9357    4.2239   22.8900 N   0  0  0  0  0  0  0  0  0  0  0  0
    6.1790    0.5730   19.9990 N   0  0  0  0  0  0  0  0  0  0  0  0
    8.1890   -0.7180   20.8700 N   0  0  0  0  0  0  0  0  0  0  0  0
    9.2690    1.4140   20.9380 O   0  0  0  0  0  0  0  0  0  0  0  0
    8.6904   -2.3557   26.5808 H   0  0  0  0  0  0  0  0  0  0  0  0
    9.9249   -4.3911   22.9935 H   0  0  0  0  0  0  0  0  0  0  0  0
    8.9209   -0.1987   25.4207 H   0  0  0  0  0  0  0  0  0  0  0  0
   10.0640   -2.2315   21.8255 H   0  0  0  0  0  0  0  0  0  0  0  0
    9.2482    2.9901   23.8969 H   0  0  0  0  0  0  0  0  0  0  0  0
   13.2243    2.6307   22.2620 H   0  0  0  0  0  0  0  0  0  0  0  0
    4.3967    1.9772   17.4718 H   0  0  0  0  0  0  0  0  0  0  0  0
    3.0218    2.6486   19.3697 H   0  0  0  0  0  0  0  0  0  0  0  0
    3.6566    2.0043   21.7065 H   0  0  0  0  0  0  0  0  0  0  0  0
    5.7190    0.6877   22.0810 H   0  0  0  0  0  0  0  0  0  0  0  0
    8.2506   -5.2684   25.5009 H   0  0  0  0  0  0  0  0  0  0  0  0
    9.9820   -5.5375   25.1832 H   0  0  0  0  0  0  0  0  0  0  0  0
    9.4843   -4.7055   26.6554 H   0  0  0  0  0  0  0  0  0  0  0  0
   12.5744    5.7060   21.6066 H   0  0  0  0  0  0  0  0  0  0  0  0
   12.5290    6.1664   23.3423 H   0  0  0  0  0  0  0  0  0  0  0  0
   13.8196    5.0915   22.7473 H   0  0  0  0  0  0  0  0  0  0  0  0
   11.6011    0.2707   22.2030 H   0  0  0  0  0  0  0  0  0  0  0  0
   11.4624    0.2744   23.9446 H   0  0  0  0  0  0  0  0  0  0  0  0
    8.9284    0.9668   23.5149 H   0  0  0  0  0  0  0  0  0  0  0  0
    8.2385   -1.5646   21.0947 H   0  0  0  0  0  0  0  0  0  0  0  0
  1  3  2  0  0  0  0
  1  7  1  0  0  0  0
  2  4  1  0  0  0  0
  2  7  2  0  0  0  0
  3  8  1  0  0  0  0
  4  8  2  0  0  0  0
  5  9  1  0  0  0  0
  5 21  2  0  0  0  0
  6  9  2  0  0  0  0
  6 24  1  0  0  0  0
  7 17  1  0  0  0  0
  8 20  1  0  0  0  0
  9 19  1  0  0  0  0
 10 12  1  0  0  0  0
 10 22  2  0  0  0  0
 10 25  1  0  0  0  0
 11 23  2  0  0  0  0
 11 25  1  0  0  0  0
 11 26  1  0  0  0  0
 12 13  2  0  0  0  0
 13 14  1  0  0  0  0
 14 15  2  0  0  0  0
 15 25  1  0  0  0  0
 16 20  1  0  0  0  0
 16 26  1  0  0  0  0
 16 27  2  0  0  0  0
 18 24  1  0  0  0  0
 19 20  1  1  0  0  0
 21 24  1  0  0  0  0
 22 23  1  0  0  0  0
  1 28  1  0  0  0  0
  2 29  1  0  0  0  0
  3 30  1  0  0  0  0
  4 31  1  0  0  0  0
  5 32  1  0  0  0  0
  6 33  1  0  0  0  0
 12 34  1  0  0  0  0
 13 35  1  0  0  0  0
 14 36  1  0  0  0  0
 15 37  1  0  0  0  0
 17 38  1  0  0  0  0
 17 39  1  0  0  0  0
 17 40  1  0  0  0  0
 18 41  1  0  0  0  0
 18 42  1  0  0  0  0
 18 43  1  0  0  0  0
 19 44  1  0  0  0  0
 19 45  1  0  0  0  0
 20 46  1  0  0  0  0
 26 47  1  0  0  0  0
M  END
> <clash_score>
0

> <docking_score>
-10.572859764099121

> <overlap_score>
0.8858460187911987

$$$$
BENZO_323_2
  -OEChem-08232013463D

 47 50  0     1  0  0  0  0  0999 V2000
    8.9960   -2.3380   25.5320 C   0  0  0  0  0  0  0  0  0  0  0  0
    9.6730   -3.4710   23.5300 C   0  0  0  0  0  0  0  0  0  0  0  0
    9.0720   -1.1280   24.8640 C   0  0  0  0  0  0  0  0  0  0  0  0
    9.7200   -2.2600   22.8630 C   0  0  0  0  0  0  0  0  0  0  0  0
    8.3456    3.8954   23.6994 C   0  0  0  0  0  0  0  0  0  0  0  0
   10.1996    3.2552   22.7054 C   0  0  0  0  0  0  0  0  0  0  0  0
    9.3070   -3.5340   24.8780 C   0  0  0  0  0  0  0  0  0  0  0  0
    9.3350   -1.0880   23.5010 C   0  0  0  0  0  0  0  0  0  0  0  0
    9.1357    2.7638   23.4218 C   0  0  0  0  0  0  0  0  0  0  0  0
    5.8300    0.9190   18.6970 C   0  0  0  0  0  0  0  0  0  0  0  0
    7.3170   -0.1610   19.8550 C   0  0  0  0  0  0  0  0  0  0  0  0
    4.6890    1.6810   18.4640 C   0  0  0  0  0  0  0  0  0  0  0  0
    3.9160    2.0630   19.5520 C   0  0  0  0  0  0  0  0  0  0  0  0
    4.2750    1.7050   20.8490 C   0  0  0  0  0  0  0  0  0  0  0  0
    5.4210    0.9600   21.0930 C   0  0  0  0  0  0  0  0  0  0  0  0
    9.0420    0.3700   21.5280 C   0  0  0  0  0  0  0  0  0  0  0  0
    9.2507   -4.8268   25.5895 C   0  0  0  0  0  0  0  0  0  0  0  0
   10.8452    5.5494   21.9318 C   0  0  0  0  0  0  0  0  0  0  0  0
    8.8757    1.3301   23.8233 C   0  0  0  0  0  0  0  0  0  0  0  0
    9.4560    0.1560   22.8130 C   0  0  2  0  0  0  0  0  0  0  0  0
    8.8634    5.0209   23.2001 N   0  0  0  0  0  0  0  0  0  0  0  0
    6.7580    0.3810   17.8350 N   0  0  0  0  0  0  0  0  0  0  0  0
    7.6390   -0.2680   18.5410 N   0  0  0  0  0  0  0  0  0  0  0  0
    9.9903    4.5990   22.6017 N   0  0  0  0  0  0  0  0  0  0  0  0
    6.1790    0.5730   19.9990 N   0  0  0  0  0  0  0  0  0  0  0  0
    8.1890   -0.7180   20.8700 N   0  0  0  0  0  0  0  0  0  0  0  0
    9.2690    1.4140   20.9380 O   0  0  0  0  0  0  0  0  0  0  0  0
    8.6904   -2.3557   26.5808 H   0  0  0  0  0  0  0  0  0  0  0  0
    9.9249   -4.3911   22.9935 H   0  0  0  0  0  0  0  0  0  0  0  0
    8.9209   -0.1987   25.4207 H   0  0  0  0  0  0  0  0  0  0  0  0
   10.0640   -2.2315   21.8255 H   0  0  0  0  0  0  0  0  0  0  0  0
    7.4142    3.9495   24.2451 H   0  0  0  0  0  0  0  0  0  0  0  0
   11.0668    2.7753   22.2725 H   0  0  0  0  0  0  0  0  0  0  0  0
    4.3967    1.9772   17.4718 H   0  0  0  0  0  0  0  0  0  0  0  0
    3.0218    2.6486   19.3697 H   0  0  0  0  0  0  0  0  0  0  0  0
    3.6566    2.0043   21.7065 H   0  0  0  0  0  0  0  0  0  0  0  0
    5.7190    0.6877   22.0810 H   0  0  0  0  0  0  0  0  0  0  0  0
    8.2506   -5.2684   25.5009 H   0  0  0  0  0  0  0  0  0  0  0  0
    9.9820   -5.5375   25.1832 H   0  0  0  0  0  0  0  0  0  0  0  0
    9.4843   -4.7055   26.6554 H   0  0  0  0  0  0  0  0  0  0  0  0
   10.5189    5.6214   20.8909 H   0  0  0  0  0  0  0  0  0  0  0  0
   10.7656    6.5219   22.4255 H   0  0  0  0  0  0  0  0  0  0  0  0
   11.8814    5.2042   21.9858 H   0  0  0  0  0  0  0  0  0  0  0  0
    9.2390    1.1684   24.8466 H   0  0  0  0  0  0  0  0  0  0  0  0
    7.7875    1.1860   23.8742 H   0  0  0  0  0  0  0  0  0  0  0  0
   10.6103    0.4565   22.8881 H   0  0  0  0  0  0  0  0  0  0  0  0
    8.2385   -1.5646   21.0947 H   0  0  0  0  0  0  0  0  0  0  0  0
  1  3  2  0  0  0  0
  1  7  1  0  0  0  0
  2  4  1  0  0  0  0
  2  7  2  0  0  0  0
  3  8  1  0  0  0  0
  4  8  2  0  0  0  0
  5  9  1  0  0  0  0
  5 21  2  0  0  0  0
  6  9  2  0  0  0  0
  6 24  1  0  0  0  0
  7 17  1  0  0  0  0
  8 20  1  0  0  0  0
  9 19  1  0  0  0  0
 10 12  1  0  0  0  0
 10 22  2  0  0  0  0
 10 25  1  0  0  0  0
 11 23  2  0  0  0  0
 11 25  1  0  0  0  0
 11 26  1  0  0  0  0
 12 13  2  0  0  0  0
 13 14  1  0  0  0  0
 14 15  2  0  0  0  0
 15 25  1  0  0  0  0
 16 20  1  0  0  0  0
 16 26  1  0  0  0  0
 16 27  2  0  0  0  0
 18 24  1  0  0  0  0
 19 20  1  6  0  0  0
 21 24  1  0  0  0  0
 22 23  1  0  0  0  0
  1 28  1  0  0  0  0
  2 29  1  0  0  0  0
  3 30  1  0  0  0  0
  4 31  1  0  0  0  0
  5 32  1  0  0  0  0
  6 33  1  0  0  0  0
 12 34  1  0  0  0  0
 13 35  1  0  0  0  0
 14 36  1  0  0  0  0
 15 37  1  0  0  0  0
 17 38  1  0  0  0  0
 17 39  1  0  0  0  0
 17 40  1  0  0  0  0
 18 41  1  0  0  0  0
 18 42  1  0  0  0  0
 18 43  1  0  0  0  0
 19 44  1  0  0  0  0
 19 45  1  0  0  0  0
 20 46  1  0  0  0  0
 26 47  1  0  0  0  0
M  END
> <clash_score>
0.6141453787965501

> <docking_score>
-6.835798263549805

> <overlap_score>
0.7964433431625366

$$$$
BENZO_322_1
  -OEChem-08232013463D

 47 50  0     1  0  0  0  0  0999 V2000
   10.2856    4.3750   23.5656 C   0  0  0  0  0  0  0  0  0  0  0  0
   10.1350    2.9887   23.5349 C   0  0  0  0  0  0  0  0  0  0  0  0
    8.9960   -2.3380   25.5320 C   0  0  0  0  0  0  0  0  0  0  0  0
    9.6730   -3.4710   23.5300 C   0  0  0  0  0  0  0  0  0  0  0  0
    9.0720   -1.1280   24.8640 C   0  0  0  0  0  0  0  0  0  0  0  0
    9.7200   -2.2600   22.8630 C   0  0  0  0  0  0  0  0  0  0  0  0
   11.4735    4.9575   23.1236 C   0  0  0  0  0  0  0  0  0  0  0  0
   12.3603    2.7672   22.6205 C   0  0  0  0  0  0  0  0  0  0  0  0
    9.3070   -3.5340   24.8780 C   0  0  0  0  0  0  0  0  0  0  0  0
    9.3350   -1.0880   23.5010 C   0  0  0  0  0  0  0  0  0  0  0  0
   11.1723    2.1848   23.0624 C   0  0  0  0  0  0  0  0  0  0  0  0
   12.5108    4.1536   22.6511 C   0  0  0  0  0  0  0  0  0  0  0  0
    5.8300    0.9190   18.6970 C   0  0  0  0  0  0  0  0  0  0  0  0
    7.3170   -0.1610   19.8550 C   0  0  0  0  0  0  0  0  0  0  0  0
    4.6890    1.6810   18.4640 C   0  0  0  0  0  0  0  0  0  0  0  0
    3.9160    2.0630   19.5520 C   0  0  0  0  0  0  0  0  0  0  0  0
    4.2750    1.7050   20.8490 C   0  0  0  0  0  0  0  0  0  0  0  0
    5.4210    0.9600   21.0930 C   0  0  0  0  0  0  0  0  0  0  0  0
    9.0420    0.3700   21.5280 C   0  0  0  0  0  0  0  0  0  0  0  0
    9.2507   -4.8268   25.5895 C   0  0  0  0  0  0  0  0  0  0  0  0
   11.0089    0.6825   23.0307 C   0  0  0  0  0  0  0  0  0  0  0  0
    9.4560    0.1560   22.8130 C   0  0  1  0  0  0  0  0  0  0  0  0
    6.7580    0.3810   17.8350 N   0  0  0  0  0  0  0  0  0  0  0  0
    7.6390   -0.2680   18.5410 N   0  0  0  0  0  0  0  0  0  0  0  0
    6.1790    0.5730   19.9990 N   0  0  0  0  0  0  0  0  0  0  0  0
    8.1890   -0.7180   20.8700 N   0  0  0  0  0  0  0  0  0  0  0  0
    9.2690    1.4140   20.9380 O   0  0  0  0  0  0  0  0  0  0  0  0
   13.9766    4.8727   22.1070 Cl  0  0  0  0  0  0  0  0  0  0  0  0
    9.4776    5.0007   23.9337 H   0  0  0  0  0  0  0  0  0  0  0  0
    9.2060    2.5434   23.8814 H   0  0  0  0  0  0  0  0  0  0  0  0
    8.6904   -2.3557   26.5808 H   0  0  0  0  0  0  0  0  0  0  0  0
    9.9249   -4.3911   22.9935 H   0  0  0  0  0  0  0  0  0  0  0  0
    8.9209   -0.1987   25.4207 H   0  0  0  0  0  0  0  0  0  0  0  0
   10.0640   -2.2315   21.8255 H   0  0  0  0  0  0  0  0  0  0  0  0
   11.5769    6.0394   23.1535 H   0  0  0  0  0  0  0  0  0  0  0  0
   13.1659    2.1361   22.2525 H   0  0  0  0  0  0  0  0  0  0  0  0
    4.3967    1.9772   17.4718 H   0  0  0  0  0  0  0  0  0  0  0  0
    3.0218    2.6486   19.3697 H   0  0  0  0  0  0  0  0  0  0  0  0
    3.6566    2.0043   21.7065 H   0  0  0  0  0  0  0  0  0  0  0  0
    5.7190    0.6877   22.0810 H   0  0  0  0  0  0  0  0  0  0  0  0
    8.2506   -5.2684   25.5009 H   0  0  0  0  0  0  0  0  0  0  0  0
    9.9820   -5.5375   25.1832 H   0  0  0  0  0  0  0  0  0  0  0  0
    9.4843   -4.7055   26.6554 H   0  0  0  0  0  0  0  0  0  0  0  0
   11.6011    0.2707   22.2030 H   0  0  0  0  0  0  0  0  0  0  0  0
   11.4624    0.2744   23.9446 H   0  0  0  0  0  0  0  0  0  0  0  0
    8.9284    0.9668   23.5149 H   0  0  0  0  0  0  0  0  0  0  0  0
    8.2385   -1.5646   21.0947 H   0  0  0  0  0  0  0  0  0  0  0  0
  1  2  2  0  0  0  0
  1  7  1  0  0  0  0
  2 11  1  0  0  0  0
  3  5  2  0  0  0  0
  3  9  1  0  0  0  0
  4  6  1  0  0  0  0
  4  9  2  0  0  0  0
  5 10  1  0  0  0  0
  6 10  2  0  0  0  0
  7 12  2  0  0  0  0
  8 11  2  0  0  0  0
  8 12  1  0  0  0  0
  9 20  1  0  0  0  0
 10 22  1  0  0  0  0
 11 21  1  0  0  0  0
 12 28  1  0  0  0  0
 13 15  1  0  0  0  0
 13 23  2  0  0  0  0
 13 25  1  0  0  0  0
 14 24  2  0  0  0  0
 14 25  1  0  0  0  0
 14 26  1  0  0  0  0
 15 16  2  0  0  0  0
 16 17  1  0  0  0  0
 17 18  2  0  0  0  0
 18 25  1  0  0  0  0
 19 22  1  0  0  0  0
 19 26  1  0  0  0  0
 19 27  2  0  0  0  0
 21 22  1  1  0  0  0
 23 24  1  0  0  0  0
  1 29  1  0  0  0  0
  2 30  1  0  0  0  0
  3 31  1  0  0  0  0
  4 32  1  0  0  0  0
  5 33  1  0  0  0  0
  6 34  1  0  0  0  0
  7 35  1  0  0  0  0
  8 36  1  0  0  0  0
 15 37  1  0  0  0  0
 16 38  1  0  0  0  0
 17 39  1  0  0  0  0
 18 40  1  0  0  0  0
 20 41  1  0  0  0  0
 20 42  1  0  0  0  0
 20 43  1  0  0  0  0
 21 44  1  0  0  0  0
 21 45  1  0  0  0  0
 22 46  1  0  0  0  0
 26 47  1  0  0  0  0
M  END
> <clash_score>
0

> <docking_score>
-11.110182762145996

> <overlap_score>
0.8907982110977173

$$$$
BENZO_322_2
  -OEChem-08232013463D

 47 50  0     1  0  0  0  0  0999 V2000
    8.4741    5.0874   23.4171 C   0  0  0  0  0  0  0  0  0  0  0  0
    8.2342    3.7639   23.7862 C   0  0  0  0  0  0  0  0  0  0  0  0
    8.9960   -2.3380   25.5320 C   0  0  0  0  0  0  0  0  0  0  0  0
    9.6730   -3.4710   23.5300 C   0  0  0  0  0  0  0  0  0  0  0  0
    9.0720   -1.1280   24.8640 C   0  0  0  0  0  0  0  0  0  0  0  0
    9.7200   -2.2600   22.8630 C   0  0  0  0  0  0  0  0  0  0  0  0
    9.6155    5.4109   22.6835 C   0  0  0  0  0  0  0  0  0  0  0  0
   10.2772    3.0873   22.6883 C   0  0  0  0  0  0  0  0  0  0  0  0
    9.3070   -3.5340   24.8780 C   0  0  0  0  0  0  0  0  0  0  0  0
    9.3350   -1.0880   23.5010 C   0  0  0  0  0  0  0  0  0  0  0  0
    9.1357    2.7638   23.4219 C   0  0  0  0  0  0  0  0  0  0  0  0
   10.5171    4.4109   22.3191 C   0  0  0  0  0  0  0  0  0  0  0  0
    5.8300    0.9190   18.6970 C   0  0  0  0  0  0  0  0  0  0  0  0
    7.3170   -0.1610   19.8550 C   0  0  0  0  0  0  0  0  0  0  0  0
    4.6890    1.6810   18.4640 C   0  0  0  0  0  0  0  0  0  0  0  0
    3.9160    2.0630   19.5520 C   0  0  0  0  0  0  0  0  0  0  0  0
    4.2750    1.7050   20.8490 C   0  0  0  0  0  0  0  0  0  0  0  0
    5.4210    0.9600   21.0930 C   0  0  0  0  0  0  0  0  0  0  0  0
    9.0420    0.3700   21.5280 C   0  0  0  0  0  0  0  0  0  0  0  0
    9.2507   -4.8268   25.5895 C   0  0  0  0  0  0  0  0  0  0  0  0
    8.8757    1.3301   23.8233 C   0  0  0  0  0  0  0  0  0  0  0  0
    9.4560    0.1560   22.8130 C   0  0  2  0  0  0  0  0  0  0  0  0
    6.7580    0.3810   17.8350 N   0  0  0  0  0  0  0  0  0  0  0  0
    7.6390   -0.2680   18.5410 N   0  0  0  0  0  0  0  0  0  0  0  0
    6.1790    0.5730   19.9990 N   0  0  0  0  0  0  0  0  0  0  0  0
    8.1890   -0.7180   20.8700 N   0  0  0  0  0  0  0  0  0  0  0  0
    9.2690    1.4140   20.9380 O   0  0  0  0  0  0  0  0  0  0  0  0
   11.9257    4.8108   21.4150 Cl  0  0  0  0  0  0  0  0  0  0  0  0
    7.7719    5.8659   23.7012 H   0  0  0  0  0  0  0  0  0  0  0  0
    7.3423    3.5209   24.3579 H   0  0  0  0  0  0  0  0  0  0  0  0
    8.6904   -2.3557   26.5808 H   0  0  0  0  0  0  0  0  0  0  0  0
    9.9249   -4.3911   22.9935 H   0  0  0  0  0  0  0  0  0  0  0  0
    8.9209   -0.1987   25.4207 H   0  0  0  0  0  0  0  0  0  0  0  0
   10.0640   -2.2315   21.8255 H   0  0  0  0  0  0  0  0  0  0  0  0
    9.7898    6.4468   22.4029 H   0  0  0  0  0  0  0  0  0  0  0  0
   10.9768    2.3039   22.4061 H   0  0  0  0  0  0  0  0  0  0  0  0
    4.3967    1.9772   17.4718 H   0  0  0  0  0  0  0  0  0  0  0  0
    3.0218    2.6486   19.3697 H   0  0  0  0  0  0  0  0  0  0  0  0
    3.6566    2.0043   21.7065 H   0  0  0  0  0  0  0  0  0  0  0  0
    5.7190    0.6877   22.0810 H   0  0  0  0  0  0  0  0  0  0  0  0
    8.2506   -5.2684   25.5009 H   0  0  0  0  0  0  0  0  0  0  0  0
    9.9820   -5.5375   25.1832 H   0  0  0  0  0  0  0  0  0  0  0  0
    9.4843   -4.7055   26.6554 H   0  0  0  0  0  0  0  0  0  0  0  0
    9.2390    1.1684   24.8466 H   0  0  0  0  0  0  0  0  0  0  0  0
    7.7875    1.1860   23.8742 H   0  0  0  0  0  0  0  0  0  0  0  0
   10.6103    0.4565   22.8881 H   0  0  0  0  0  0  0  0  0  0  0  0
    8.2385   -1.5646   21.0947 H   0  0  0  0  0  0  0  0  0  0  0  0
  1  2  2  0  0  0  0
  1  7  1  0  0  0  0
  2 11  1  0  0  0  0
  3  5  2  0  0  0  0
  3  9  1  0  0  0  0
  4  6  1  0  0  0  0
  4  9  2  0  0  0  0
  5 10  1  0  0  0  0
  6 10  2  0  0  0  0
  7 12  2  0  0  0  0
  8 11  2  0  0  0  0
  8 12  1  0  0  0  0
  9 20  1  0  0  0  0
 10 22  1  0  0  0  0
 11 21  1  0  0  0  0
 12 28  1  0  0  0  0
 13 15  1  0  0  0  0
 13 23  2  0  0  0  0
 13 25  1  0  0  0  0
 14 24  2  0  0  0  0
 14 25  1  0  0  0  0
 14 26  1  0  0  0  0
 15 16  2  0  0  0  0
 16 17  1  0  0  0  0
 17 18  2  0  0  0  0
 18 25  1  0  0  0  0
 19 22  1  0  0  0  0
 19 26  1  0  0  0  0
 19 27  2  0  0  0  0
 21 22  1  6  0  0  0
 23 24  1  0  0  0  0
  1 29  1  0  0  0  0
  2 30  1  0  0  0  0
  3 31  1  0  0  0  0
  4 32  1  0  0  0  0
  5 33  1  0  0  0  0
  6 34  1  0  0  0  0
  7 35  1  0  0  0  0
  8 36  1  0  0  0  0
 15 37  1  0  0  0  0
 16 38  1  0  0  0  0
 17 39  1  0  0  0  0
 18 40  1  0  0  0  0
 20 41  1  0  0  0  0
 20 42  1  0  0  0  0
 20 43  1  0  0  0  0
 21 44  1  0  0  0  0
 21 45  1  0  0  0  0
 22 46  1  0  0  0  0
 26 47  1  0  0  0  0
M  END
> <clash_score>
0

> <docking_score>
-6.555521011352539

> <overlap_score>
0.8013743758201599

$$$$
BENZO_324_1
  -OEChem-08232013463D

 45 48  0     1  0  0  0  0  0999 V2000
    9.0720   -1.1280   24.8640 C   0  0  0  0  0  0  0  0  0  0  0  0
    9.7200   -2.2600   22.8630 C   0  0  0  0  0  0  0  0  0  0  0  0
    8.9960   -2.3380   25.5320 C   0  0  0  0  0  0  0  0  0  0  0  0
    9.6730   -3.4710   23.5300 C   0  0  0  0  0  0  0  0  0  0  0  0
   11.9789    2.9159   22.1431 C   0  0  0  0  0  0  0  0  0  0  0  0
   11.9531    4.2698   22.3953 C   0  0  0  0  0  0  0  0  0  0  0  0
   10.5610    3.0079   23.9825 C   0  0  0  0  0  0  0  0  0  0  0  0
    9.3350   -1.0880   23.5010 C   0  0  0  0  0  0  0  0  0  0  0  0
   11.1723    2.1848   23.0624 C   0  0  0  0  0  0  0  0  0  0  0  0
    9.3070   -3.5340   24.8780 C   0  0  0  0  0  0  0  0  0  0  0  0
    5.8300    0.9190   18.6970 C   0  0  0  0  0  0  0  0  0  0  0  0
    7.3170   -0.1610   19.8550 C   0  0  0  0  0  0  0  0  0  0  0  0
    4.6890    1.6810   18.4640 C   0  0  0  0  0  0  0  0  0  0  0  0
    3.9160    2.0630   19.5520 C   0  0  0  0  0  0  0  0  0  0  0  0
    4.2750    1.7050   20.8490 C   0  0  0  0  0  0  0  0  0  0  0  0
    5.4210    0.9600   21.0930 C   0  0  0  0  0  0  0  0  0  0  0  0
    9.0420    0.3700   21.5280 C   0  0  0  0  0  0  0  0  0  0  0  0
    9.5904   -5.8808   24.7806 C   0  0  0  0  0  0  0  0  0  0  0  0
   11.0089    0.6825   23.0307 C   0  0  0  0  0  0  0  0  0  0  0  0
    9.4560    0.1560   22.8130 C   0  0  1  0  0  0  0  0  0  0  0  0
    6.7580    0.3810   17.8350 N   0  0  0  0  0  0  0  0  0  0  0  0
    7.6390   -0.2680   18.5410 N   0  0  0  0  0  0  0  0  0  0  0  0
    6.1790    0.5730   19.9990 N   0  0  0  0  0  0  0  0  0  0  0  0
    8.1890   -0.7180   20.8700 N   0  0  0  0  0  0  0  0  0  0  0  0
    9.2690    1.4140   20.9380 O   0  0  0  0  0  0  0  0  0  0  0  0
    9.2567   -4.7121   25.5280 O   0  0  0  0  0  0  0  0  0  0  0  0
   10.9597    4.6549   23.7359 S   0  0  0  0  0  0  0  0  0  0  0  0
    8.9224   -0.1986   25.4209 H   0  0  0  0  0  0  0  0  0  0  0  0
   10.0638   -2.2321   21.8253 H   0  0  0  0  0  0  0  0  0  0  0  0
    8.6903   -2.3588   26.5807 H   0  0  0  0  0  0  0  0  0  0  0  0
    9.9258   -4.3917   22.9962 H   0  0  0  0  0  0  0  0  0  0  0  0
   12.5509    2.4750   21.3365 H   0  0  0  0  0  0  0  0  0  0  0  0
   12.4707    5.0513   21.8570 H   0  0  0  0  0  0  0  0  0  0  0  0
    9.8997    2.7250   24.7898 H   0  0  0  0  0  0  0  0  0  0  0  0
    4.3967    1.9772   17.4718 H   0  0  0  0  0  0  0  0  0  0  0  0
    3.0218    2.6486   19.3697 H   0  0  0  0  0  0  0  0  0  0  0  0
    3.6566    2.0043   21.7065 H   0  0  0  0  0  0  0  0  0  0  0  0
    5.7190    0.6877   22.0810 H   0  0  0  0  0  0  0  0  0  0  0  0
    9.5095   -6.7607   25.4235 H   0  0  0  0  0  0  0  0  0  0  0  0
   10.6094   -5.7898   24.3961 H   0  0  0  0  0  0  0  0  0  0  0  0
    8.8947   -5.9784   23.9439 H   0  0  0  0  0  0  0  0  0  0  0  0
   11.6011    0.2707   22.2030 H   0  0  0  0  0  0  0  0  0  0  0  0
   11.4624    0.2744   23.9446 H   0  0  0  0  0  0  0  0  0  0  0  0
    8.9284    0.9668   23.5149 H   0  0  0  0  0  0  0  0  0  0  0  0
    8.2385   -1.5646   21.0947 H   0  0  0  0  0  0  0  0  0  0  0  0
  1  3  2  0  0  0  0
  1  8  1  0  0  0  0
  2  4  1  0  0  0  0
  2  8  2  0  0  0  0
  3 10  1  0  0  0  0
  4 10  2  0  0  0  0
  5  6  2  0  0  0  0
  5  9  1  0  0  0  0
  6 27  1  0  0  0  0
  7  9  2  0  0  0  0
  7 27  1  0  0  0  0
  8 20  1  0  0  0  0
  9 19  1  0  0  0  0
 10 26  1  0  0  0  0
 11 13  1  0  0  0  0
 11 21  2  0  0  0  0
 11 23  1  0  0  0  0
 12 22  2  0  0  0  0
 12 23  1  0  0  0  0
 12 24  1  0  0  0  0
 13 14  2  0  0  0  0
 14 15  1  0  0  0  0
 15 16  2  0  0  0  0
 16 23  1  0  0  0  0
 17 20  1  0  0  0  0
 17 24  1  0  0  0  0
 17 25  2  0  0  0  0
 18 26  1  0  0  0  0
 19 20  1  1  0  0  0
 21 22  1  0  0  0  0
  1 28  1  0  0  0  0
  2 29  1  0  0  0  0
  3 30  1  0  0  0  0
  4 31  1  0  0  0  0
  5 32  1  0  0  0  0
  6 33  1  0  0  0  0
  7 34  1  0  0  0  0
 13 35  1  0  0  0  0
 14 36  1  0  0  0  0
 15 37  1  0  0  0  0
 16 38  1  0  0  0  0
 18 39  1  0  0  0  0
 18 40  1  0  0  0  0
 18 41  1  0  0  0  0
 19 42  1  0  0  0  0
 19 43  1  0  0  0  0
 20 44  1  0  0  0  0
 24 45  1  0  0  0  0
M  END
> <clash_score>
0

> <docking_score>
-9.415306091308594

> <overlap_score>
0.9019697904586792

$$$$
BENZO_325_2
  -OEChem-08232013463D

 48 51  0     1  0  0  0  0  0999 V2000
    9.6170    5.4099   22.6808 C   0  0  0  0  0  0  0  0  0  0  0  0
    8.4752    5.0878   23.4143 C   0  0  0  0  0  0  0  0  0  0  0  0
   10.5182    4.4090   22.3177 C   0  0  0  0  0  0  0  0  0  0  0  0
    8.2345    3.7648   23.7849 C   0  0  0  0  0  0  0  0  0  0  0  0
   10.2775    3.0860   22.6883 C   0  0  0  0  0  0  0  0  0  0  0  0
    9.0720   -1.1280   24.8640 C   0  0  0  0  0  0  0  0  0  0  0  0
    9.7200   -2.2600   22.8630 C   0  0  0  0  0  0  0  0  0  0  0  0
    8.9960   -2.3380   25.5320 C   0  0  0  0  0  0  0  0  0  0  0  0
    9.6730   -3.4710   23.5300 C   0  0  0  0  0  0  0  0  0  0  0  0
    9.1357    2.7638   23.4218 C   0  0  0  0  0  0  0  0  0  0  0  0
    9.3350   -1.0880   23.5010 C   0  0  0  0  0  0  0  0  0  0  0  0
    9.3070   -3.5340   24.8780 C   0  0  0  0  0  0  0  0  0  0  0  0
    5.8300    0.9190   18.6970 C   0  0  0  0  0  0  0  0  0  0  0  0
    7.3170   -0.1610   19.8550 C   0  0  0  0  0  0  0  0  0  0  0  0
    4.6890    1.6810   18.4640 C   0  0  0  0  0  0  0  0  0  0  0  0
    3.9160    2.0630   19.5520 C   0  0  0  0  0  0  0  0  0  0  0  0
    4.2750    1.7050   20.8490 C   0  0  0  0  0  0  0  0  0  0  0  0
    5.4210    0.9600   21.0930 C   0  0  0  0  0  0  0  0  0  0  0  0
    9.0420    0.3700   21.5280 C   0  0  0  0  0  0  0  0  0  0  0  0
    9.5904   -5.8808   24.7806 C   0  0  0  0  0  0  0  0  0  0  0  0
    8.8757    1.3301   23.8233 C   0  0  0  0  0  0  0  0  0  0  0  0
    9.4560    0.1560   22.8130 C   0  0  2  0  0  0  0  0  0  0  0  0
    6.7580    0.3810   17.8350 N   0  0  0  0  0  0  0  0  0  0  0  0
    7.6390   -0.2680   18.5410 N   0  0  0  0  0  0  0  0  0  0  0  0
    6.1790    0.5730   19.9990 N   0  0  0  0  0  0  0  0  0  0  0  0
    8.1890   -0.7180   20.8700 N   0  0  0  0  0  0  0  0  0  0  0  0
    9.2690    1.4140   20.9380 O   0  0  0  0  0  0  0  0  0  0  0  0
    9.2567   -4.7121   25.5280 O   0  0  0  0  0  0  0  0  0  0  0  0
    9.8035    6.4400   22.3912 H   0  0  0  0  0  0  0  0  0  0  0  0
    7.7728    5.8668   23.6961 H   0  0  0  0  0  0  0  0  0  0  0  0
   11.4067    4.6593   21.7457 H   0  0  0  0  0  0  0  0  0  0  0  0
    7.3424    3.5231   24.3565 H   0  0  0  0  0  0  0  0  0  0  0  0
   10.9853    2.3128   22.4011 H   0  0  0  0  0  0  0  0  0  0  0  0
    8.9224   -0.1986   25.4209 H   0  0  0  0  0  0  0  0  0  0  0  0
   10.0638   -2.2321   21.8253 H   0  0  0  0  0  0  0  0  0  0  0  0
    8.6903   -2.3588   26.5807 H   0  0  0  0  0  0  0  0  0  0  0  0
    9.9258   -4.3917   22.9962 H   0  0  0  0  0  0  0  0  0  0  0  0
    4.3967    1.9772   17.4718 H   0  0  0  0  0  0  0  0  0  0  0  0
    3.0218    2.6486   19.3697 H   0  0  0  0  0  0  0  0  0  0  0  0
    3.6566    2.0043   21.7065 H   0  0  0  0  0  0  0  0  0  0  0  0
    5.7190    0.6877   22.0810 H   0  0  0  0  0  0  0  0  0  0  0  0
    9.5095   -6.7607   25.4235 H   0  0  0  0  0  0  0  0  0  0  0  0
   10.6094   -5.7898   24.3961 H   0  0  0  0  0  0  0  0  0  0  0  0
    8.8947   -5.9784   23.9439 H   0  0  0  0  0  0  0  0  0  0  0  0
    9.2390    1.1684   24.8466 H   0  0  0  0  0  0  0  0  0  0  0  0
    7.7875    1.1860   23.8742 H   0  0  0  0  0  0  0  0  0  0  0  0
   10.6103    0.4565   22.8881 H   0  0  0  0  0  0  0  0  0  0  0  0
    8.2385   -1.5646   21.0947 H   0  0  0  0  0  0  0  0  0  0  0  0
  1  2  1  0  0  0  0
  1  3  2  0  0  0  0
  2  4  2  0  0  0  0
  3  5  1  0  0  0  0
  4 10  1  0  0  0  0
  5 10  2  0  0  0  0
  6  8  2  0  0  0  0
  6 11  1  0  0  0  0
  7  9  1  0  0  0  0
  7 11  2  0  0  0  0
  8 12  1  0  0  0  0
  9 12  2  0  0  0  0
 10 21  1  0  0  0  0
 11 22  1  0  0  0  0
 12 28  1  0  0  0  0
 13 15  1  0  0  0  0
 13 23  2  0  0  0  0
 13 25  1  0  0  0  0
 14 24  2  0  0  0  0
 14 25  1  0  0  0  0
 14 26  1  0  0  0  0
 15 16  2  0  0  0  0
 16 17  1  0  0  0  0
 17 18  2  0  0  0  0
 18 25  1  0  0  0  0
 19 22  1  0  0  0  0
 19 26  1  0  0  0  0
 19 27  2  0  0  0  0
 20 28  1  0  0  0  0
 21 22  1  6  0  0  0
 23 24  1  0  0  0  0
  1 29  1  0  0  0  0
  2 30  1  0  0  0  0
  3 31  1  0  0  0  0
  4 32  1  0  0  0  0
  5 33  1  0  0  0  0
  6 34  1  0  0  0  0
  7 35  1  0  0  0  0
  8 36  1  0  0  0  0
  9 37  1  0  0  0  0
 15 38  1  0  0  0  0
 16 39  1  0  0  0  0
 17 40  1  0  0  0  0
 18 41  1  0  0  0  0
 20 42  1  0  0  0  0
 20 43  1  0  0  0  0
 20 44  1  0  0  0  0
 21 45  1  0  0  0  0
 21 46  1  0  0  0  0
 22 47  1  0  0  0  0
 26 48  1  0  0  0  0
M  END
> <clash_score>
0

> <docking_score>
-6.909267425537109

> <overlap_score>
0.8256528973579407

$$$$
BENZO_324_2
  -OEChem-08232013463D

 45 48  0     1  0  0  0  0  0999 V2000
    9.0720   -1.1280   24.8640 C   0  0  0  0  0  0  0  0  0  0  0  0
    9.7200   -2.2600   22.8630 C   0  0  0  0  0  0  0  0  0  0  0  0
    8.9960   -2.3380   25.5320 C   0  0  0  0  0  0  0  0  0  0  0  0
    9.6730   -3.4710   23.5300 C   0  0  0  0  0  0  0  0  0  0  0  0
   10.3314    3.2065   22.7858 C   0  0  0  0  0  0  0  0  0  0  0  0
   10.3108    4.5599   22.5298 C   0  0  0  0  0  0  0  0  0  0  0  0
    8.2468    3.7959   23.6280 C   0  0  0  0  0  0  0  0  0  0  0  0
    9.3350   -1.0880   23.5010 C   0  0  0  0  0  0  0  0  0  0  0  0
    9.1357    2.7638   23.4218 C   0  0  0  0  0  0  0  0  0  0  0  0
    9.3070   -3.5340   24.8780 C   0  0  0  0  0  0  0  0  0  0  0  0
    5.8300    0.9190   18.6970 C   0  0  0  0  0  0  0  0  0  0  0  0
    7.3170   -0.1610   19.8550 C   0  0  0  0  0  0  0  0  0  0  0  0
    4.6890    1.6810   18.4640 C   0  0  0  0  0  0  0  0  0  0  0  0
    3.9160    2.0630   19.5520 C   0  0  0  0  0  0  0  0  0  0  0  0
    4.2750    1.7050   20.8490 C   0  0  0  0  0  0  0  0  0  0  0  0
    5.4210    0.9600   21.0930 C   0  0  0  0  0  0  0  0  0  0  0  0
    9.0420    0.3700   21.5280 C   0  0  0  0  0  0  0  0  0  0  0  0
    9.5904   -5.8808   24.7806 C   0  0  0  0  0  0  0  0  0  0  0  0
    8.8757    1.3301   23.8233 C   0  0  0  0  0  0  0  0  0  0  0  0
    9.4560    0.1560   22.8130 C   0  0  2  0  0  0  0  0  0  0  0  0
    6.7580    0.3810   17.8350 N   0  0  0  0  0  0  0  0  0  0  0  0
    7.6390   -0.2680   18.5410 N   0  0  0  0  0  0  0  0  0  0  0  0
    6.1790    0.5730   19.9990 N   0  0  0  0  0  0  0  0  0  0  0  0
    8.1890   -0.7180   20.8700 N   0  0  0  0  0  0  0  0  0  0  0  0
    9.2690    1.4140   20.9380 O   0  0  0  0  0  0  0  0  0  0  0  0
    9.2567   -4.7121   25.5280 O   0  0  0  0  0  0  0  0  0  0  0  0
    8.8543    5.2911   23.0556 S   0  0  0  0  0  0  0  0  0  0  0  0
    8.9224   -0.1986   25.4209 H   0  0  0  0  0  0  0  0  0  0  0  0
   10.0638   -2.2321   21.8253 H   0  0  0  0  0  0  0  0  0  0  0  0
    8.6903   -2.3588   26.5807 H   0  0  0  0  0  0  0  0  0  0  0  0
    9.9258   -4.3917   22.9962 H   0  0  0  0  0  0  0  0  0  0  0  0
   11.1669    2.5681   22.5277 H   0  0  0  0  0  0  0  0  0  0  0  0
   11.0815    5.1544   22.0599 H   0  0  0  0  0  0  0  0  0  0  0  0
    7.2694    3.7480   24.0879 H   0  0  0  0  0  0  0  0  0  0  0  0
    4.3967    1.9772   17.4718 H   0  0  0  0  0  0  0  0  0  0  0  0
    3.0218    2.6486   19.3697 H   0  0  0  0  0  0  0  0  0  0  0  0
    3.6566    2.0043   21.7065 H   0  0  0  0  0  0  0  0  0  0  0  0
    5.7190    0.6877   22.0810 H   0  0  0  0  0  0  0  0  0  0  0  0
    9.5095   -6.7607   25.4235 H   0  0  0  0  0  0  0  0  0  0  0  0
   10.6094   -5.7898   24.3961 H   0  0  0  0  0  0  0  0  0  0  0  0
    8.8947   -5.9784   23.9439 H   0  0  0  0  0  0  0  0  0  0  0  0
    9.2390    1.1684   24.8466 H   0  0  0  0  0  0  0  0  0  0  0  0
    7.7875    1.1860   23.8742 H   0  0  0  0  0  0  0  0  0  0  0  0
   10.6103    0.4565   22.8881 H   0  0  0  0  0  0  0  0  0  0  0  0
    8.2385   -1.5646   21.0947 H   0  0  0  0  0  0  0  0  0  0  0  0
  1  3  2  0  0  0  0
  1  8  1  0  0  0  0
  2  4  1  0  0  0  0
  2  8  2  0  0  0  0
  3 10  1  0  0  0  0
  4 10  2  0  0  0  0
  5  6  2  0  0  0  0
  5  9  1  0  0  0  0
  6 27  1  0  0  0  0
  7  9  2  0  0  0  0
  7 27  1  0  0  0  0
  8 20  1  0  0  0  0
  9 19  1  0  0  0  0
 10 26  1  0  0  0  0
 11 13  1  0  0  0  0
 11 21  2  0  0  0  0
 11 23  1  0  0  0  0
 12 22  2  0  0  0  0
 12 23  1  0  0  0  0
 12 24  1  0  0  0  0
 13 14  2  0  0  0  0
 14 15  1  0  0  0  0
 15 16  2  0  0  0  0
 16 23  1  0  0  0  0
 17 20  1  0  0  0  0
 17 24  1  0  0  0  0
 17 25  2  0  0  0  0
 18 26  1  0  0  0  0
 19 20  1  6  0  0  0
 21 22  1  0  0  0  0
  1 28  1  0  0  0  0
  2 29  1  0  0  0  0
  3 30  1  0  0  0  0
  4 31  1  0  0  0  0
  5 32  1  0  0  0  0
  6 33  1  0  0  0  0
  7 34  1  0  0  0  0
 13 35  1  0  0  0  0
 14 36  1  0  0  0  0
 15 37  1  0  0  0  0
 16 38  1  0  0  0  0
 18 39  1  0  0  0  0
 18 40  1  0  0  0  0
 18 41  1  0  0  0  0
 19 42  1  0  0  0  0
 19 43  1  0  0  0  0
 20 44  1  0  0  0  0
 24 45  1  0  0  0  0
M  END
> <clash_score>
0

> <docking_score>
-7.296375274658203

> <overlap_score>
0.8258880972862244

$$$$
BENZO_325_1
  -OEChem-08232013463D

 48 51  0     1  0  0  0  0  0999 V2000
   11.4726    4.9577   23.1210 C   0  0  0  0  0  0  0  0  0  0  0  0
   12.5103    4.1537   22.6496 C   0  0  0  0  0  0  0  0  0  0  0  0
   10.2847    4.3753   23.5633 C   0  0  0  0  0  0  0  0  0  0  0  0
   12.3602    2.7672   22.6203 C   0  0  0  0  0  0  0  0  0  0  0  0
   10.1346    2.9888   23.5339 C   0  0  0  0  0  0  0  0  0  0  0  0
    9.0720   -1.1280   24.8640 C   0  0  0  0  0  0  0  0  0  0  0  0
    9.7200   -2.2600   22.8630 C   0  0  0  0  0  0  0  0  0  0  0  0
    8.9960   -2.3380   25.5320 C   0  0  0  0  0  0  0  0  0  0  0  0
    9.6730   -3.4710   23.5300 C   0  0  0  0  0  0  0  0  0  0  0  0
   11.1723    2.1848   23.0624 C   0  0  0  0  0  0  0  0  0  0  0  0
    9.3350   -1.0880   23.5010 C   0  0  0  0  0  0  0  0  0  0  0  0
    9.3070   -3.5340   24.8780 C   0  0  0  0  0  0  0  0  0  0  0  0
    5.8300    0.9190   18.6970 C   0  0  0  0  0  0  0  0  0  0  0  0
    7.3170   -0.1610   19.8550 C   0  0  0  0  0  0  0  0  0  0  0  0
    4.6890    1.6810   18.4640 C   0  0  0  0  0  0  0  0  0  0  0  0
    3.9160    2.0630   19.5520 C   0  0  0  0  0  0  0  0  0  0  0  0
    4.2750    1.7050   20.8490 C   0  0  0  0  0  0  0  0  0  0  0  0
    5.4210    0.9600   21.0930 C   0  0  0  0  0  0  0  0  0  0  0  0
    9.0420    0.3700   21.5280 C   0  0  0  0  0  0  0  0  0  0  0  0
    8.8744   -4.6797   26.9022 C   0  0  0  0  0  0  0  0  0  0  0  0
   11.0089    0.6825   23.0307 C   0  0  0  0  0  0  0  0  0  0  0  0
    9.4560    0.1560   22.8130 C   0  0  1  0  0  0  0  0  0  0  0  0
    6.7580    0.3810   17.8350 N   0  0  0  0  0  0  0  0  0  0  0  0
    7.6390   -0.2680   18.5410 N   0  0  0  0  0  0  0  0  0  0  0  0
    6.1790    0.5730   19.9990 N   0  0  0  0  0  0  0  0  0  0  0  0
    8.1890   -0.7180   20.8700 N   0  0  0  0  0  0  0  0  0  0  0  0
    9.2690    1.4140   20.9380 O   0  0  0  0  0  0  0  0  0  0  0  0
    9.2567   -4.7121   25.5280 O   0  0  0  0  0  0  0  0  0  0  0  0
   11.5901    6.0371   23.1451 H   0  0  0  0  0  0  0  0  0  0  0  0
   13.4357    4.6069   22.3063 H   0  0  0  0  0  0  0  0  0  0  0  0
    9.4770    5.0009   23.9314 H   0  0  0  0  0  0  0  0  0  0  0  0
   13.1740    2.1486   22.2511 H   0  0  0  0  0  0  0  0  0  0  0  0
    9.2056    2.5438   23.8803 H   0  0  0  0  0  0  0  0  0  0  0  0
    8.9224   -0.1986   25.4209 H   0  0  0  0  0  0  0  0  0  0  0  0
   10.0638   -2.2321   21.8253 H   0  0  0  0  0  0  0  0  0  0  0  0
    8.6903   -2.3588   26.5807 H   0  0  0  0  0  0  0  0  0  0  0  0
    9.9258   -4.3917   22.9962 H   0  0  0  0  0  0  0  0  0  0  0  0
    4.3967    1.9772   17.4718 H   0  0  0  0  0  0  0  0  0  0  0  0
    3.0218    2.6486   19.3697 H   0  0  0  0  0  0  0  0  0  0  0  0
    3.6566    2.0043   21.7065 H   0  0  0  0  0  0  0  0  0  0  0  0
    5.7190    0.6877   22.0810 H   0  0  0  0  0  0  0  0  0  0  0  0
    8.8744   -5.6954   27.3053 H   0  0  0  0  0  0  0  0  0  0  0  0
    7.8781   -4.2399   26.9939 H   0  0  0  0  0  0  0  0  0  0  0  0
    9.5921   -4.0702   27.4565 H   0  0  0  0  0  0  0  0  0  0  0  0
   11.6011    0.2707   22.2030 H   0  0  0  0  0  0  0  0  0  0  0  0
   11.4624    0.2744   23.9447 H   0  0  0  0  0  0  0  0  0  0  0  0
    8.9284    0.9668   23.5149 H   0  0  0  0  0  0  0  0  0  0  0  0
    8.2385   -1.5646   21.0947 H   0  0  0  0  0  0  0  0  0  0  0  0
  1  2  1  0  0  0  0
  1  3  2  0  0  0  0
  2  4  2  0  0  0  0
  3  5  1  0  0  0  0
  4 10  1  0  0  0  0
  5 10  2  0  0  0  0
  6  8  2  0  0  0  0
  6 11  1  0  0  0  0
  7  9  1  0  0  0  0
  7 11  2  0  0  0  0
  8 12  1  0  0  0  0
  9 12  2  0  0  0  0
 10 21  1  0  0  0  0
 11 22  1  0  0  0  0
 12 28  1  0  0  0  0
 13 15  1  0  0  0  0
 13 23  2  0  0  0  0
 13 25  1  0  0  0  0
 14 24  2  0  0  0  0
 14 25  1  0  0  0  0
 14 26  1  0  0  0  0
 15 16  2  0  0  0  0
 16 17  1  0  0  0  0
 17 18  2  0  0  0  0
 18 25  1  0  0  0  0
 19 22  1  0  0  0  0
 19 26  1  0  0  0  0
 19 27  2  0  0  0  0
 20 28  1  0  0  0  0
 21 22  1  1  0  0  0
 23 24  1  0  0  0  0
  1 29  1  0  0  0  0
  2 30  1  0  0  0  0
  3 31  1  0  0  0  0
  4 32  1  0  0  0  0
  5 33  1  0  0  0  0
  6 34  1  0  0  0  0
  7 35  1  0  0  0  0
  8 36  1  0  0  0  0
  9 37  1  0  0  0  0
 15 38  1  0  0  0  0
 16 39  1  0  0  0  0
 17 40  1  0  0  0  0
 18 41  1  0  0  0  0
 20 42  1  0  0  0  0
 20 43  1  0  0  0  0
 20 44  1  0  0  0  0
 21 45  1  0  0  0  0
 21 46  1  0  0  0  0
 22 47  1  0  0  0  0
 26 48  1  0  0  0  0
M  END
> <clash_score>
0

> <docking_score>
-10.401103019714355

> <overlap_score>
0.9121971726417542

$$$$
BENZO_327_1
  -OEChem-08232013463D

 48 51  0     1  0  0  0  0  0999 V2000
    9.0720   -1.1280   24.8640 C   0  0  0  0  0  0  0  0  0  0  0  0
    9.7200   -2.2600   22.8630 C   0  0  0  0  0  0  0  0  0  0  0  0
    8.9960   -2.3380   25.5320 C   0  0  0  0  0  0  0  0  0  0  0  0
    9.6730   -3.4710   23.5300 C   0  0  0  0  0  0  0  0  0  0  0  0
   10.2428    3.1456   23.5034 C   0  0  0  0  0  0  0  0  0  0  0  0
   12.2645    2.9188   22.6690 C   0  0  0  0  0  0  0  0  0  0  0  0
    9.3350   -1.0880   23.5010 C   0  0  0  0  0  0  0  0  0  0  0  0
   11.1723    2.1848   23.0624 C   0  0  0  0  0  0  0  0  0  0  0  0
    9.3070   -3.5340   24.8780 C   0  0  0  0  0  0  0  0  0  0  0  0
    5.8300    0.9190   18.6970 C   0  0  0  0  0  0  0  0  0  0  0  0
    7.3170   -0.1610   19.8550 C   0  0  0  0  0  0  0  0  0  0  0  0
    4.6890    1.6810   18.4640 C   0  0  0  0  0  0  0  0  0  0  0  0
    3.9160    2.0630   19.5520 C   0  0  0  0  0  0  0  0  0  0  0  0
    4.2750    1.7050   20.8490 C   0  0  0  0  0  0  0  0  0  0  0  0
    5.4210    0.9600   21.0930 C   0  0  0  0  0  0  0  0  0  0  0  0
    9.0420    0.3700   21.5280 C   0  0  0  0  0  0  0  0  0  0  0  0
   12.7694    5.3728   22.6294 C   0  0  0  0  0  0  0  0  0  0  0  0
    8.8744   -4.6797   26.9022 C   0  0  0  0  0  0  0  0  0  0  0  0
   11.0089    0.6825   23.0307 C   0  0  0  0  0  0  0  0  0  0  0  0
    9.4560    0.1560   22.8130 C   0  0  1  0  0  0  0  0  0  0  0  0
   10.7043    4.3948   23.4002 N   0  0  0  0  0  0  0  0  0  0  0  0
    6.7580    0.3810   17.8350 N   0  0  0  0  0  0  0  0  0  0  0  0
    7.6390   -0.2680   18.5410 N   0  0  0  0  0  0  0  0  0  0  0  0
   11.9357    4.2239   22.8900 N   0  0  0  0  0  0  0  0  0  0  0  0
    6.1790    0.5730   19.9990 N   0  0  0  0  0  0  0  0  0  0  0  0
    8.1890   -0.7180   20.8700 N   0  0  0  0  0  0  0  0  0  0  0  0
    9.2690    1.4140   20.9380 O   0  0  0  0  0  0  0  0  0  0  0  0
    9.2567   -4.7121   25.5280 O   0  0  0  0  0  0  0  0  0  0  0  0
    8.9224   -0.1986   25.4209 H   0  0  0  0  0  0  0  0  0  0  0  0
   10.0638   -2.2321   21.8253 H   0  0  0  0  0  0  0  0  0  0  0  0
    8.6903   -2.3588   26.5807 H   0  0  0  0  0  0  0  0  0  0  0  0
    9.9258   -4.3917   22.9962 H   0  0  0  0  0  0  0  0  0  0  0  0
    9.2482    2.9901   23.8969 H   0  0  0  0  0  0  0  0  0  0  0  0
   13.2243    2.6307   22.2620 H   0  0  0  0  0  0  0  0  0  0  0  0
    4.3967    1.9772   17.4718 H   0  0  0  0  0  0  0  0  0  0  0  0
    3.0218    2.6486   19.3697 H   0  0  0  0  0  0  0  0  0  0  0  0
    3.6566    2.0043   21.7065 H   0  0  0  0  0  0  0  0  0  0  0  0
    5.7190    0.6877   22.0810 H   0  0  0  0  0  0  0  0  0  0  0  0
   12.5744    5.7060   21.6066 H   0  0  0  0  0  0  0  0  0  0  0  0
   12.5290    6.1664   23.3423 H   0  0  0  0  0  0  0  0  0  0  0  0
   13.8196    5.0915   22.7473 H   0  0  0  0  0  0  0  0  0  0  0  0
    8.8744   -5.6954   27.3053 H   0  0  0  0  0  0  0  0  0  0  0  0
    7.8781   -4.2399   26.9939 H   0  0  0  0  0  0  0  0  0  0  0  0
    9.5921   -4.0702   27.4565 H   0  0  0  0  0  0  0  0  0  0  0  0
   11.6011    0.2707   22.2030 H   0  0  0  0  0  0  0  0  0  0  0  0
   11.4624    0.2744   23.9446 H   0  0  0  0  0  0  0  0  0  0  0  0
    8.9284    0.9668   23.5149 H   0  0  0  0  0  0  0  0  0  0  0  0
    8.2385   -1.5646   21.0947 H   0  0  0  0  0  0  0  0  0  0  0  0
  1  3  2  0  0  0  0
  1  7  1  0  0  0  0
  2  4  1  0  0  0  0
  2  7  2  0  0  0  0
  3  9  1  0  0  0  0
  4  9  2  0  0  0  0
  5  8  1  0  0  0  0
  5 21  2  0  0  0  0
  6  8  2  0  0  0  0
  6 24  1  0  0  0  0
  7 20  1  0  0  0  0
  8 19  1  0  0  0  0
  9 28  1  0  0  0  0
 10 12  1  0  0  0  0
 10 22  2  0  0  0  0
 10 25  1  0  0  0  0
 11 23  2  0  0  0  0
 11 25  1  0  0  0  0
 11 26  1  0  0  0  0
 12 13  2  0  0  0  0
 13 14  1  0  0  0  0
 14 15  2  0  0  0  0
 15 25  1  0  0  0  0
 16 20  1  0  0  0  0
 16 26  1  0  0  0  0
 16 27  2  0  0  0  0
 17 24  1  0  0  0  0
 18 28  1  0  0  0  0
 19 20  1  1  0  0  0
 21 24  1  0  0  0  0
 22 23  1  0  0  0  0
  1 29  1  0  0  0  0
  2 30  1  0  0  0  0
  3 31  1  0  0  0  0
  4 32  1  0  0  0  0
  5 33  1  0  0  0  0
  6 34  1  0  0  0  0
 12 35  1  0  0  0  0
 13 36  1  0  0  0  0
 14 37  1  0  0  0  0
 15 38  1  0  0  0  0
 17 39  1  0  0  0  0
 17 40  1  0  0  0  0
 17 41  1  0  0  0  0
 18 42  1  0  0  0  0
 18 43  1  0  0  0  0
 18 44  1  0  0  0  0
 19 45  1  0  0  0  0
 19 46  1  0  0  0  0
 20 47  1  0  0  0  0
 26 48  1  0  0  0  0
M  END
> <clash_score>
0

> <docking_score>
-10.307241439819336

> <overlap_score>
0.9082751870155334

$$$$
BENZO_327_2
  -OEChem-08232013463D

 48 51  0     1  0  0  0  0  0999 V2000
    9.0720   -1.1280   24.8640 C   0  0  0  0  0  0  0  0  0  0  0  0
    9.7200   -2.2600   22.8630 C   0  0  0  0  0  0  0  0  0  0  0  0
    8.9960   -2.3380   25.5320 C   0  0  0  0  0  0  0  0  0  0  0  0
    9.6730   -3.4710   23.5300 C   0  0  0  0  0  0  0  0  0  0  0  0
   10.2230    3.2711   22.6855 C   0  0  0  0  0  0  0  0  0  0  0  0
    8.3607    3.8650   23.6924 C   0  0  0  0  0  0  0  0  0  0  0  0
    9.3350   -1.0880   23.5010 C   0  0  0  0  0  0  0  0  0  0  0  0
    9.1357    2.7638   23.4218 C   0  0  0  0  0  0  0  0  0  0  0  0
    9.3070   -3.5340   24.8780 C   0  0  0  0  0  0  0  0  0  0  0  0
    5.8300    0.9190   18.6970 C   0  0  0  0  0  0  0  0  0  0  0  0
    7.3170   -0.1610   19.8550 C   0  0  0  0  0  0  0  0  0  0  0  0
    4.6890    1.6810   18.4640 C   0  0  0  0  0  0  0  0  0  0  0  0
    3.9160    2.0630   19.5520 C   0  0  0  0  0  0  0  0  0  0  0  0
    4.2750    1.7050   20.8490 C   0  0  0  0  0  0  0  0  0  0  0  0
    5.4210    0.9600   21.0930 C   0  0  0  0  0  0  0  0  0  0  0  0
    9.0420    0.3700   21.5280 C   0  0  0  0  0  0  0  0  0  0  0  0
    8.5727    6.3003   23.1419 C   0  0  0  0  0  0  0  0  0  0  0  0
    9.5904   -5.8808   24.7806 C   0  0  0  0  0  0  0  0  0  0  0  0
    8.8757    1.3301   23.8233 C   0  0  0  0  0  0  0  0  0  0  0  0
    9.4560    0.1560   22.8130 C   0  0  2  0  0  0  0  0  0  0  0  0
   10.1488    4.5917   22.4999 N   0  0  0  0  0  0  0  0  0  0  0  0
    6.7580    0.3810   17.8350 N   0  0  0  0  0  0  0  0  0  0  0  0
    7.6390   -0.2680   18.5410 N   0  0  0  0  0  0  0  0  0  0  0  0
    9.0056    4.9236   23.1235 N   0  0  0  0  0  0  0  0  0  0  0  0
    6.1790    0.5730   19.9990 N   0  0  0  0  0  0  0  0  0  0  0  0
    8.1890   -0.7180   20.8700 N   0  0  0  0  0  0  0  0  0  0  0  0
    9.2690    1.4140   20.9380 O   0  0  0  0  0  0  0  0  0  0  0  0
    9.2567   -4.7121   25.5280 O   0  0  0  0  0  0  0  0  0  0  0  0
    8.9224   -0.1986   25.4209 H   0  0  0  0  0  0  0  0  0  0  0  0
   10.0638   -2.2321   21.8253 H   0  0  0  0  0  0  0  0  0  0  0  0
    8.6903   -2.3588   26.5807 H   0  0  0  0  0  0  0  0  0  0  0  0
    9.9258   -4.3917   22.9962 H   0  0  0  0  0  0  0  0  0  0  0  0
   11.0671    2.7354   22.2746 H   0  0  0  0  0  0  0  0  0  0  0  0
    7.4277    3.9824   24.2269 H   0  0  0  0  0  0  0  0  0  0  0  0
    4.3967    1.9772   17.4718 H   0  0  0  0  0  0  0  0  0  0  0  0
    3.0218    2.6486   19.3697 H   0  0  0  0  0  0  0  0  0  0  0  0
    3.6566    2.0043   21.7065 H   0  0  0  0  0  0  0  0  0  0  0  0
    5.7190    0.6877   22.0810 H   0  0  0  0  0  0  0  0  0  0  0  0
    8.9983    6.7758   24.0295 H   0  0  0  0  0  0  0  0  0  0  0  0
    8.9199    6.8033   22.2351 H   0  0  0  0  0  0  0  0  0  0  0  0
    7.4802    6.3352   23.1748 H   0  0  0  0  0  0  0  0  0  0  0  0
    9.5095   -6.7607   25.4235 H   0  0  0  0  0  0  0  0  0  0  0  0
   10.6094   -5.7898   24.3961 H   0  0  0  0  0  0  0  0  0  0  0  0
    8.8947   -5.9784   23.9439 H   0  0  0  0  0  0  0  0  0  0  0  0
    9.2390    1.1684   24.8466 H   0  0  0  0  0  0  0  0  0  0  0  0
    7.7875    1.1860   23.8742 H   0  0  0  0  0  0  0  0  0  0  0  0
   10.6103    0.4565   22.8881 H   0  0  0  0  0  0  0  0  0  0  0  0
    8.2385   -1.5646   21.0947 H   0  0  0  0  0  0  0  0  0  0  0  0
  1  3  2  0  0  0  0
  1  7  1  0  0  0  0
  2  4  1  0  0  0  0
  2  7  2  0  0  0  0
  3  9  1  0  0  0  0
  4  9  2  0  0  0  0
  5  8  1  0  0  0  0
  5 21  2  0  0  0  0
  6  8  2  0  0  0  0
  6 24  1  0  0  0  0
  7 20  1  0  0  0  0
  8 19  1  0  0  0  0
  9 28  1  0  0  0  0
 10 12  1  0  0  0  0
 10 22  2  0  0  0  0
 10 25  1  0  0  0  0
 11 23  2  0  0  0  0
 11 25  1  0  0  0  0
 11 26  1  0  0  0  0
 12 13  2  0  0  0  0
 13 14  1  0  0  0  0
 14 15  2  0  0  0  0
 15 25  1  0  0  0  0
 16 20  1  0  0  0  0
 16 26  1  0  0  0  0
 16 27  2  0  0  0  0
 17 24  1  0  0  0  0
 18 28  1  0  0  0  0
 19 20  1  6  0  0  0
 21 24  1  0  0  0  0
 22 23  1  0  0  0  0
  1 29  1  0  0  0  0
  2 30  1  0  0  0  0
  3 31  1  0  0  0  0
  4 32  1  0  0  0  0
  5 33  1  0  0  0  0
  6 34  1  0  0  0  0
 12 35  1  0  0  0  0
 13 36  1  0  0  0  0
 14 37  1  0  0  0  0
 15 38  1  0  0  0  0
 17 39  1  0  0  0  0
 17 40  1  0  0  0  0
 17 41  1  0  0  0  0
 18 42  1  0  0  0  0
 18 43  1  0  0  0  0
 18 44  1  0  0  0  0
 19 45  1  0  0  0  0
 19 46  1  0  0  0  0
 20 47  1  0  0  0  0
 26 48  1  0  0  0  0
M  END
> <clash_score>
0

> <docking_score>
-6.6376752853393555

> <overlap_score>
0.8214377164840698

$$$$
BENZO_326_2
  -OEChem-08232013463D

 48 51  0     1  0  0  0  0  0999 V2000
    8.4741    5.0874   23.4171 C   0  0  0  0  0  0  0  0  0  0  0  0
    8.2342    3.7639   23.7862 C   0  0  0  0  0  0  0  0  0  0  0  0
    9.0720   -1.1280   24.8640 C   0  0  0  0  0  0  0  0  0  0  0  0
    9.7200   -2.2600   22.8630 C   0  0  0  0  0  0  0  0  0  0  0  0
    8.9960   -2.3380   25.5320 C   0  0  0  0  0  0  0  0  0  0  0  0
    9.6730   -3.4710   23.5300 C   0  0  0  0  0  0  0  0  0  0  0  0
    9.6155    5.4109   22.6835 C   0  0  0  0  0  0  0  0  0  0  0  0
   10.2772    3.0873   22.6883 C   0  0  0  0  0  0  0  0  0  0  0  0
    9.3350   -1.0880   23.5010 C   0  0  0  0  0  0  0  0  0  0  0  0
    9.1357    2.7638   23.4219 C   0  0  0  0  0  0  0  0  0  0  0  0
    9.3070   -3.5340   24.8780 C   0  0  0  0  0  0  0  0  0  0  0  0
   10.5171    4.4109   22.3191 C   0  0  0  0  0  0  0  0  0  0  0  0
    5.8300    0.9190   18.6970 C   0  0  0  0  0  0  0  0  0  0  0  0
    7.3170   -0.1610   19.8550 C   0  0  0  0  0  0  0  0  0  0  0  0
    4.6890    1.6810   18.4640 C   0  0  0  0  0  0  0  0  0  0  0  0
    3.9160    2.0630   19.5520 C   0  0  0  0  0  0  0  0  0  0  0  0
    4.2750    1.7050   20.8490 C   0  0  0  0  0  0  0  0  0  0  0  0
    5.4210    0.9600   21.0930 C   0  0  0  0  0  0  0  0  0  0  0  0
    9.0420    0.3700   21.5280 C   0  0  0  0  0  0  0  0  0  0  0  0
    9.5904   -5.8808   24.7806 C   0  0  0  0  0  0  0  0  0  0  0  0
    8.8757    1.3301   23.8233 C   0  0  0  0  0  0  0  0  0  0  0  0
    9.4560    0.1560   22.8130 C   0  0  2  0  0  0  0  0  0  0  0  0
    6.7580    0.3810   17.8350 N   0  0  0  0  0  0  0  0  0  0  0  0
    7.6390   -0.2680   18.5410 N   0  0  0  0  0  0  0  0  0  0  0  0
    6.1790    0.5730   19.9990 N   0  0  0  0  0  0  0  0  0  0  0  0
    8.1890   -0.7180   20.8700 N   0  0  0  0  0  0  0  0  0  0  0  0
    9.2690    1.4140   20.9380 O   0  0  0  0  0  0  0  0  0  0  0  0
    9.2567   -4.7121   25.5280 O   0  0  0  0  0  0  0  0  0  0  0  0
   11.9257    4.8108   21.4150 Cl  0  0  0  0  0  0  0  0  0  0  0  0
    7.7719    5.8659   23.7012 H   0  0  0  0  0  0  0  0  0  0  0  0
    7.3423    3.5209   24.3579 H   0  0  0  0  0  0  0  0  0  0  0  0
    8.9224   -0.1986   25.4209 H   0  0  0  0  0  0  0  0  0  0  0  0
   10.0638   -2.2321   21.8253 H   0  0  0  0  0  0  0  0  0  0  0  0
    8.6903   -2.3588   26.5807 H   0  0  0  0  0  0  0  0  0  0  0  0
    9.9258   -4.3917   22.9962 H   0  0  0  0  0  0  0  0  0  0  0  0
    9.7898    6.4468   22.4029 H   0  0  0  0  0  0  0  0  0  0  0  0
   10.9768    2.3039   22.4061 H   0  0  0  0  0  0  0  0  0  0  0  0
    4.3967    1.9772   17.4718 H   0  0  0  0  0  0  0  0  0  0  0  0
    3.0218    2.6486   19.3697 H   0  0  0  0  0  0  0  0  0  0  0  0
    3.6566    2.0043   21.7065 H   0  0  0  0  0  0  0  0  0  0  0  0
    5.7190    0.6877   22.0810 H   0  0  0  0  0  0  0  0  0  0  0  0
    9.5095   -6.7607   25.4235 H   0  0  0  0  0  0  0  0  0  0  0  0
   10.6094   -5.7898   24.3961 H   0  0  0  0  0  0  0  0  0  0  0  0
    8.8947   -5.9784   23.9439 H   0  0  0  0  0  0  0  0  0  0  0  0
    9.2390    1.1684   24.8466 H   0  0  0  0  0  0  0  0  0  0  0  0
    7.7875    1.1860   23.8742 H   0  0  0  0  0  0  0  0  0  0  0  0
   10.6103    0.4565   22.8881 H   0  0  0  0  0  0  0  0  0  0  0  0
    8.2385   -1.5646   21.0947 H   0  0  0  0  0  0  0  0  0  0  0  0
  1  2  2  0  0  0  0
  1  7  1  0  0  0  0
  2 10  1  0  0  0  0
  3  5  2  0  0  0  0
  3  9  1  0  0  0  0
  4  6  1  0  0  0  0
  4  9  2  0  0  0  0
  5 11  1  0  0  0  0
  6 11  2  0  0  0  0
  7 12  2  0  0  0  0
  8 10  2  0  0  0  0
  8 12  1  0  0  0  0
  9 22  1  0  0  0  0
 10 21  1  0  0  0  0
 11 28  1  0  0  0  0
 12 29  1  0  0  0  0
 13 15  1  0  0  0  0
 13 23  2  0  0  0  0
 13 25  1  0  0  0  0
 14 24  2  0  0  0  0
 14 25  1  0  0  0  0
 14 26  1  0  0  0  0
 15 16  2  0  0  0  0
 16 17  1  0  0  0  0
 17 18  2  0  0  0  0
 18 25  1  0  0  0  0
 19 22  1  0  0  0  0
 19 26  1  0  0  0  0
 19 27  2  0  0  0  0
 20 28  1  0  0  0  0
 21 22  1  6  0  0  0
 23 24  1  0  0  0  0
  1 30  1  0  0  0  0
  2 31  1  0  0  0  0
  3 32  1  0  0  0  0
  4 33  1  0  0  0  0
  5 34  1  0  0  0  0
  6 35  1  0  0  0  0
  7 36  1  0  0  0  0
  8 37  1  0  0  0  0
 15 38  1  0  0  0  0
 16 39  1  0  0  0  0
 17 40  1  0  0  0  0
 18 41  1  0  0  0  0
 20 42  1  0  0  0  0
 20 43  1  0  0  0  0
 20 44  1  0  0  0  0
 21 45  1  0  0  0  0
 21 46  1  0  0  0  0
 22 47  1  0  0  0  0
 26 48  1  0  0  0  0
M  END
> <clash_score>
0

> <docking_score>
-6.262412071228027

> <overlap_score>
0.8263978362083435

$$$$
BENZO_326_1
  -OEChem-08232013463D

 48 51  0     1  0  0  0  0  0999 V2000
   10.2856    4.3750   23.5656 C   0  0  0  0  0  0  0  0  0  0  0  0
   10.1350    2.9887   23.5349 C   0  0  0  0  0  0  0  0  0  0  0  0
    9.0720   -1.1280   24.8640 C   0  0  0  0  0  0  0  0  0  0  0  0
    9.7200   -2.2600   22.8630 C   0  0  0  0  0  0  0  0  0  0  0  0
    8.9960   -2.3380   25.5320 C   0  0  0  0  0  0  0  0  0  0  0  0
    9.6730   -3.4710   23.5300 C   0  0  0  0  0  0  0  0  0  0  0  0
   11.4735    4.9575   23.1236 C   0  0  0  0  0  0  0  0  0  0  0  0
   12.3603    2.7672   22.6205 C   0  0  0  0  0  0  0  0  0  0  0  0
    9.3350   -1.0880   23.5010 C   0  0  0  0  0  0  0  0  0  0  0  0
   11.1723    2.1848   23.0624 C   0  0  0  0  0  0  0  0  0  0  0  0
    9.3070   -3.5340   24.8780 C   0  0  0  0  0  0  0  0  0  0  0  0
   12.5108    4.1536   22.6511 C   0  0  0  0  0  0  0  0  0  0  0  0
    5.8300    0.9190   18.6970 C   0  0  0  0  0  0  0  0  0  0  0  0
    7.3170   -0.1610   19.8550 C   0  0  0  0  0  0  0  0  0  0  0  0
    4.6890    1.6810   18.4640 C   0  0  0  0  0  0  0  0  0  0  0  0
    3.9160    2.0630   19.5520 C   0  0  0  0  0  0  0  0  0  0  0  0
    4.2750    1.7050   20.8490 C   0  0  0  0  0  0  0  0  0  0  0  0
    5.4210    0.9600   21.0930 C   0  0  0  0  0  0  0  0  0  0  0  0
    9.0420    0.3700   21.5280 C   0  0  0  0  0  0  0  0  0  0  0  0
    9.5904   -5.8808   24.7806 C   0  0  0  0  0  0  0  0  0  0  0  0
   11.0089    0.6825   23.0307 C   0  0  0  0  0  0  0  0  0  0  0  0
    9.4560    0.1560   22.8130 C   0  0  1  0  0  0  0  0  0  0  0  0
    6.7580    0.3810   17.8350 N   0  0  0  0  0  0  0  0  0  0  0  0
    7.6390   -0.2680   18.5410 N   0  0  0  0  0  0  0  0  0  0  0  0
    6.1790    0.5730   19.9990 N   0  0  0  0  0  0  0  0  0  0  0  0
    8.1890   -0.7180   20.8700 N   0  0  0  0  0  0  0  0  0  0  0  0
    9.2690    1.4140   20.9380 O   0  0  0  0  0  0  0  0  0  0  0  0
    9.2567   -4.7121   25.5280 O   0  0  0  0  0  0  0  0  0  0  0  0
   13.9766    4.8727   22.1070 Cl  0  0  0  0  0  0  0  0  0  0  0  0
    9.4776    5.0007   23.9337 H   0  0  0  0  0  0  0  0  0  0  0  0
    9.2060    2.5434   23.8814 H   0  0  0  0  0  0  0  0  0  0  0  0
    8.9224   -0.1986   25.4209 H   0  0  0  0  0  0  0  0  0  0  0  0
   10.0638   -2.2321   21.8253 H   0  0  0  0  0  0  0  0  0  0  0  0
    8.6903   -2.3588   26.5807 H   0  0  0  0  0  0  0  0  0  0  0  0
    9.9258   -4.3917   22.9962 H   0  0  0  0  0  0  0  0  0  0  0  0
   11.5769    6.0394   23.1535 H   0  0  0  0  0  0  0  0  0  0  0  0
   13.1659    2.1361   22.2525 H   0  0  0  0  0  0  0  0  0  0  0  0
    4.3967    1.9772   17.4718 H   0  0  0  0  0  0  0  0  0  0  0  0
    3.0218    2.6486   19.3697 H   0  0  0  0  0  0  0  0  0  0  0  0
    3.6566    2.0043   21.7065 H   0  0  0  0  0  0  0  0  0  0  0  0
    5.7190    0.6877   22.0810 H   0  0  0  0  0  0  0  0  0  0  0  0
    9.5095   -6.7607   25.4235 H   0  0  0  0  0  0  0  0  0  0  0  0
   10.6094   -5.7898   24.3961 H   0  0  0  0  0  0  0  0  0  0  0  0
    8.8947   -5.9784   23.9439 H   0  0  0  0  0  0  0  0  0  0  0  0
   11.6011    0.2707   22.2030 H   0  0  0  0  0  0  0  0  0  0  0  0
   11.4624    0.2744   23.9446 H   0  0  0  0  0  0  0  0  0  0  0  0
    8.9284    0.9668   23.5149 H   0  0  0  0  0  0  0  0  0  0  0  0
    8.2385   -1.5646   21.0947 H   0  0  0  0  0  0  0  0  0  0  0  0
  1  2  2  0  0  0  0
  1  7  1  0  0  0  0
  2 10  1  0  0  0  0
  3  5  2  0  0  0  0
  3  9  1  0  0  0  0
  4  6  1  0  0  0  0
  4  9  2  0  0  0  0
  5 11  1  0  0  0  0
  6 11  2  0  0  0  0
  7 12  2  0  0  0  0
  8 10  2  0  0  0  0
  8 12  1  0  0  0  0
  9 22  1  0  0  0  0
 10 21  1  0  0  0  0
 11 28  1  0  0  0  0
 12 29  1  0  0  0  0
 13 15  1  0  0  0  0
 13 23  2  0  0  0  0
 13 25  1  0  0  0  0
 14 24  2  0  0  0  0
 14 25  1  0  0  0  0
 14 26  1  0  0  0  0
 15 16  2  0  0  0  0
 16 17  1  0  0  0  0
 17 18  2  0  0  0  0
 18 25  1  0  0  0  0
 19 22  1  0  0  0  0
 19 26  1  0  0  0  0
 19 27  2  0  0  0  0
 20 28  1  0  0  0  0
 21 22  1  1  0  0  0
 23 24  1  0  0  0  0
  1 30  1  0  0  0  0
  2 31  1  0  0  0  0
  3 32  1  0  0  0  0
  4 33  1  0  0  0  0
  5 34  1  0  0  0  0
  6 35  1  0  0  0  0
  7 36  1  0  0  0  0
  8 37  1  0  0  0  0
 15 38  1  0  0  0  0
 16 39  1  0  0  0  0
 17 40  1  0  0  0  0
 18 41  1  0  0  0  0
 20 42  1  0  0  0  0
 20 43  1  0  0  0  0
 20 44  1  0  0  0  0
 21 45  1  0  0  0  0
 21 46  1  0  0  0  0
 22 47  1  0  0  0  0
 26 48  1  0  0  0  0
M  END
> <clash_score>
0

> <docking_score>
-10.817078590393066

> <overlap_score>
0.9156606793403625

$$$$
BENZO_329_1
  -OEChem-08232013463D

 58 62  0     1  0  0  0  0  0999 V2000
    9.5866    5.4188   22.6538 C   0  0  0  0  0  0  0  0  0  0  0  0
    8.4494    5.0927   23.3926 C   0  0  0  0  0  0  0  0  0  0  0  0
   10.4928    4.4220   22.2918 C   0  0  0  0  0  0  0  0  0  0  0  0
    8.2182    3.7698   23.7695 C   0  0  0  0  0  0  0  0  0  0  0  0
   10.2616    3.0991   22.6687 C   0  0  0  0  0  0  0  0  0  0  0  0
    9.0720   -1.1280   24.8640 C   0  0  0  0  0  0  0  0  0  0  0  0
    9.7200   -2.2600   22.8630 C   0  0  0  0  0  0  0  0  0  0  0  0
    8.9960   -2.3380   25.5320 C   0  0  0  0  0  0  0  0  0  0  0  0
    9.6730   -3.4710   23.5300 C   0  0  0  0  0  0  0  0  0  0  0  0
    9.1243    2.7729   23.4076 C   0  0  0  0  0  0  0  0  0  0  0  0
    9.3350   -1.0880   23.5010 C   0  0  0  0  0  0  0  0  0  0  0  0
    9.3070   -3.5340   24.8780 C   0  0  0  0  0  0  0  0  0  0  0  0
    5.8300    0.9190   18.6970 C   0  0  0  0  0  0  0  0  0  0  0  0
    7.3170   -0.1610   19.8550 C   0  0  0  0  0  0  0  0  0  0  0  0
    4.6890    1.6810   18.4640 C   0  0  0  0  0  0  0  0  0  0  0  0
    3.9160    2.0630   19.5520 C   0  0  0  0  0  0  0  0  0  0  0  0
    4.2750    1.7050   20.8490 C   0  0  0  0  0  0  0  0  0  0  0  0
    5.4210    0.9600   21.0930 C   0  0  0  0  0  0  0  0  0  0  0  0
    8.3596   -5.0075   26.6307 C   0  0  0  0  0  0  0  0  0  0  0  0
    9.0420    0.3700   21.5280 C   0  0  0  0  0  0  0  0  0  0  0  0
    8.4579   -6.4048   27.2167 C   0  0  0  0  0  0  0  0  0  0  0  0
    8.4717   -7.4504   26.1157 C   0  0  0  0  0  0  0  0  0  0  0  0
    9.5645   -7.1893   25.0840 C   0  0  0  0  0  0  0  0  0  0  0  0
   10.2327   -5.8252   25.2500 C   0  0  0  0  0  0  0  0  0  0  0  0
    8.8746    1.3393   23.8159 C   0  0  0  0  0  0  0  0  0  0  0  0
    9.4560    0.1560   22.8130 C   0  0  1  0  0  0  0  0  0  0  0  0
    6.7580    0.3810   17.8350 N   0  0  0  0  0  0  0  0  0  0  0  0
    7.6390   -0.2680   18.5410 N   0  0  0  0  0  0  0  0  0  0  0  0
    6.1790    0.5730   19.9990 N   0  0  0  0  0  0  0  0  0  0  0  0
    9.2529   -4.7799   25.5644 N   0  0  0  0  0  0  0  0  0  0  0  0
    8.1890   -0.7180   20.8700 N   0  0  0  0  0  0  0  0  0  0  0  0
    7.5989   -4.1866   27.1423 O   0  0  0  0  0  0  0  0  0  0  0  0
    9.2690    1.4140   20.9380 O   0  0  0  0  0  0  0  0  0  0  0  0
    9.7658    6.4488   22.3592 H   0  0  0  0  0  0  0  0  0  0  0  0
    7.7431    5.8685   23.6736 H   0  0  0  0  0  0  0  0  0  0  0  0
   11.3777    4.6754   21.7157 H   0  0  0  0  0  0  0  0  0  0  0  0
    7.3295    3.5250   24.3452 H   0  0  0  0  0  0  0  0  0  0  0  0
   10.9731    2.3291   22.3824 H   0  0  0  0  0  0  0  0  0  0  0  0
    8.9202   -0.1986   25.4206 H   0  0  0  0  0  0  0  0  0  0  0  0
   10.0631   -2.2319   21.8252 H   0  0  0  0  0  0  0  0  0  0  0  0
    8.6898   -2.3534   26.5810 H   0  0  0  0  0  0  0  0  0  0  0  0
    9.9254   -4.3899   22.9914 H   0  0  0  0  0  0  0  0  0  0  0  0
    4.3967    1.9772   17.4718 H   0  0  0  0  0  0  0  0  0  0  0  0
    3.0218    2.6486   19.3697 H   0  0  0  0  0  0  0  0  0  0  0  0
    3.6566    2.0043   21.7065 H   0  0  0  0  0  0  0  0  0  0  0  0
    5.7190    0.6877   22.0810 H   0  0  0  0  0  0  0  0  0  0  0  0
    9.3705   -6.4746   27.7883 H   0  0  0  0  0  0  0  0  0  0  0  0
    7.6054   -6.5499   27.8634 H   0  0  0  0  0  0  0  0  0  0  0  0
    8.6096   -8.4605   26.5547 H   0  0  0  0  0  0  0  0  0  0  0  0
    7.4835   -7.4764   25.6139 H   0  0  0  0  0  0  0  0  0  0  0  0
   10.3359   -7.9850   25.1529 H   0  0  0  0  0  0  0  0  0  0  0  0
    9.1459   -7.2795   24.0580 H   0  0  0  0  0  0  0  0  0  0  0  0
   10.9408   -5.8640   26.0724 H   0  0  0  0  0  0  0  0  0  0  0  0
   10.7522   -5.5631   24.3346 H   0  0  0  0  0  0  0  0  0  0  0  0
    9.2322    1.1871   24.8426 H   0  0  0  0  0  0  0  0  0  0  0  0
    7.7874    1.1856   23.8602 H   0  0  0  0  0  0  0  0  0  0  0  0
   10.6111    0.4644   22.8838 H   0  0  0  0  0  0  0  0  0  0  0  0
    8.2585   -1.5522   21.1129 H   0  0  0  0  0  0  0  0  0  0  0  0
  1  2  1  0  0  0  0
  1  3  2  0  0  0  0
  2  4  2  0  0  0  0
  3  5  1  0  0  0  0
  4 10  1  0  0  0  0
  5 10  2  0  0  0  0
  6  8  2  0  0  0  0
  6 11  1  0  0  0  0
  7  9  1  0  0  0  0
  7 11  2  0  0  0  0
  8 12  1  0  0  0  0
  9 12  2  0  0  0  0
 10 25  1  0  0  0  0
 11 26  1  0  0  0  0
 12 30  1  0  0  0  0
 13 15  1  0  0  0  0
 13 27  2  0  0  0  0
 13 29  1  0  0  0  0
 14 28  2  0  0  0  0
 14 29  1  0  0  0  0
 14 31  1  0  0  0  0
 15 16  2  0  0  0  0
 16 17  1  0  0  0  0
 17 18  2  0  0  0  0
 18 29  1  0  0  0  0
 19 21  1  0  0  0  0
 19 30  1  0  0  0  0
 19 32  2  0  0  0  0
 20 26  1  1  0  0  0
 20 31  1  0  0  0  0
 20 33  2  0  0  0  0
 21 22  1  0  0  0  0
 22 23  1  0  0  0  0
 23 24  1  0  0  0  0
 24 30  1  0  0  0  0
 25 26  1  0  0  0  0
 27 28  1  0  0  0  0
  1 34  1  0  0  0  0
  2 35  1  0  0  0  0
  3 36  1  0  0  0  0
  4 37  1  0  0  0  0
  5 38  1  0  0  0  0
  6 39  1  0  0  0  0
  7 40  1  0  0  0  0
  8 41  1  0  0  0  0
  9 42  1  0  0  0  0
 15 43  1  0  0  0  0
 16 44  1  0  0  0  0
 17 45  1  0  0  0  0
 18 46  1  0  0  0  0
 21 47  1  0  0  0  0
 21 48  1  0  0  0  0
 22 49  1  0  0  0  0
 22 50  1  0  0  0  0
 23 51  1  0  0  0  0
 23 52  1  0  0  0  0
 24 53  1  0  0  0  0
 24 54  1  0  0  0  0
 25 55  1  0  0  0  0
 25 56  1  0  0  0  0
 26 57  1  0  0  0  0
 31 58  1  0  0  0  0
M  END
> <clash_score>
0.6354372295654396

> <docking_score>
-6.083787441253662

> <overlap_score>
0.8699353337287903

$$$$
BENZO_329_2
  -OEChem-08232013463D

 58 62  0     1  0  0  0  0  0999 V2000
   11.4754    4.9664   23.0810 C   0  0  0  0  0  0  0  0  0  0  0  0
   12.5124    4.1581   22.6156 C   0  0  0  0  0  0  0  0  0  0  0  0
   10.2875    4.3882   23.5285 C   0  0  0  0  0  0  0  0  0  0  0  0
   12.3617    2.7715   22.5976 C   0  0  0  0  0  0  0  0  0  0  0  0
   10.1367    3.0016   23.5105 C   0  0  0  0  0  0  0  0  0  0  0  0
    9.0720   -1.1280   24.8640 C   0  0  0  0  0  0  0  0  0  0  0  0
    9.7200   -2.2600   22.8630 C   0  0  0  0  0  0  0  0  0  0  0  0
    8.9960   -2.3380   25.5320 C   0  0  0  0  0  0  0  0  0  0  0  0
    9.6730   -3.4710   23.5300 C   0  0  0  0  0  0  0  0  0  0  0  0
   11.1738    2.1933   23.0451 C   0  0  0  0  0  0  0  0  0  0  0  0
    9.3350   -1.0880   23.5010 C   0  0  0  0  0  0  0  0  0  0  0  0
    9.3070   -3.5340   24.8780 C   0  0  0  0  0  0  0  0  0  0  0  0
    5.8300    0.9190   18.6970 C   0  0  0  0  0  0  0  0  0  0  0  0
    7.3170   -0.1610   19.8550 C   0  0  0  0  0  0  0  0  0  0  0  0
    4.6890    1.6810   18.4640 C   0  0  0  0  0  0  0  0  0  0  0  0
    3.9160    2.0630   19.5520 C   0  0  0  0  0  0  0  0  0  0  0  0
    4.2750    1.7050   20.8490 C   0  0  0  0  0  0  0  0  0  0  0  0
    5.4210    0.9600   21.0930 C   0  0  0  0  0  0  0  0  0  0  0  0
    8.3596   -5.0074   26.6306 C   0  0  0  0  0  0  0  0  0  0  0  0
    9.0420    0.3700   21.5280 C   0  0  0  0  0  0  0  0  0  0  0  0
    8.4719   -6.3982   27.2294 C   0  0  0  0  0  0  0  0  0  0  0  0
    9.9251   -6.7607   27.4801 C   0  0  0  0  0  0  0  0  0  0  0  0
   10.7833   -6.6095   26.2280 C   0  0  0  0  0  0  0  0  0  0  0  0
   10.0539   -5.9100   25.0821 C   0  0  0  0  0  0  0  0  0  0  0  0
   11.0096    0.6909   23.0257 C   0  0  0  0  0  0  0  0  0  0  0  0
    9.4560    0.1560   22.8130 C   0  0  2  0  0  0  0  0  0  0  0  0
    6.7580    0.3810   17.8350 N   0  0  0  0  0  0  0  0  0  0  0  0
    7.6390   -0.2680   18.5410 N   0  0  0  0  0  0  0  0  0  0  0  0
    6.1790    0.5730   19.9990 N   0  0  0  0  0  0  0  0  0  0  0  0
    9.2529   -4.7797   25.5643 N   0  0  0  0  0  0  0  0  0  0  0  0
    8.1890   -0.7180   20.8700 N   0  0  0  0  0  0  0  0  0  0  0  0
    7.4954   -4.2357   27.0448 O   0  0  0  0  0  0  0  0  0  0  0  0
    9.2690    1.4140   20.9380 O   0  0  0  0  0  0  0  0  0  0  0  0
   11.5934    6.0460   23.0962 H   0  0  0  0  0  0  0  0  0  0  0  0
   13.4379    4.6081   22.2681 H   0  0  0  0  0  0  0  0  0  0  0  0
    9.4802    5.0172   23.8920 H   0  0  0  0  0  0  0  0  0  0  0  0
   13.1750    2.1496   22.2331 H   0  0  0  0  0  0  0  0  0  0  0  0
    9.2076    2.5600   23.8610 H   0  0  0  0  0  0  0  0  0  0  0  0
    8.9202   -0.1986   25.4206 H   0  0  0  0  0  0  0  0  0  0  0  0
   10.0631   -2.2319   21.8252 H   0  0  0  0  0  0  0  0  0  0  0  0
    8.6898   -2.3534   26.5810 H   0  0  0  0  0  0  0  0  0  0  0  0
    9.9254   -4.3899   22.9914 H   0  0  0  0  0  0  0  0  0  0  0  0
    4.3967    1.9772   17.4718 H   0  0  0  0  0  0  0  0  0  0  0  0
    3.0218    2.6486   19.3697 H   0  0  0  0  0  0  0  0  0  0  0  0
    3.6566    2.0043   21.7065 H   0  0  0  0  0  0  0  0  0  0  0  0
    5.7190    0.6877   22.0810 H   0  0  0  0  0  0  0  0  0  0  0  0
    7.9324   -6.4149   28.1639 H   0  0  0  0  0  0  0  0  0  0  0  0
    8.0254   -7.0921   26.5330 H   0  0  0  0  0  0  0  0  0  0  0  0
   10.3386   -6.1268   28.2921 H   0  0  0  0  0  0  0  0  0  0  0  0
    9.9903   -7.8025   27.8535 H   0  0  0  0  0  0  0  0  0  0  0  0
   11.7036   -6.0405   26.4770 H   0  0  0  0  0  0  0  0  0  0  0  0
   11.1411   -7.6069   25.8917 H   0  0  0  0  0  0  0  0  0  0  0  0
   10.7783   -5.5162   24.3756 H   0  0  0  0  0  0  0  0  0  0  0  0
    9.4042   -6.6189   24.5805 H   0  0  0  0  0  0  0  0  0  0  0  0
   11.6022    0.2720   22.2019 H   0  0  0  0  0  0  0  0  0  0  0  0
   11.4622    0.2902   23.9433 H   0  0  0  0  0  0  0  0  0  0  0  0
    8.9292    0.9747   23.5105 H   0  0  0  0  0  0  0  0  0  0  0  0
    8.2585   -1.5522   21.1129 H   0  0  0  0  0  0  0  0  0  0  0  0
  1  2  1  0  0  0  0
  1  3  2  0  0  0  0
  2  4  2  0  0  0  0
  3  5  1  0  0  0  0
  4 10  1  0  0  0  0
  5 10  2  0  0  0  0
  6  8  2  0  0  0  0
  6 11  1  0  0  0  0
  7  9  1  0  0  0  0
  7 11  2  0  0  0  0
  8 12  1  0  0  0  0
  9 12  2  0  0  0  0
 10 25  1  0  0  0  0
 11 26  1  0  0  0  0
 12 30  1  0  0  0  0
 13 15  1  0  0  0  0
 13 27  2  0  0  0  0
 13 29  1  0  0  0  0
 14 28  2  0  0  0  0
 14 29  1  0  0  0  0
 14 31  1  0  0  0  0
 15 16  2  0  0  0  0
 16 17  1  0  0  0  0
 17 18  2  0  0  0  0
 18 29  1  0  0  0  0
 19 21  1  0  0  0  0
 19 30  1  0  0  0  0
 19 32  2  0  0  0  0
 20 26  1  6  0  0  0
 20 31  1  0  0  0  0
 20 33  2  0  0  0  0
 21 22  1  0  0  0  0
 22 23  1  0  0  0  0
 23 24  1  0  0  0  0
 24 30  1  0  0  0  0
 25 26  1  0  0  0  0
 27 28  1  0  0  0  0
  1 34  1  0  0  0  0
  2 35  1  0  0  0  0
  3 36  1  0  0  0  0
  4 37  1  0  0  0  0
  5 38  1  0  0  0  0
  6 39  1  0  0  0  0
  7 40  1  0  0  0  0
  8 41  1  0  0  0  0
  9 42  1  0  0  0  0
 15 43  1  0  0  0  0
 16 44  1  0  0  0  0
 17 45  1  0  0  0  0
 18 46  1  0  0  0  0
 21 47  1  0  0  0  0
 21 48  1  0  0  0  0
 22 49  1  0  0  0  0
 22 50  1  0  0  0  0
 23 51  1  0  0  0  0
 23 52  1  0  0  0  0
 24 53  1  0  0  0  0
 24 54  1  0  0  0  0
 25 55  1  0  0  0  0
 25 56  1  0  0  0  0
 26 57  1  0  0  0  0
 31 58  1  0  0  0  0
M  END
> <clash_score>
0.7790931276820443

> <docking_score>
-9.701935768127441

> <overlap_score>
0.9542901515960693

$$$$
BENZO_328_1
  -OEChem-08232013463D

 55 59  0     1  0  0  0  0  0999 V2000
    9.0720   -1.1280   24.8640 C   0  0  0  0  0  0  0  0  0  0  0  0
    9.7200   -2.2600   22.8630 C   0  0  0  0  0  0  0  0  0  0  0  0
    8.9960   -2.3380   25.5320 C   0  0  0  0  0  0  0  0  0  0  0  0
    9.6730   -3.4710   23.5300 C   0  0  0  0  0  0  0  0  0  0  0  0
    8.1909    3.8305   23.6088 C   0  0  0  0  0  0  0  0  0  0  0  0
    8.6676    5.0367   23.1446 C   0  0  0  0  0  0  0  0  0  0  0  0
   10.2789    3.2112   22.7970 C   0  0  0  0  0  0  0  0  0  0  0  0
    9.3350   -1.0880   23.5010 C   0  0  0  0  0  0  0  0  0  0  0  0
    9.1243    2.7729   23.4076 C   0  0  0  0  0  0  0  0  0  0  0  0
    9.3070   -3.5340   24.8780 C   0  0  0  0  0  0  0  0  0  0  0  0
    5.8300    0.9190   18.6970 C   0  0  0  0  0  0  0  0  0  0  0  0
    7.3170   -0.1610   19.8550 C   0  0  0  0  0  0  0  0  0  0  0  0
    4.6890    1.6810   18.4640 C   0  0  0  0  0  0  0  0  0  0  0  0
    3.9160    2.0630   19.5520 C   0  0  0  0  0  0  0  0  0  0  0  0
    4.2750    1.7050   20.8490 C   0  0  0  0  0  0  0  0  0  0  0  0
    5.4210    0.9600   21.0930 C   0  0  0  0  0  0  0  0  0  0  0  0
    8.3596   -5.0075   26.6307 C   0  0  0  0  0  0  0  0  0  0  0  0
    9.0420    0.3700   21.5280 C   0  0  0  0  0  0  0  0  0  0  0  0
    8.4579   -6.4048   27.2167 C   0  0  0  0  0  0  0  0  0  0  0  0
    8.4717   -7.4504   26.1157 C   0  0  0  0  0  0  0  0  0  0  0  0
    9.5645   -7.1893   25.0840 C   0  0  0  0  0  0  0  0  0  0  0  0
   10.2327   -5.8252   25.2500 C   0  0  0  0  0  0  0  0  0  0  0  0
    8.8746    1.3393   23.8159 C   0  0  0  0  0  0  0  0  0  0  0  0
    9.4560    0.1560   22.8130 C   0  0  1  0  0  0  0  0  0  0  0  0
    6.7580    0.3810   17.8350 N   0  0  0  0  0  0  0  0  0  0  0  0
    7.6390   -0.2680   18.5410 N   0  0  0  0  0  0  0  0  0  0  0  0
    6.1790    0.5730   19.9990 N   0  0  0  0  0  0  0  0  0  0  0  0
    9.2529   -4.7799   25.5644 N   0  0  0  0  0  0  0  0  0  0  0  0
    8.1890   -0.7180   20.8700 N   0  0  0  0  0  0  0  0  0  0  0  0
    7.5989   -4.1866   27.1423 O   0  0  0  0  0  0  0  0  0  0  0  0
    9.2690    1.4140   20.9380 O   0  0  0  0  0  0  0  0  0  0  0  0
   10.2345    4.8913   22.4694 S   0  0  0  0  0  0  0  0  0  0  0  0
    8.9202   -0.1986   25.4206 H   0  0  0  0  0  0  0  0  0  0  0  0
   10.0631   -2.2319   21.8252 H   0  0  0  0  0  0  0  0  0  0  0  0
    8.6898   -2.3534   26.5810 H   0  0  0  0  0  0  0  0  0  0  0  0
    9.9254   -4.3899   22.9914 H   0  0  0  0  0  0  0  0  0  0  0  0
    7.2179    3.7166   24.0697 H   0  0  0  0  0  0  0  0  0  0  0  0
    8.1705    5.9961   23.1691 H   0  0  0  0  0  0  0  0  0  0  0  0
   11.1481    2.6284   22.5250 H   0  0  0  0  0  0  0  0  0  0  0  0
    4.3967    1.9772   17.4718 H   0  0  0  0  0  0  0  0  0  0  0  0
    3.0218    2.6486   19.3697 H   0  0  0  0  0  0  0  0  0  0  0  0
    3.6566    2.0043   21.7065 H   0  0  0  0  0  0  0  0  0  0  0  0
    5.7190    0.6877   22.0810 H   0  0  0  0  0  0  0  0  0  0  0  0
    9.3705   -6.4746   27.7883 H   0  0  0  0  0  0  0  0  0  0  0  0
    7.6054   -6.5499   27.8634 H   0  0  0  0  0  0  0  0  0  0  0  0
    8.6096   -8.4605   26.5547 H   0  0  0  0  0  0  0  0  0  0  0  0
    7.4835   -7.4764   25.6139 H   0  0  0  0  0  0  0  0  0  0  0  0
   10.3359   -7.9850   25.1529 H   0  0  0  0  0  0  0  0  0  0  0  0
    9.1459   -7.2795   24.0580 H   0  0  0  0  0  0  0  0  0  0  0  0
   10.9408   -5.8640   26.0724 H   0  0  0  0  0  0  0  0  0  0  0  0
   10.7522   -5.5631   24.3346 H   0  0  0  0  0  0  0  0  0  0  0  0
    9.2322    1.1871   24.8426 H   0  0  0  0  0  0  0  0  0  0  0  0
    7.7874    1.1856   23.8602 H   0  0  0  0  0  0  0  0  0  0  0  0
   10.6111    0.4644   22.8838 H   0  0  0  0  0  0  0  0  0  0  0  0
    8.2585   -1.5522   21.1129 H   0  0  0  0  0  0  0  0  0  0  0  0
  1  3  2  0  0  0  0
  1  8  1  0  0  0  0
  2  4  1  0  0  0  0
  2  8  2  0  0  0  0
  3 10  1  0  0  0  0
  4 10  2  0  0  0  0
  5  6  2  0  0  0  0
  5  9  1  0  0  0  0
  6 32  1  0  0  0  0
  7  9  2  0  0  0  0
  7 32  1  0  0  0  0
  8 24  1  0  0  0  0
  9 23  1  0  0  0  0
 10 28  1  0  0  0  0
 11 13  1  0  0  0  0
 11 25  2  0  0  0  0
 11 27  1  0  0  0  0
 12 26  2  0  0  0  0
 12 27  1  0  0  0  0
 12 29  1  0  0  0  0
 13 14  2  0  0  0  0
 14 15  1  0  0  0  0
 15 16  2  0  0  0  0
 16 27  1  0  0  0  0
 17 19  1  0  0  0  0
 17 28  1  0  0  0  0
 17 30  2  0  0  0  0
 18 24  1  1  0  0  0
 18 29  1  0  0  0  0
 18 31  2  0  0  0  0
 19 20  1  0  0  0  0
 20 21  1  0  0  0  0
 21 22  1  0  0  0  0
 22 28  1  0  0  0  0
 23 24  1  0  0  0  0
 25 26  1  0  0  0  0
  1 33  1  0  0  0  0
  2 34  1  0  0  0  0
  3 35  1  0  0  0  0
  4 36  1  0  0  0  0
  5 37  1  0  0  0  0
  6 38  1  0  0  0  0
  7 39  1  0  0  0  0
 13 40  1  0  0  0  0
 14 41  1  0  0  0  0
 15 42  1  0  0  0  0
 16 43  1  0  0  0  0
 19 44  1  0  0  0  0
 19 45  1  0  0  0  0
 20 46  1  0  0  0  0
 20 47  1  0  0  0  0
 21 48  1  0  0  0  0
 21 49  1  0  0  0  0
 22 50  1  0  0  0  0
 22 51  1  0  0  0  0
 23 52  1  0  0  0  0
 23 53  1  0  0  0  0
 24 54  1  0  0  0  0
 29 55  1  0  0  0  0
M  END
> <clash_score>
0.6354372295654396

> <docking_score>
-6.493332862854004

> <overlap_score>
0.8692851066589355

$$$$
BENZO_328_2
  -OEChem-08232013463D

 55 59  0     1  0  0  0  0  0999 V2000
    9.0720   -1.1280   24.8640 C   0  0  0  0  0  0  0  0  0  0  0  0
    9.7200   -2.2600   22.8630 C   0  0  0  0  0  0  0  0  0  0  0  0
    8.9960   -2.3380   25.5320 C   0  0  0  0  0  0  0  0  0  0  0  0
    9.6730   -3.4710   23.5300 C   0  0  0  0  0  0  0  0  0  0  0  0
   11.9814    2.9163   22.1204 C   0  0  0  0  0  0  0  0  0  0  0  0
   11.9562    4.2724   22.3614 C   0  0  0  0  0  0  0  0  0  0  0  0
   10.5621    3.0244   23.9579 C   0  0  0  0  0  0  0  0  0  0  0  0
    9.3350   -1.0880   23.5010 C   0  0  0  0  0  0  0  0  0  0  0  0
   11.1738    2.1933   23.0451 C   0  0  0  0  0  0  0  0  0  0  0  0
    9.3070   -3.5340   24.8780 C   0  0  0  0  0  0  0  0  0  0  0  0
    5.8300    0.9190   18.6970 C   0  0  0  0  0  0  0  0  0  0  0  0
    7.3170   -0.1610   19.8550 C   0  0  0  0  0  0  0  0  0  0  0  0
    4.6890    1.6810   18.4640 C   0  0  0  0  0  0  0  0  0  0  0  0
    3.9160    2.0630   19.5520 C   0  0  0  0  0  0  0  0  0  0  0  0
    4.2750    1.7050   20.8490 C   0  0  0  0  0  0  0  0  0  0  0  0
    5.4210    0.9600   21.0930 C   0  0  0  0  0  0  0  0  0  0  0  0
    8.3596   -5.0074   26.6306 C   0  0  0  0  0  0  0  0  0  0  0  0
    9.0420    0.3700   21.5280 C   0  0  0  0  0  0  0  0  0  0  0  0
    8.4719   -6.3982   27.2294 C   0  0  0  0  0  0  0  0  0  0  0  0
    9.9251   -6.7607   27.4801 C   0  0  0  0  0  0  0  0  0  0  0  0
   10.7833   -6.6095   26.2280 C   0  0  0  0  0  0  0  0  0  0  0  0
   10.0539   -5.9100   25.0821 C   0  0  0  0  0  0  0  0  0  0  0  0
   11.0096    0.6909   23.0257 C   0  0  0  0  0  0  0  0  0  0  0  0
    9.4560    0.1560   22.8130 C   0  0  2  0  0  0  0  0  0  0  0  0
    6.7580    0.3810   17.8350 N   0  0  0  0  0  0  0  0  0  0  0  0
    7.6390   -0.2680   18.5410 N   0  0  0  0  0  0  0  0  0  0  0  0
    6.1790    0.5730   19.9990 N   0  0  0  0  0  0  0  0  0  0  0  0
    9.2529   -4.7797   25.5643 N   0  0  0  0  0  0  0  0  0  0  0  0
    8.1890   -0.7180   20.8700 N   0  0  0  0  0  0  0  0  0  0  0  0
    7.4954   -4.2357   27.0448 O   0  0  0  0  0  0  0  0  0  0  0  0
    9.2690    1.4140   20.9380 O   0  0  0  0  0  0  0  0  0  0  0  0
   10.9619    4.6690   23.6979 S   0  0  0  0  0  0  0  0  0  0  0  0
    8.9202   -0.1986   25.4206 H   0  0  0  0  0  0  0  0  0  0  0  0
   10.0631   -2.2319   21.8252 H   0  0  0  0  0  0  0  0  0  0  0  0
    8.6898   -2.3534   26.5810 H   0  0  0  0  0  0  0  0  0  0  0  0
    9.9254   -4.3899   22.9914 H   0  0  0  0  0  0  0  0  0  0  0  0
   12.5539    2.4685   21.3179 H   0  0  0  0  0  0  0  0  0  0  0  0
   12.4745    5.0491   21.8171 H   0  0  0  0  0  0  0  0  0  0  0  0
    9.9000    2.7485   24.7669 H   0  0  0  0  0  0  0  0  0  0  0  0
    4.3967    1.9772   17.4718 H   0  0  0  0  0  0  0  0  0  0  0  0
    3.0218    2.6486   19.3697 H   0  0  0  0  0  0  0  0  0  0  0  0
    3.6566    2.0043   21.7065 H   0  0  0  0  0  0  0  0  0  0  0  0
    5.7190    0.6877   22.0810 H   0  0  0  0  0  0  0  0  0  0  0  0
    7.9324   -6.4149   28.1639 H   0  0  0  0  0  0  0  0  0  0  0  0
    8.0254   -7.0921   26.5330 H   0  0  0  0  0  0  0  0  0  0  0  0
   10.3386   -6.1268   28.2921 H   0  0  0  0  0  0  0  0  0  0  0  0
    9.9903   -7.8025   27.8535 H   0  0  0  0  0  0  0  0  0  0  0  0
   11.7036   -6.0405   26.4770 H   0  0  0  0  0  0  0  0  0  0  0  0
   11.1411   -7.6069   25.8917 H   0  0  0  0  0  0  0  0  0  0  0  0
   10.7783   -5.5162   24.3756 H   0  0  0  0  0  0  0  0  0  0  0  0
    9.4042   -6.6189   24.5805 H   0  0  0  0  0  0  0  0  0  0  0  0
   11.6022    0.2720   22.2019 H   0  0  0  0  0  0  0  0  0  0  0  0
   11.4622    0.2902   23.9433 H   0  0  0  0  0  0  0  0  0  0  0  0
    8.9292    0.9747   23.5105 H   0  0  0  0  0  0  0  0  0  0  0  0
    8.2585   -1.5522   21.1129 H   0  0  0  0  0  0  0  0  0  0  0  0
  1  3  2  0  0  0  0
  1  8  1  0  0  0  0
  2  4  1  0  0  0  0
  2  8  2  0  0  0  0
  3 10  1  0  0  0  0
  4 10  2  0  0  0  0
  5  6  2  0  0  0  0
  5  9  1  0  0  0  0
  6 32  1  0  0  0  0
  7  9  2  0  0  0  0
  7 32  1  0  0  0  0
  8 24  1  0  0  0  0
  9 23  1  0  0  0  0
 10 28  1  0  0  0  0
 11 13  1  0  0  0  0
 11 25  2  0  0  0  0
 11 27  1  0  0  0  0
 12 26  2  0  0  0  0
 12 27  1  0  0  0  0
 12 29  1  0  0  0  0
 13 14  2  0  0  0  0
 14 15  1  0  0  0  0
 15 16  2  0  0  0  0
 16 27  1  0  0  0  0
 17 19  1  0  0  0  0
 17 28  1  0  0  0  0
 17 30  2  0  0  0  0
 18 24  1  6  0  0  0
 18 29  1  0  0  0  0
 18 31  2  0  0  0  0
 19 20  1  0  0  0  0
 20 21  1  0  0  0  0
 21 22  1  0  0  0  0
 22 28  1  0  0  0  0
 23 24  1  0  0  0  0
 25 26  1  0  0  0  0
  1 33  1  0  0  0  0
  2 34  1  0  0  0  0
  3 35  1  0  0  0  0
  4 36  1  0  0  0  0
  5 37  1  0  0  0  0
  6 38  1  0  0  0  0
  7 39  1  0  0  0  0
 13 40  1  0  0  0  0
 14 41  1  0  0  0  0
 15 42  1  0  0  0  0
 16 43  1  0  0  0  0
 19 44  1  0  0  0  0
 19 45  1  0  0  0  0
 20 46  1  0  0  0  0
 20 47  1  0  0  0  0
 21 48  1  0  0  0  0
 21 49  1  0  0  0  0
 22 50  1  0  0  0  0
 22 51  1  0  0  0  0
 23 52  1  0  0  0  0
 23 53  1  0  0  0  0
 24 54  1  0  0  0  0
 29 55  1  0  0  0  0
M  END
> <clash_score>
0.7790931276820443

> <docking_score>
-8.759891510009766

> <overlap_score>
0.9418492913246155

$$$$
BENZO_330_1
  -OEChem-08232013463D

 58 62  0     1  0  0  0  0  0999 V2000
   10.4915    4.4215   22.2897 C   0  0  0  0  0  0  0  0  0  0  0  0
   10.2611    3.0988   22.6678 C   0  0  0  0  0  0  0  0  0  0  0  0
    9.0720   -1.1280   24.8640 C   0  0  0  0  0  0  0  0  0  0  0  0
    9.7200   -2.2600   22.8630 C   0  0  0  0  0  0  0  0  0  0  0  0
    8.9960   -2.3380   25.5320 C   0  0  0  0  0  0  0  0  0  0  0  0
    9.6730   -3.4710   23.5300 C   0  0  0  0  0  0  0  0  0  0  0  0
    9.5854    5.4184   22.6515 C   0  0  0  0  0  0  0  0  0  0  0  0
    8.2181    3.7697   23.7693 C   0  0  0  0  0  0  0  0  0  0  0  0
    9.3350   -1.0880   23.5010 C   0  0  0  0  0  0  0  0  0  0  0  0
    9.1243    2.7729   23.4076 C   0  0  0  0  0  0  0  0  0  0  0  0
    9.3070   -3.5340   24.8780 C   0  0  0  0  0  0  0  0  0  0  0  0
    8.4486    5.0924   23.3912 C   0  0  0  0  0  0  0  0  0  0  0  0
    5.8300    0.9190   18.6970 C   0  0  0  0  0  0  0  0  0  0  0  0
    7.3170   -0.1610   19.8550 C   0  0  0  0  0  0  0  0  0  0  0  0
    4.6890    1.6810   18.4640 C   0  0  0  0  0  0  0  0  0  0  0  0
    3.9160    2.0630   19.5520 C   0  0  0  0  0  0  0  0  0  0  0  0
    4.2750    1.7050   20.8490 C   0  0  0  0  0  0  0  0  0  0  0  0
    5.4210    0.9600   21.0930 C   0  0  0  0  0  0  0  0  0  0  0  0
    8.3596   -5.0075   26.6307 C   0  0  0  0  0  0  0  0  0  0  0  0
    9.0420    0.3700   21.5280 C   0  0  0  0  0  0  0  0  0  0  0  0
    8.4579   -6.4048   27.2167 C   0  0  0  0  0  0  0  0  0  0  0  0
    8.4717   -7.4504   26.1157 C   0  0  0  0  0  0  0  0  0  0  0  0
    9.5645   -7.1893   25.0840 C   0  0  0  0  0  0  0  0  0  0  0  0
   10.2327   -5.8252   25.2500 C   0  0  0  0  0  0  0  0  0  0  0  0
    8.8746    1.3393   23.8159 C   0  0  0  0  0  0  0  0  0  0  0  0
    9.4560    0.1560   22.8130 C   0  0  1  0  0  0  0  0  0  0  0  0
    6.7580    0.3810   17.8350 N   0  0  0  0  0  0  0  0  0  0  0  0
    7.6390   -0.2680   18.5410 N   0  0  0  0  0  0  0  0  0  0  0  0
    6.1790    0.5730   19.9990 N   0  0  0  0  0  0  0  0  0  0  0  0
    9.2529   -4.7799   25.5644 N   0  0  0  0  0  0  0  0  0  0  0  0
    8.1890   -0.7180   20.8700 N   0  0  0  0  0  0  0  0  0  0  0  0
    7.5989   -4.1866   27.1423 O   0  0  0  0  0  0  0  0  0  0  0  0
    9.2690    1.4140   20.9380 O   0  0  0  0  0  0  0  0  0  0  0  0
    7.3303    6.3225   23.8362 Cl  0  0  0  0  0  0  0  0  0  0  0  0
   11.3768    4.6749   21.7135 H   0  0  0  0  0  0  0  0  0  0  0  0
   10.9725    2.3286   22.3815 H   0  0  0  0  0  0  0  0  0  0  0  0
    8.9202   -0.1986   25.4206 H   0  0  0  0  0  0  0  0  0  0  0  0
   10.0631   -2.2319   21.8252 H   0  0  0  0  0  0  0  0  0  0  0  0
    8.6898   -2.3534   26.5810 H   0  0  0  0  0  0  0  0  0  0  0  0
    9.9254   -4.3899   22.9914 H   0  0  0  0  0  0  0  0  0  0  0  0
    9.7777    6.4450   22.3496 H   0  0  0  0  0  0  0  0  0  0  0  0
    7.3335    3.5106   24.3466 H   0  0  0  0  0  0  0  0  0  0  0  0
    4.3967    1.9772   17.4718 H   0  0  0  0  0  0  0  0  0  0  0  0
    3.0218    2.6486   19.3697 H   0  0  0  0  0  0  0  0  0  0  0  0
    3.6566    2.0043   21.7065 H   0  0  0  0  0  0  0  0  0  0  0  0
    5.7190    0.6877   22.0810 H   0  0  0  0  0  0  0  0  0  0  0  0
    9.3705   -6.4746   27.7883 H   0  0  0  0  0  0  0  0  0  0  0  0
    7.6054   -6.5499   27.8634 H   0  0  0  0  0  0  0  0  0  0  0  0
    8.6096   -8.4605   26.5547 H   0  0  0  0  0  0  0  0  0  0  0  0
    7.4835   -7.4764   25.6139 H   0  0  0  0  0  0  0  0  0  0  0  0
   10.3359   -7.9850   25.1529 H   0  0  0  0  0  0  0  0  0  0  0  0
    9.1459   -7.2795   24.0580 H   0  0  0  0  0  0  0  0  0  0  0  0
   10.9408   -5.8640   26.0724 H   0  0  0  0  0  0  0  0  0  0  0  0
   10.7522   -5.5631   24.3346 H   0  0  0  0  0  0  0  0  0  0  0  0
    9.2322    1.1871   24.8426 H   0  0  0  0  0  0  0  0  0  0  0  0
    7.7874    1.1856   23.8602 H   0  0  0  0  0  0  0  0  0  0  0  0
   10.6111    0.4644   22.8838 H   0  0  0  0  0  0  0  0  0  0  0  0
    8.2585   -1.5522   21.1129 H   0  0  0  0  0  0  0  0  0  0  0  0
  1  2  2  0  0  0  0
  1  7  1  0  0  0  0
  2 10  1  0  0  0  0
  3  5  2  0  0  0  0
  3  9  1  0  0  0  0
  4  6  1  0  0  0  0
  4  9  2  0  0  0  0
  5 11  1  0  0  0  0
  6 11  2  0  0  0  0
  7 12  2  0  0  0  0
  8 10  2  0  0  0  0
  8 12  1  0  0  0  0
  9 26  1  0  0  0  0
 10 25  1  0  0  0  0
 11 30  1  0  0  0  0
 12 34  1  0  0  0  0
 13 15  1  0  0  0  0
 13 27  2  0  0  0  0
 13 29  1  0  0  0  0
 14 28  2  0  0  0  0
 14 29  1  0  0  0  0
 14 31  1  0  0  0  0
 15 16  2  0  0  0  0
 16 17  1  0  0  0  0
 17 18  2  0  0  0  0
 18 29  1  0  0  0  0
 19 21  1  0  0  0  0
 19 30  1  0  0  0  0
 19 32  2  0  0  0  0
 20 26  1  1  0  0  0
 20 31  1  0  0  0  0
 20 33  2  0  0  0  0
 21 22  1  0  0  0  0
 22 23  1  0  0  0  0
 23 24  1  0  0  0  0
 24 30  1  0  0  0  0
 25 26  1  0  0  0  0
 27 28  1  0  0  0  0
  1 35  1  0  0  0  0
  2 36  1  0  0  0  0
  3 37  1  0  0  0  0
  4 38  1  0  0  0  0
  5 39  1  0  0  0  0
  6 40  1  0  0  0  0
  7 41  1  0  0  0  0
  8 42  1  0  0  0  0
 15 43  1  0  0  0  0
 16 44  1  0  0  0  0
 17 45  1  0  0  0  0
 18 46  1  0  0  0  0
 21 47  1  0  0  0  0
 21 48  1  0  0  0  0
 22 49  1  0  0  0  0
 22 50  1  0  0  0  0
 23 51  1  0  0  0  0
 23 52  1  0  0  0  0
 24 53  1  0  0  0  0
 24 54  1  0  0  0  0
 25 55  1  0  0  0  0
 25 56  1  0  0  0  0
 26 57  1  0  0  0  0
 31 58  1  0  0  0  0
M  END
> <clash_score>
0.6354372295654396

> <docking_score>
-5.982631206512451

> <overlap_score>
0.8687323331832886

$$$$
BENZO_331_2
  -OEChem-08232013463D

 58 62  0     1  0  0  0  0  0999 V2000
    9.0720   -1.1280   24.8640 C   0  0  0  0  0  0  0  0  0  0  0  0
    9.7200   -2.2600   22.8630 C   0  0  0  0  0  0  0  0  0  0  0  0
    8.9960   -2.3380   25.5320 C   0  0  0  0  0  0  0  0  0  0  0  0
    9.6730   -3.4710   23.5300 C   0  0  0  0  0  0  0  0  0  0  0  0
    8.3074    3.5997   22.6132 C   0  0  0  0  0  0  0  0  0  0  0  0
   10.2002    3.5628   23.7317 C   0  0  0  0  0  0  0  0  0  0  0  0
    9.3350   -1.0880   23.5010 C   0  0  0  0  0  0  0  0  0  0  0  0
    9.1243    2.7729   23.4076 C   0  0  0  0  0  0  0  0  0  0  0  0
    9.3070   -3.5340   24.8780 C   0  0  0  0  0  0  0  0  0  0  0  0
    5.8300    0.9190   18.6970 C   0  0  0  0  0  0  0  0  0  0  0  0
    7.3170   -0.1610   19.8550 C   0  0  0  0  0  0  0  0  0  0  0  0
    4.6890    1.6810   18.4640 C   0  0  0  0  0  0  0  0  0  0  0  0
    3.9160    2.0630   19.5520 C   0  0  0  0  0  0  0  0  0  0  0  0
    4.2750    1.7050   20.8490 C   0  0  0  0  0  0  0  0  0  0  0  0
    5.4210    0.9600   21.0930 C   0  0  0  0  0  0  0  0  0  0  0  0
    8.3596   -5.0075   26.6307 C   0  0  0  0  0  0  0  0  0  0  0  0
    9.0420    0.3700   21.5280 C   0  0  0  0  0  0  0  0  0  0  0  0
    8.4579   -6.4048   27.2167 C   0  0  0  0  0  0  0  0  0  0  0  0
    8.4717   -7.4504   26.1157 C   0  0  0  0  0  0  0  0  0  0  0  0
    9.5645   -7.1893   25.0840 C   0  0  0  0  0  0  0  0  0  0  0  0
   10.2327   -5.8252   25.2500 C   0  0  0  0  0  0  0  0  0  0  0  0
   10.8289    5.9272   23.1904 C   0  0  0  0  0  0  0  0  0  0  0  0
    8.8746    1.3393   23.8159 C   0  0  0  0  0  0  0  0  0  0  0  0
    9.4560    0.1560   22.8130 C   0  0  2  0  0  0  0  0  0  0  0  0
    8.8204    4.8212   22.4432 N   0  0  0  0  0  0  0  0  0  0  0  0
    6.7580    0.3810   17.8350 N   0  0  0  0  0  0  0  0  0  0  0  0
    7.6390   -0.2680   18.5410 N   0  0  0  0  0  0  0  0  0  0  0  0
    9.9711    4.7678   23.1353 N   0  0  0  0  0  0  0  0  0  0  0  0
    6.1790    0.5730   19.9990 N   0  0  0  0  0  0  0  0  0  0  0  0
    9.2529   -4.7799   25.5644 N   0  0  0  0  0  0  0  0  0  0  0  0
    8.1890   -0.7180   20.8700 N   0  0  0  0  0  0  0  0  0  0  0  0
    7.5989   -4.1866   27.1423 O   0  0  0  0  0  0  0  0  0  0  0  0
    9.2690    1.4140   20.9380 O   0  0  0  0  0  0  0  0  0  0  0  0
    8.9202   -0.1986   25.4206 H   0  0  0  0  0  0  0  0  0  0  0  0
   10.0631   -2.2319   21.8252 H   0  0  0  0  0  0  0  0  0  0  0  0
    8.6898   -2.3534   26.5810 H   0  0  0  0  0  0  0  0  0  0  0  0
    9.9254   -4.3899   22.9914 H   0  0  0  0  0  0  0  0  0  0  0  0
    7.3589    3.3656   22.1509 H   0  0  0  0  0  0  0  0  0  0  0  0
   11.0867    3.3751   24.3223 H   0  0  0  0  0  0  0  0  0  0  0  0
    4.3967    1.9772   17.4718 H   0  0  0  0  0  0  0  0  0  0  0  0
    3.0218    2.6486   19.3697 H   0  0  0  0  0  0  0  0  0  0  0  0
    3.6566    2.0043   21.7065 H   0  0  0  0  0  0  0  0  0  0  0  0
    5.7190    0.6877   22.0810 H   0  0  0  0  0  0  0  0  0  0  0  0
    9.3705   -6.4746   27.7883 H   0  0  0  0  0  0  0  0  0  0  0  0
    7.6054   -6.5499   27.8634 H   0  0  0  0  0  0  0  0  0  0  0  0
    8.6096   -8.4605   26.5547 H   0  0  0  0  0  0  0  0  0  0  0  0
    7.4835   -7.4764   25.6139 H   0  0  0  0  0  0  0  0  0  0  0  0
   10.3359   -7.9850   25.1529 H   0  0  0  0  0  0  0  0  0  0  0  0
    9.1459   -7.2795   24.0580 H   0  0  0  0  0  0  0  0  0  0  0  0
   10.9408   -5.8640   26.0724 H   0  0  0  0  0  0  0  0  0  0  0  0
   10.7522   -5.5631   24.3346 H   0  0  0  0  0  0  0  0  0  0  0  0
   11.5266    5.8708   22.3507 H   0  0  0  0  0  0  0  0  0  0  0  0
   10.2208    6.8335   23.1219 H   0  0  0  0  0  0  0  0  0  0  0  0
   11.3712    5.9307   24.1400 H   0  0  0  0  0  0  0  0  0  0  0  0
    9.2322    1.1871   24.8426 H   0  0  0  0  0  0  0  0  0  0  0  0
    7.7874    1.1856   23.8602 H   0  0  0  0  0  0  0  0  0  0  0  0
   10.6111    0.4644   22.8838 H   0  0  0  0  0  0  0  0  0  0  0  0
    8.2585   -1.5522   21.1129 H   0  0  0  0  0  0  0  0  0  0  0  0
  1  3  2  0  0  0  0
  1  7  1  0  0  0  0
  2  4  1  0  0  0  0
  2  7  2  0  0  0  0
  3  9  1  0  0  0  0
  4  9  2  0  0  0  0
  5  8  1  0  0  0  0
  5 25  2  0  0  0  0
  6  8  2  0  0  0  0
  6 28  1  0  0  0  0
  7 24  1  0  0  0  0
  8 23  1  0  0  0  0
  9 30  1  0  0  0  0
 10 12  1  0  0  0  0
 10 26  2  0  0  0  0
 10 29  1  0  0  0  0
 11 27  2  0  0  0  0
 11 29  1  0  0  0  0
 11 31  1  0  0  0  0
 12 13  2  0  0  0  0
 13 14  1  0  0  0  0
 14 15  2  0  0  0  0
 15 29  1  0  0  0  0
 16 18  1  0  0  0  0
 16 30  1  0  0  0  0
 16 32  2  0  0  0  0
 17 24  1  0  0  0  0
 17 31  1  0  0  0  0
 17 33  2  0  0  0  0
 18 19  1  0  0  0  0
 19 20  1  0  0  0  0
 20 21  1  0  0  0  0
 21 30  1  0  0  0  0
 22 28  1  0  0  0  0
 23 24  1  6  0  0  0
 25 28  1  0  0  0  0
 26 27  1  0  0  0  0
  1 34  1  0  0  0  0
  2 35  1  0  0  0  0
  3 36  1  0  0  0  0
  4 37  1  0  0  0  0
  5 38  1  0  0  0  0
  6 39  1  0  0  0  0
 12 40  1  0  0  0  0
 13 41  1  0  0  0  0
 14 42  1  0  0  0  0
 15 43  1  0  0  0  0
 18 44  1  0  0  0  0
 18 45  1  0  0  0  0
 19 46  1  0  0  0  0
 19 47  1  0  0  0  0
 20 48  1  0  0  0  0
 20 49  1  0  0  0  0
 21 50  1  0  0  0  0
 21 51  1  0  0  0  0
 22 52  1  0  0  0  0
 22 53  1  0  0  0  0
 22 54  1  0  0  0  0
 23 55  1  0  0  0  0
 23 56  1  0  0  0  0
 24 57  1  0  0  0  0
 31 58  1  0  0  0  0
M  END
> <clash_score>
0.6354372295654396

> <docking_score>
-7.012152194976807

> <overlap_score>
0.8631774187088013

$$$$
BENZO_333_1
  -OEChem-08232013463D

 57 61  0     1  0  0  0  0  0999 V2000
   11.1941    2.2526   27.3210 C   0  0  0  0  0  0  0  0  0  0  0  0
    9.8088    2.4148   27.3399 C   0  0  0  0  0  0  0  0  0  0  0  0
   11.8270    1.7944   26.1655 C   0  0  0  0  0  0  0  0  0  0  0  0
    9.0564    2.1187   26.2033 C   0  0  0  0  0  0  0  0  0  0  0  0
   11.0746    1.4983   25.0288 C   0  0  0  0  0  0  0  0  0  0  0  0
    9.0720   -1.1280   24.8640 C   0  0  0  0  0  0  0  0  0  0  0  0
    9.7200   -2.2600   22.8630 C   0  0  0  0  0  0  0  0  0  0  0  0
    8.9960   -2.3380   25.5320 C   0  0  0  0  0  0  0  0  0  0  0  0
    9.6730   -3.4710   23.5300 C   0  0  0  0  0  0  0  0  0  0  0  0
    9.6893    1.6605   25.0477 C   0  0  0  0  0  0  0  0  0  0  0  0
    9.3350   -1.0880   23.5010 C   0  0  0  0  0  0  0  0  0  0  0  0
    9.3070   -3.5340   24.8780 C   0  0  0  0  0  0  0  0  0  0  0  0
    5.8300    0.9190   18.6970 C   0  0  0  0  0  0  0  0  0  0  0  0
    7.3170   -0.1610   19.8550 C   0  0  0  0  0  0  0  0  0  0  0  0
    4.6890    1.6810   18.4640 C   0  0  0  0  0  0  0  0  0  0  0  0
    3.9160    2.0630   19.5520 C   0  0  0  0  0  0  0  0  0  0  0  0
    4.2750    1.7050   20.8490 C   0  0  0  0  0  0  0  0  0  0  0  0
    5.4210    0.9600   21.0930 C   0  0  0  0  0  0  0  0  0  0  0  0
    9.0420    0.3700   21.5280 C   0  0  0  0  0  0  0  0  0  0  0  0
    8.8802   -4.8468   26.9522 C   0  0  0  0  0  0  0  0  0  0  0  0
    9.1312   -5.9971   24.8013 C   0  0  0  0  0  0  0  0  0  0  0  0
    7.4537   -5.3795   27.0345 C   0  0  0  0  0  0  0  0  0  0  0  0
    7.6970   -6.5030   24.9624 C   0  0  0  0  0  0  0  0  0  0  0  0
    8.8746    1.3393   23.8158 C   0  0  0  0  0  0  0  0  0  0  0  0
    9.4560    0.1560   22.8130 C   0  0  1  0  0  0  0  0  0  0  0  0
    6.7580    0.3810   17.8350 N   0  0  0  0  0  0  0  0  0  0  0  0
    7.6390   -0.2680   18.5410 N   0  0  0  0  0  0  0  0  0  0  0  0
    6.1790    0.5730   19.9990 N   0  0  0  0  0  0  0  0  0  0  0  0
    9.2564   -4.7368   25.5411 N   0  0  0  0  0  0  0  0  0  0  0  0
    8.1890   -0.7180   20.8700 N   0  0  0  0  0  0  0  0  0  0  0  0
    9.2690    1.4140   20.9380 O   0  0  0  0  0  0  0  0  0  0  0  0
    7.3604   -6.6337   26.3481 O   0  0  0  0  0  0  0  0  0  0  0  0
   11.7799    2.4844   28.2057 H   0  0  0  0  0  0  0  0  0  0  0  0
    9.3160    2.7725   28.2392 H   0  0  0  0  0  0  0  0  0  0  0  0
   12.9056    1.6690   26.1501 H   0  0  0  0  0  0  0  0  0  0  0  0
    7.9776    2.2479   26.2272 H   0  0  0  0  0  0  0  0  0  0  0  0
   11.5762    1.1418   24.1331 H   0  0  0  0  0  0  0  0  0  0  0  0
    8.9214   -0.1986   25.4206 H   0  0  0  0  0  0  0  0  0  0  0  0
   10.0622   -2.2326   21.8251 H   0  0  0  0  0  0  0  0  0  0  0  0
    8.6882   -2.3542   26.5803 H   0  0  0  0  0  0  0  0  0  0  0  0
    9.9258   -4.3896   22.9914 H   0  0  0  0  0  0  0  0  0  0  0  0
    4.3967    1.9772   17.4718 H   0  0  0  0  0  0  0  0  0  0  0  0
    3.0218    2.6486   19.3697 H   0  0  0  0  0  0  0  0  0  0  0  0
    3.6566    2.0043   21.7065 H   0  0  0  0  0  0  0  0  0  0  0  0
    5.7190    0.6877   22.0810 H   0  0  0  0  0  0  0  0  0  0  0  0
    8.9362   -3.8759   27.4489 H   0  0  0  0  0  0  0  0  0  0  0  0
    9.5593   -5.5413   27.4538 H   0  0  0  0  0  0  0  0  0  0  0  0
    9.8251   -6.7295   25.2159 H   0  0  0  0  0  0  0  0  0  0  0  0
    9.3501   -5.8539   23.7441 H   0  0  0  0  0  0  0  0  0  0  0  0
    7.1818   -5.5525   28.0779 H   0  0  0  0  0  0  0  0  0  0  0  0
    6.7334   -4.6727   26.6129 H   0  0  0  0  0  0  0  0  0  0  0  0
    6.9790   -5.8386   24.4676 H   0  0  0  0  0  0  0  0  0  0  0  0
    7.6015   -7.4918   24.5034 H   0  0  0  0  0  0  0  0  0  0  0  0
    7.8399    1.1224   24.1118 H   0  0  0  0  0  0  0  0  0  0  0  0
    8.8176    2.2492   23.2023 H   0  0  0  0  0  0  0  0  0  0  0  0
   10.6111    0.4645   22.8838 H   0  0  0  0  0  0  0  0  0  0  0  0
    8.2585   -1.5522   21.1129 H   0  0  0  0  0  0  0  0  0  0  0  0
  1  2  1  0  0  0  0
  1  3  2  0  0  0  0
  2  4  2  0  0  0  0
  3  5  1  0  0  0  0
  4 10  1  0  0  0  0
  5 10  2  0  0  0  0
  6  8  2  0  0  0  0
  6 11  1  0  0  0  0
  7  9  1  0  0  0  0
  7 11  2  0  0  0  0
  8 12  1  0  0  0  0
  9 12  2  0  0  0  0
 10 24  1  0  0  0  0
 11 25  1  0  0  0  0
 12 29  1  0  0  0  0
 13 15  1  0  0  0  0
 13 26  2  0  0  0  0
 13 28  1  0  0  0  0
 14 27  2  0  0  0  0
 14 28  1  0  0  0  0
 14 30  1  0  0  0  0
 15 16  2  0  0  0  0
 16 17  1  0  0  0  0
 17 18  2  0  0  0  0
 18 28  1  0  0  0  0
 19 25  1  1  0  0  0
 19 30  1  0  0  0  0
 19 31  2  0  0  0  0
 20 22  1  0  0  0  0
 20 29  1  0  0  0  0
 21 23  1  0  0  0  0
 21 29  1  0  0  0  0
 22 32  1  0  0  0  0
 23 32  1  0  0  0  0
 24 25  1  0  0  0  0
 26 27  1  0  0  0  0
  1 33  1  0  0  0  0
  2 34  1  0  0  0  0
  3 35  1  0  0  0  0
  4 36  1  0  0  0  0
  5 37  1  0  0  0  0
  6 38  1  0  0  0  0
  7 39  1  0  0  0  0
  8 40  1  0  0  0  0
  9 41  1  0  0  0  0
 15 42  1  0  0  0  0
 16 43  1  0  0  0  0
 17 44  1  0  0  0  0
 18 45  1  0  0  0  0
 20 46  1  0  0  0  0
 20 47  1  0  0  0  0
 21 48  1  0  0  0  0
 21 49  1  0  0  0  0
 22 50  1  0  0  0  0
 22 51  1  0  0  0  0
 23 52  1  0  0  0  0
 23 53  1  0  0  0  0
 24 54  1  0  0  0  0
 24 55  1  0  0  0  0
 25 56  1  0  0  0  0
 30 57  1  0  0  0  0
M  END
> <clash_score>
5.275540369421406

> <docking_score>
-5.785201072692871

> <overlap_score>
0.8608978390693665

$$$$
BENZO_332_1
  -OEChem-08232013463D

 54 58  0     1  0  0  0  0  0999 V2000
    9.0720   -1.1280   24.8640 C   0  0  0  0  0  0  0  0  0  0  0  0
    9.7200   -2.2600   22.8630 C   0  0  0  0  0  0  0  0  0  0  0  0
    8.9960   -2.3380   25.5320 C   0  0  0  0  0  0  0  0  0  0  0  0
    9.6730   -3.4710   23.5300 C   0  0  0  0  0  0  0  0  0  0  0  0
   10.3203    3.2228   22.7771 C   0  0  0  0  0  0  0  0  0  0  0  0
   10.2891    4.5743   22.5128 C   0  0  0  0  0  0  0  0  0  0  0  0
    8.2246    3.7981   23.6013 C   0  0  0  0  0  0  0  0  0  0  0  0
    9.3350   -1.0880   23.5010 C   0  0  0  0  0  0  0  0  0  0  0  0
    9.1243    2.7729   23.4075 C   0  0  0  0  0  0  0  0  0  0  0  0
    9.3070   -3.5340   24.8780 C   0  0  0  0  0  0  0  0  0  0  0  0
    5.8300    0.9190   18.6970 C   0  0  0  0  0  0  0  0  0  0  0  0
    7.3170   -0.1610   19.8550 C   0  0  0  0  0  0  0  0  0  0  0  0
    4.6890    1.6810   18.4640 C   0  0  0  0  0  0  0  0  0  0  0  0
    3.9160    2.0630   19.5520 C   0  0  0  0  0  0  0  0  0  0  0  0
    4.2750    1.7050   20.8490 C   0  0  0  0  0  0  0  0  0  0  0  0
    5.4210    0.9600   21.0930 C   0  0  0  0  0  0  0  0  0  0  0  0
    9.0420    0.3700   21.5280 C   0  0  0  0  0  0  0  0  0  0  0  0
    8.8802   -4.8468   26.9522 C   0  0  0  0  0  0  0  0  0  0  0  0
    9.1312   -5.9971   24.8013 C   0  0  0  0  0  0  0  0  0  0  0  0
    7.4537   -5.3795   27.0345 C   0  0  0  0  0  0  0  0  0  0  0  0
    7.6970   -6.5030   24.9624 C   0  0  0  0  0  0  0  0  0  0  0  0
    8.8746    1.3393   23.8158 C   0  0  0  0  0  0  0  0  0  0  0  0
    9.4560    0.1560   22.8130 C   0  0  1  0  0  0  0  0  0  0  0  0
    6.7580    0.3810   17.8350 N   0  0  0  0  0  0  0  0  0  0  0  0
    7.6390   -0.2680   18.5410 N   0  0  0  0  0  0  0  0  0  0  0  0
    6.1790    0.5730   19.9990 N   0  0  0  0  0  0  0  0  0  0  0  0
    9.2564   -4.7368   25.5411 N   0  0  0  0  0  0  0  0  0  0  0  0
    8.1890   -0.7180   20.8700 N   0  0  0  0  0  0  0  0  0  0  0  0
    9.2690    1.4140   20.9380 O   0  0  0  0  0  0  0  0  0  0  0  0
    7.3604   -6.6337   26.3481 O   0  0  0  0  0  0  0  0  0  0  0  0
    8.8224    5.2953   23.0240 S   0  0  0  0  0  0  0  0  0  0  0  0
    8.9214   -0.1986   25.4206 H   0  0  0  0  0  0  0  0  0  0  0  0
   10.0622   -2.2326   21.8251 H   0  0  0  0  0  0  0  0  0  0  0  0
    8.6882   -2.3542   26.5803 H   0  0  0  0  0  0  0  0  0  0  0  0
    9.9258   -4.3896   22.9914 H   0  0  0  0  0  0  0  0  0  0  0  0
   11.1634    2.5905   22.5286 H   0  0  0  0  0  0  0  0  0  0  0  0
   11.0576    5.1730   22.0446 H   0  0  0  0  0  0  0  0  0  0  0  0
    7.2445    3.7440   24.0547 H   0  0  0  0  0  0  0  0  0  0  0  0
    4.3967    1.9772   17.4718 H   0  0  0  0  0  0  0  0  0  0  0  0
    3.0218    2.6486   19.3697 H   0  0  0  0  0  0  0  0  0  0  0  0
    3.6566    2.0043   21.7065 H   0  0  0  0  0  0  0  0  0  0  0  0
    5.7190    0.6877   22.0810 H   0  0  0  0  0  0  0  0  0  0  0  0
    8.9362   -3.8759   27.4489 H   0  0  0  0  0  0  0  0  0  0  0  0
    9.5593   -5.5413   27.4538 H   0  0  0  0  0  0  0  0  0  0  0  0
    9.8251   -6.7295   25.2159 H   0  0  0  0  0  0  0  0  0  0  0  0
    9.3501   -5.8539   23.7441 H   0  0  0  0  0  0  0  0  0  0  0  0
    7.1818   -5.5525   28.0779 H   0  0  0  0  0  0  0  0  0  0  0  0
    6.7334   -4.6727   26.6129 H   0  0  0  0  0  0  0  0  0  0  0  0
    6.9790   -5.8386   24.4676 H   0  0  0  0  0  0  0  0  0  0  0  0
    7.6015   -7.4918   24.5034 H   0  0  0  0  0  0  0  0  0  0  0  0
    9.2322    1.1871   24.8426 H   0  0  0  0  0  0  0  0  0  0  0  0
    7.7874    1.1856   23.8601 H   0  0  0  0  0  0  0  0  0  0  0  0
   10.6111    0.4645   22.8838 H   0  0  0  0  0  0  0  0  0  0  0  0
    8.2585   -1.5522   21.1129 H   0  0  0  0  0  0  0  0  0  0  0  0
  1  3  2  0  0  0  0
  1  8  1  0  0  0  0
  2  4  1  0  0  0  0
  2  8  2  0  0  0  0
  3 10  1  0  0  0  0
  4 10  2  0  0  0  0
  5  6  2  0  0  0  0
  5  9  1  0  0  0  0
  6 31  1  0  0  0  0
  7  9  2  0  0  0  0
  7 31  1  0  0  0  0
  8 23  1  0  0  0  0
  9 22  1  0  0  0  0
 10 27  1  0  0  0  0
 11 13  1  0  0  0  0
 11 24  2  0  0  0  0
 11 26  1  0  0  0  0
 12 25  2  0  0  0  0
 12 26  1  0  0  0  0
 12 28  1  0  0  0  0
 13 14  2  0  0  0  0
 14 15  1  0  0  0  0
 15 16  2  0  0  0  0
 16 26  1  0  0  0  0
 17 23  1  1  0  0  0
 17 28  1  0  0  0  0
 17 29  2  0  0  0  0
 18 20  1  0  0  0  0
 18 27  1  0  0  0  0
 19 21  1  0  0  0  0
 19 27  1  0  0  0  0
 20 30  1  0  0  0  0
 21 30  1  0  0  0  0
 22 23  1  0  0  0  0
 24 25  1  0  0  0  0
  1 32  1  0  0  0  0
  2 33  1  0  0  0  0
  3 34  1  0  0  0  0
  4 35  1  0  0  0  0
  5 36  1  0  0  0  0
  6 37  1  0  0  0  0
  7 38  1  0  0  0  0
 13 39  1  0  0  0  0
 14 40  1  0  0  0  0
 15 41  1  0  0  0  0
 16 42  1  0  0  0  0
 18 43  1  0  0  0  0
 18 44  1  0  0  0  0
 19 45  1  0  0  0  0
 19 46  1  0  0  0  0
 20 47  1  0  0  0  0
 20 48  1  0  0  0  0
 21 49  1  0  0  0  0
 21 50  1  0  0  0  0
 22 51  1  0  0  0  0
 22 52  1  0  0  0  0
 23 53  1  0  0  0  0
 28 54  1  0  0  0  0
M  END
> <clash_score>
0

> <docking_score>
-7.597054958343506

> <overlap_score>
0.861058235168457

$$$$
BENZO_331_1
  -OEChem-08232013463D

 58 62  0     1  0  0  0  0  0999 V2000
    9.0720   -1.1280   24.8640 C   0  0  0  0  0  0  0  0  0  0  0  0
    9.7200   -2.2600   22.8630 C   0  0  0  0  0  0  0  0  0  0  0  0
    8.9960   -2.3380   25.5320 C   0  0  0  0  0  0  0  0  0  0  0  0
    9.6730   -3.4710   23.5300 C   0  0  0  0  0  0  0  0  0  0  0  0
   10.2449    3.1582   23.4787 C   0  0  0  0  0  0  0  0  0  0  0  0
   12.2661    2.9236   22.6452 C   0  0  0  0  0  0  0  0  0  0  0  0
    9.3350   -1.0880   23.5010 C   0  0  0  0  0  0  0  0  0  0  0  0
   11.1738    2.1933   23.0451 C   0  0  0  0  0  0  0  0  0  0  0  0
    9.3070   -3.5340   24.8780 C   0  0  0  0  0  0  0  0  0  0  0  0
    5.8300    0.9190   18.6970 C   0  0  0  0  0  0  0  0  0  0  0  0
    7.3170   -0.1610   19.8550 C   0  0  0  0  0  0  0  0  0  0  0  0
    4.6890    1.6810   18.4640 C   0  0  0  0  0  0  0  0  0  0  0  0
    3.9160    2.0630   19.5520 C   0  0  0  0  0  0  0  0  0  0  0  0
    4.2750    1.7050   20.8490 C   0  0  0  0  0  0  0  0  0  0  0  0
    5.4210    0.9600   21.0930 C   0  0  0  0  0  0  0  0  0  0  0  0
    8.3596   -5.0074   26.6306 C   0  0  0  0  0  0  0  0  0  0  0  0
    9.0420    0.3700   21.5280 C   0  0  0  0  0  0  0  0  0  0  0  0
    8.4719   -6.3982   27.2294 C   0  0  0  0  0  0  0  0  0  0  0  0
    9.9251   -6.7607   27.4801 C   0  0  0  0  0  0  0  0  0  0  0  0
   10.7833   -6.6095   26.2280 C   0  0  0  0  0  0  0  0  0  0  0  0
   10.0539   -5.9100   25.0821 C   0  0  0  0  0  0  0  0  0  0  0  0
   12.7722    5.3769   22.5853 C   0  0  0  0  0  0  0  0  0  0  0  0
   11.0096    0.6909   23.0257 C   0  0  0  0  0  0  0  0  0  0  0  0
    9.4560    0.1560   22.8130 C   0  0  1  0  0  0  0  0  0  0  0  0
   10.7069    4.4062   23.3651 N   0  0  0  0  0  0  0  0  0  0  0  0
    6.7580    0.3810   17.8350 N   0  0  0  0  0  0  0  0  0  0  0  0
    7.6390   -0.2680   18.5410 N   0  0  0  0  0  0  0  0  0  0  0  0
   11.9381    4.2306   22.8557 N   0  0  0  0  0  0  0  0  0  0  0  0
    6.1790    0.5730   19.9990 N   0  0  0  0  0  0  0  0  0  0  0  0
    9.2529   -4.7797   25.5643 N   0  0  0  0  0  0  0  0  0  0  0  0
    8.1890   -0.7180   20.8700 N   0  0  0  0  0  0  0  0  0  0  0  0
    7.4954   -4.2357   27.0448 O   0  0  0  0  0  0  0  0  0  0  0  0
    9.2690    1.4140   20.9380 O   0  0  0  0  0  0  0  0  0  0  0  0
    8.9202   -0.1986   25.4206 H   0  0  0  0  0  0  0  0  0  0  0  0
   10.0631   -2.2319   21.8252 H   0  0  0  0  0  0  0  0  0  0  0  0
    8.6898   -2.3534   26.5810 H   0  0  0  0  0  0  0  0  0  0  0  0
    9.9254   -4.3899   22.9914 H   0  0  0  0  0  0  0  0  0  0  0  0
    9.2505    3.0063   23.8739 H   0  0  0  0  0  0  0  0  0  0  0  0
   13.2256    2.6317   22.2400 H   0  0  0  0  0  0  0  0  0  0  0  0
    4.3967    1.9772   17.4718 H   0  0  0  0  0  0  0  0  0  0  0  0
    3.0218    2.6486   19.3697 H   0  0  0  0  0  0  0  0  0  0  0  0
    3.6566    2.0043   21.7065 H   0  0  0  0  0  0  0  0  0  0  0  0
    5.7190    0.6877   22.0810 H   0  0  0  0  0  0  0  0  0  0  0  0
    7.9324   -6.4149   28.1639 H   0  0  0  0  0  0  0  0  0  0  0  0
    8.0254   -7.0921   26.5330 H   0  0  0  0  0  0  0  0  0  0  0  0
   10.3386   -6.1268   28.2921 H   0  0  0  0  0  0  0  0  0  0  0  0
    9.9903   -7.8025   27.8535 H   0  0  0  0  0  0  0  0  0  0  0  0
   11.7036   -6.0405   26.4770 H   0  0  0  0  0  0  0  0  0  0  0  0
   11.1411   -7.6069   25.8917 H   0  0  0  0  0  0  0  0  0  0  0  0
   10.7783   -5.5162   24.3756 H   0  0  0  0  0  0  0  0  0  0  0  0
    9.4042   -6.6189   24.5805 H   0  0  0  0  0  0  0  0  0  0  0  0
   12.5768    5.7019   21.5599 H   0  0  0  0  0  0  0  0  0  0  0  0
   12.5325    6.1764   23.2919 H   0  0  0  0  0  0  0  0  0  0  0  0
   13.8223    5.0961   22.7050 H   0  0  0  0  0  0  0  0  0  0  0  0
   11.6022    0.2720   22.2019 H   0  0  0  0  0  0  0  0  0  0  0  0
   11.4622    0.2902   23.9433 H   0  0  0  0  0  0  0  0  0  0  0  0
    8.9292    0.9747   23.5105 H   0  0  0  0  0  0  0  0  0  0  0  0
    8.2585   -1.5522   21.1129 H   0  0  0  0  0  0  0  0  0  0  0  0
  1  3  2  0  0  0  0
  1  7  1  0  0  0  0
  2  4  1  0  0  0  0
  2  7  2  0  0  0  0
  3  9  1  0  0  0  0
  4  9  2  0  0  0  0
  5  8  1  0  0  0  0
  5 25  2  0  0  0  0
  6  8  2  0  0  0  0
  6 28  1  0  0  0  0
  7 24  1  0  0  0  0
  8 23  1  0  0  0  0
  9 30  1  0  0  0  0
 10 12  1  0  0  0  0
 10 26  2  0  0  0  0
 10 29  1  0  0  0  0
 11 27  2  0  0  0  0
 11 29  1  0  0  0  0
 11 31  1  0  0  0  0
 12 13  2  0  0  0  0
 13 14  1  0  0  0  0
 14 15  2  0  0  0  0
 15 29  1  0  0  0  0
 16 18  1  0  0  0  0
 16 30  1  0  0  0  0
 16 32  2  0  0  0  0
 17 24  1  0  0  0  0
 17 31  1  0  0  0  0
 17 33  2  0  0  0  0
 18 19  1  0  0  0  0
 19 20  1  0  0  0  0
 20 21  1  0  0  0  0
 21 30  1  0  0  0  0
 22 28  1  0  0  0  0
 23 24  1  1  0  0  0
 25 28  1  0  0  0  0
 26 27  1  0  0  0  0
  1 34  1  0  0  0  0
  2 35  1  0  0  0  0
  3 36  1  0  0  0  0
  4 37  1  0  0  0  0
  5 38  1  0  0  0  0
  6 39  1  0  0  0  0
 12 40  1  0  0  0  0
 13 41  1  0  0  0  0
 14 42  1  0  0  0  0
 15 43  1  0  0  0  0
 18 44  1  0  0  0  0
 18 45  1  0  0  0  0
 19 46  1  0  0  0  0
 19 47  1  0  0  0  0
 20 48  1  0  0  0  0
 20 49  1  0  0  0  0
 21 50  1  0  0  0  0
 21 51  1  0  0  0  0
 22 52  1  0  0  0  0
 22 53  1  0  0  0  0
 22 54  1  0  0  0  0
 23 55  1  0  0  0  0
 23 56  1  0  0  0  0
 24 57  1  0  0  0  0
 31 58  1  0  0  0  0
M  END
> <clash_score>
0.7790931276820443

> <docking_score>
-9.605002403259277

> <overlap_score>
0.9504612684249878

$$$$
BENZO_333_2
  -OEChem-08232013463D

 57 61  0     1  0  0  0  0  0999 V2000
   11.4754    4.9665   23.0809 C   0  0  0  0  0  0  0  0  0  0  0  0
   12.5124    4.1581   22.6155 C   0  0  0  0  0  0  0  0  0  0  0  0
   10.2875    4.3882   23.5284 C   0  0  0  0  0  0  0  0  0  0  0  0
   12.3617    2.7716   22.5975 C   0  0  0  0  0  0  0  0  0  0  0  0
   10.1367    3.0017   23.5105 C   0  0  0  0  0  0  0  0  0  0  0  0
    9.0720   -1.1280   24.8640 C   0  0  0  0  0  0  0  0  0  0  0  0
    9.7200   -2.2600   22.8630 C   0  0  0  0  0  0  0  0  0  0  0  0
    8.9960   -2.3380   25.5320 C   0  0  0  0  0  0  0  0  0  0  0  0
    9.6730   -3.4710   23.5300 C   0  0  0  0  0  0  0  0  0  0  0  0
   11.1738    2.1933   23.0450 C   0  0  0  0  0  0  0  0  0  0  0  0
    9.3350   -1.0880   23.5010 C   0  0  0  0  0  0  0  0  0  0  0  0
    9.3070   -3.5340   24.8780 C   0  0  0  0  0  0  0  0  0  0  0  0
    5.8300    0.9190   18.6970 C   0  0  0  0  0  0  0  0  0  0  0  0
    7.3170   -0.1610   19.8550 C   0  0  0  0  0  0  0  0  0  0  0  0
    4.6890    1.6810   18.4640 C   0  0  0  0  0  0  0  0  0  0  0  0
    3.9160    2.0630   19.5520 C   0  0  0  0  0  0  0  0  0  0  0  0
    4.2750    1.7050   20.8490 C   0  0  0  0  0  0  0  0  0  0  0  0
    5.4210    0.9600   21.0930 C   0  0  0  0  0  0  0  0  0  0  0  0
    9.0420    0.3700   21.5280 C   0  0  0  0  0  0  0  0  0  0  0  0
    9.5176   -4.8600   26.9769 C   0  0  0  0  0  0  0  0  0  0  0  0
    8.5166   -5.8725   24.9805 C   0  0  0  0  0  0  0  0  0  0  0  0
    8.1870   -5.0443   27.6986 C   0  0  0  0  0  0  0  0  0  0  0  0
    7.2201   -6.0348   25.7753 C   0  0  0  0  0  0  0  0  0  0  0  0
   11.0096    0.6909   23.0256 C   0  0  0  0  0  0  0  0  0  0  0  0
    9.4560    0.1560   22.8130 C   0  0  2  0  0  0  0  0  0  0  0  0
    6.7580    0.3810   17.8350 N   0  0  0  0  0  0  0  0  0  0  0  0
    7.6390   -0.2680   18.5410 N   0  0  0  0  0  0  0  0  0  0  0  0
    6.1790    0.5730   19.9990 N   0  0  0  0  0  0  0  0  0  0  0  0
    9.2564   -4.7368   25.5411 N   0  0  0  0  0  0  0  0  0  0  0  0
    8.1890   -0.7180   20.8700 N   0  0  0  0  0  0  0  0  0  0  0  0
    9.2690    1.4140   20.9380 O   0  0  0  0  0  0  0  0  0  0  0  0
    7.4995   -6.1856   27.1717 O   0  0  0  0  0  0  0  0  0  0  0  0
   11.5934    6.0460   23.0961 H   0  0  0  0  0  0  0  0  0  0  0  0
   13.4379    4.6081   22.2680 H   0  0  0  0  0  0  0  0  0  0  0  0
    9.4802    5.0172   23.8919 H   0  0  0  0  0  0  0  0  0  0  0  0
   13.1750    2.1496   22.2330 H   0  0  0  0  0  0  0  0  0  0  0  0
    9.2076    2.5600   23.8610 H   0  0  0  0  0  0  0  0  0  0  0  0
    8.9214   -0.1986   25.4206 H   0  0  0  0  0  0  0  0  0  0  0  0
   10.0622   -2.2326   21.8251 H   0  0  0  0  0  0  0  0  0  0  0  0
    8.6882   -2.3542   26.5803 H   0  0  0  0  0  0  0  0  0  0  0  0
    9.9258   -4.3896   22.9914 H   0  0  0  0  0  0  0  0  0  0  0  0
    4.3967    1.9772   17.4718 H   0  0  0  0  0  0  0  0  0  0  0  0
    3.0218    2.6486   19.3697 H   0  0  0  0  0  0  0  0  0  0  0  0
    3.6566    2.0043   21.7065 H   0  0  0  0  0  0  0  0  0  0  0  0
    5.7190    0.6877   22.0810 H   0  0  0  0  0  0  0  0  0  0  0  0
   10.0207   -3.9702   27.3608 H   0  0  0  0  0  0  0  0  0  0  0  0
   10.1536   -5.7313   27.1546 H   0  0  0  0  0  0  0  0  0  0  0  0
    9.1181   -6.7774   25.0751 H   0  0  0  0  0  0  0  0  0  0  0  0
    8.2812   -5.7063   23.9302 H   0  0  0  0  0  0  0  0  0  0  0  0
    8.3631   -5.2257   28.7609 H   0  0  0  0  0  0  0  0  0  0  0  0
    7.5532   -4.1574   27.6103 H   0  0  0  0  0  0  0  0  0  0  0  0
    6.5460   -5.1840   25.6220 H   0  0  0  0  0  0  0  0  0  0  0  0
    6.6948   -6.9355   25.4433 H   0  0  0  0  0  0  0  0  0  0  0  0
   11.6022    0.2720   22.2019 H   0  0  0  0  0  0  0  0  0  0  0  0
   11.4622    0.2902   23.9433 H   0  0  0  0  0  0  0  0  0  0  0  0
    8.9292    0.9747   23.5105 H   0  0  0  0  0  0  0  0  0  0  0  0
    8.2585   -1.5522   21.1129 H   0  0  0  0  0  0  0  0  0  0  0  0
  1  2  1  0  0  0  0
  1  3  2  0  0  0  0
  2  4  2  0  0  0  0
  3  5  1  0  0  0  0
  4 10  1  0  0  0  0
  5 10  2  0  0  0  0
  6  8  2  0  0  0  0
  6 11  1  0  0  0  0
  7  9  1  0  0  0  0
  7 11  2  0  0  0  0
  8 12  1  0  0  0  0
  9 12  2  0  0  0  0
 10 24  1  0  0  0  0
 11 25  1  0  0  0  0
 12 29  1  0  0  0  0
 13 15  1  0  0  0  0
 13 26  2  0  0  0  0
 13 28  1  0  0  0  0
 14 27  2  0  0  0  0
 14 28  1  0  0  0  0
 14 30  1  0  0  0  0
 15 16  2  0  0  0  0
 16 17  1  0  0  0  0
 17 18  2  0  0  0  0
 18 28  1  0  0  0  0
 19 25  1  6  0  0  0
 19 30  1  0  0  0  0
 19 31  2  0  0  0  0
 20 22  1  0  0  0  0
 20 29  1  0  0  0  0
 21 23  1  0  0  0  0
 21 29  1  0  0  0  0
 22 32  1  0  0  0  0
 23 32  1  0  0  0  0
 24 25  1  0  0  0  0
 26 27  1  0  0  0  0
  1 33  1  0  0  0  0
  2 34  1  0  0  0  0
  3 35  1  0  0  0  0
  4 36  1  0  0  0  0
  5 37  1  0  0  0  0
  6 38  1  0  0  0  0
  7 39  1  0  0  0  0
  8 40  1  0  0  0  0
  9 41  1  0  0  0  0
 15 42  1  0  0  0  0
 16 43  1  0  0  0  0
 17 44  1  0  0  0  0
 18 45  1  0  0  0  0
 20 46  1  0  0  0  0
 20 47  1  0  0  0  0
 21 48  1  0  0  0  0
 21 49  1  0  0  0  0
 22 50  1  0  0  0  0
 22 51  1  0  0  0  0
 23 52  1  0  0  0  0
 23 53  1  0  0  0  0
 24 54  1  0  0  0  0
 24 55  1  0  0  0  0
 25 56  1  0  0  0  0
 30 57  1  0  0  0  0
M  END
> <clash_score>
0

> <docking_score>
-10.64553451538086

> <overlap_score>
0.9441663026809692

$$$$
BENZO_330_2
  -OEChem-08232013463D

 58 62  0     1  0  0  0  0  0999 V2000
   10.2883    4.3880   23.5308 C   0  0  0  0  0  0  0  0  0  0  0  0
   10.1370    3.0015   23.5116 C   0  0  0  0  0  0  0  0  0  0  0  0
    9.0720   -1.1280   24.8640 C   0  0  0  0  0  0  0  0  0  0  0  0
    9.7200   -2.2600   22.8630 C   0  0  0  0  0  0  0  0  0  0  0  0
    8.9960   -2.3380   25.5320 C   0  0  0  0  0  0  0  0  0  0  0  0
    9.6730   -3.4710   23.5300 C   0  0  0  0  0  0  0  0  0  0  0  0
   11.4763    4.9663   23.0835 C   0  0  0  0  0  0  0  0  0  0  0  0
   12.3618    2.7715   22.5978 C   0  0  0  0  0  0  0  0  0  0  0  0
    9.3350   -1.0880   23.5010 C   0  0  0  0  0  0  0  0  0  0  0  0
   11.1738    2.1933   23.0451 C   0  0  0  0  0  0  0  0  0  0  0  0
    9.3070   -3.5340   24.8780 C   0  0  0  0  0  0  0  0  0  0  0  0
   12.5130    4.1580   22.6171 C   0  0  0  0  0  0  0  0  0  0  0  0
    5.8300    0.9190   18.6970 C   0  0  0  0  0  0  0  0  0  0  0  0
    7.3170   -0.1610   19.8550 C   0  0  0  0  0  0  0  0  0  0  0  0
    4.6890    1.6810   18.4640 C   0  0  0  0  0  0  0  0  0  0  0  0
    3.9160    2.0630   19.5520 C   0  0  0  0  0  0  0  0  0  0  0  0
    4.2750    1.7050   20.8490 C   0  0  0  0  0  0  0  0  0  0  0  0
    5.4210    0.9600   21.0930 C   0  0  0  0  0  0  0  0  0  0  0  0
    8.3596   -5.0074   26.6306 C   0  0  0  0  0  0  0  0  0  0  0  0
    9.0420    0.3700   21.5280 C   0  0  0  0  0  0  0  0  0  0  0  0
    8.4719   -6.3982   27.2294 C   0  0  0  0  0  0  0  0  0  0  0  0
    9.9251   -6.7607   27.4801 C   0  0  0  0  0  0  0  0  0  0  0  0
   10.7833   -6.6095   26.2280 C   0  0  0  0  0  0  0  0  0  0  0  0
   10.0539   -5.9100   25.0821 C   0  0  0  0  0  0  0  0  0  0  0  0
   11.0096    0.6909   23.0257 C   0  0  0  0  0  0  0  0  0  0  0  0
    9.4560    0.1560   22.8130 C   0  0  2  0  0  0  0  0  0  0  0  0
    6.7580    0.3810   17.8350 N   0  0  0  0  0  0  0  0  0  0  0  0
    7.6390   -0.2680   18.5410 N   0  0  0  0  0  0  0  0  0  0  0  0
    6.1790    0.5730   19.9990 N   0  0  0  0  0  0  0  0  0  0  0  0
    9.2529   -4.7797   25.5643 N   0  0  0  0  0  0  0  0  0  0  0  0
    8.1890   -0.7180   20.8700 N   0  0  0  0  0  0  0  0  0  0  0  0
    7.4954   -4.2357   27.0448 O   0  0  0  0  0  0  0  0  0  0  0  0
    9.2690    1.4140   20.9380 O   0  0  0  0  0  0  0  0  0  0  0  0
   13.9788    4.8720   22.0664 Cl  0  0  0  0  0  0  0  0  0  0  0  0
    9.4808    5.0170   23.8943 H   0  0  0  0  0  0  0  0  0  0  0  0
    9.2080    2.5596   23.8621 H   0  0  0  0  0  0  0  0  0  0  0  0
    8.9202   -0.1986   25.4206 H   0  0  0  0  0  0  0  0  0  0  0  0
   10.0631   -2.2319   21.8252 H   0  0  0  0  0  0  0  0  0  0  0  0
    8.6898   -2.3534   26.5810 H   0  0  0  0  0  0  0  0  0  0  0  0
    9.9254   -4.3899   22.9914 H   0  0  0  0  0  0  0  0  0  0  0  0
   11.5802    6.0483   23.1046 H   0  0  0  0  0  0  0  0  0  0  0  0
   13.1669    2.1370   22.2346 H   0  0  0  0  0  0  0  0  0  0  0  0
    4.3967    1.9772   17.4718 H   0  0  0  0  0  0  0  0  0  0  0  0
    3.0218    2.6486   19.3697 H   0  0  0  0  0  0  0  0  0  0  0  0
    3.6566    2.0043   21.7065 H   0  0  0  0  0  0  0  0  0  0  0  0
    5.7190    0.6877   22.0810 H   0  0  0  0  0  0  0  0  0  0  0  0
    7.9324   -6.4149   28.1639 H   0  0  0  0  0  0  0  0  0  0  0  0
    8.0254   -7.0921   26.5330 H   0  0  0  0  0  0  0  0  0  0  0  0
   10.3386   -6.1268   28.2921 H   0  0  0  0  0  0  0  0  0  0  0  0
    9.9903   -7.8025   27.8535 H   0  0  0  0  0  0  0  0  0  0  0  0
   11.7036   -6.0405   26.4770 H   0  0  0  0  0  0  0  0  0  0  0  0
   11.1411   -7.6069   25.8917 H   0  0  0  0  0  0  0  0  0  0  0  0
   10.7783   -5.5162   24.3756 H   0  0  0  0  0  0  0  0  0  0  0  0
    9.4042   -6.6189   24.5805 H   0  0  0  0  0  0  0  0  0  0  0  0
   11.6022    0.2720   22.2019 H   0  0  0  0  0  0  0  0  0  0  0  0
   11.4622    0.2902   23.9433 H   0  0  0  0  0  0  0  0  0  0  0  0
    8.9292    0.9747   23.5105 H   0  0  0  0  0  0  0  0  0  0  0  0
    8.2585   -1.5522   21.1129 H   0  0  0  0  0  0  0  0  0  0  0  0
  1  2  2  0  0  0  0
  1  7  1  0  0  0  0
  2 10  1  0  0  0  0
  3  5  2  0  0  0  0
  3  9  1  0  0  0  0
  4  6  1  0  0  0  0
  4  9  2  0  0  0  0
  5 11  1  0  0  0  0
  6 11  2  0  0  0  0
  7 12  2  0  0  0  0
  8 10  2  0  0  0  0
  8 12  1  0  0  0  0
  9 26  1  0  0  0  0
 10 25  1  0  0  0  0
 11 30  1  0  0  0  0
 12 34  1  0  0  0  0
 13 15  1  0  0  0  0
 13 27  2  0  0  0  0
 13 29  1  0  0  0  0
 14 28  2  0  0  0  0
 14 29  1  0  0  0  0
 14 31  1  0  0  0  0
 15 16  2  0  0  0  0
 16 17  1  0  0  0  0
 17 18  2  0  0  0  0
 18 29  1  0  0  0  0
 19 21  1  0  0  0  0
 19 30  1  0  0  0  0
 19 32  2  0  0  0  0
 20 26  1  6  0  0  0
 20 31  1  0  0  0  0
 20 33  2  0  0  0  0
 21 22  1  0  0  0  0
 22 23  1  0  0  0  0
 23 24  1  0  0  0  0
 24 30  1  0  0  0  0
 25 26  1  0  0  0  0
 27 28  1  0  0  0  0
  1 35  1  0  0  0  0
  2 36  1  0  0  0  0
  3 37  1  0  0  0  0
  4 38  1  0  0  0  0
  5 39  1  0  0  0  0
  6 40  1  0  0  0  0
  7 41  1  0  0  0  0
  8 42  1  0  0  0  0
 15 43  1  0  0  0  0
 16 44  1  0  0  0  0
 17 45  1  0  0  0  0
 18 46  1  0  0  0  0
 21 47  1  0  0  0  0
 21 48  1  0  0  0  0
 22 49  1  0  0  0  0
 22 50  1  0  0  0  0
 23 51  1  0  0  0  0
 23 52  1  0  0  0  0
 24 53  1  0  0  0  0
 24 54  1  0  0  0  0
 25 55  1  0  0  0  0
 25 56  1  0  0  0  0
 26 57  1  0  0  0  0
 31 58  1  0  0  0  0
M  END
> <clash_score>
0.7790931276820443

> <docking_score>
-10.13093376159668

> <overlap_score>
0.9551644921302795

$$$$
BENZO_332_2
  -OEChem-08232013463D

 54 58  0     1  0  0  0  0  0999 V2000
    9.0720   -1.1280   24.8640 C   0  0  0  0  0  0  0  0  0  0  0  0
    9.7200   -2.2600   22.8630 C   0  0  0  0  0  0  0  0  0  0  0  0
    8.9960   -2.3380   25.5320 C   0  0  0  0  0  0  0  0  0  0  0  0
    9.6730   -3.4710   23.5300 C   0  0  0  0  0  0  0  0  0  0  0  0
   11.9814    2.9163   22.1204 C   0  0  0  0  0  0  0  0  0  0  0  0
   11.9562    4.2724   22.3613 C   0  0  0  0  0  0  0  0  0  0  0  0
   10.5621    3.0244   23.9578 C   0  0  0  0  0  0  0  0  0  0  0  0
    9.3350   -1.0880   23.5010 C   0  0  0  0  0  0  0  0  0  0  0  0
   11.1738    2.1933   23.0450 C   0  0  0  0  0  0  0  0  0  0  0  0
    9.3070   -3.5340   24.8780 C   0  0  0  0  0  0  0  0  0  0  0  0
    5.8300    0.9190   18.6970 C   0  0  0  0  0  0  0  0  0  0  0  0
    7.3170   -0.1610   19.8550 C   0  0  0  0  0  0  0  0  0  0  0  0
    4.6890    1.6810   18.4640 C   0  0  0  0  0  0  0  0  0  0  0  0
    3.9160    2.0630   19.5520 C   0  0  0  0  0  0  0  0  0  0  0  0
    4.2750    1.7050   20.8490 C   0  0  0  0  0  0  0  0  0  0  0  0
    5.4210    0.9600   21.0930 C   0  0  0  0  0  0  0  0  0  0  0  0
    9.0420    0.3700   21.5280 C   0  0  0  0  0  0  0  0  0  0  0  0
    8.8802   -4.8468   26.9522 C   0  0  0  0  0  0  0  0  0  0  0  0
    9.1312   -5.9971   24.8013 C   0  0  0  0  0  0  0  0  0  0  0  0
    7.4537   -5.3795   27.0345 C   0  0  0  0  0  0  0  0  0  0  0  0
    7.6970   -6.5030   24.9624 C   0  0  0  0  0  0  0  0  0  0  0  0
   11.0096    0.6909   23.0256 C   0  0  0  0  0  0  0  0  0  0  0  0
    9.4560    0.1560   22.8130 C   0  0  2  0  0  0  0  0  0  0  0  0
    6.7580    0.3810   17.8350 N   0  0  0  0  0  0  0  0  0  0  0  0
    7.6390   -0.2680   18.5410 N   0  0  0  0  0  0  0  0  0  0  0  0
    6.1790    0.5730   19.9990 N   0  0  0  0  0  0  0  0  0  0  0  0
    9.2564   -4.7368   25.5411 N   0  0  0  0  0  0  0  0  0  0  0  0
    8.1890   -0.7180   20.8700 N   0  0  0  0  0  0  0  0  0  0  0  0
    9.2690    1.4140   20.9380 O   0  0  0  0  0  0  0  0  0  0  0  0
    7.3604   -6.6337   26.3481 O   0  0  0  0  0  0  0  0  0  0  0  0
   10.9619    4.6690   23.6978 S   0  0  0  0  0  0  0  0  0  0  0  0
    8.9214   -0.1986   25.4206 H   0  0  0  0  0  0  0  0  0  0  0  0
   10.0622   -2.2326   21.8251 H   0  0  0  0  0  0  0  0  0  0  0  0
    8.6882   -2.3542   26.5803 H   0  0  0  0  0  0  0  0  0  0  0  0
    9.9258   -4.3896   22.9914 H   0  0  0  0  0  0  0  0  0  0  0  0
   12.5539    2.4685   21.3179 H   0  0  0  0  0  0  0  0  0  0  0  0
   12.4745    5.0491   21.8170 H   0  0  0  0  0  0  0  0  0  0  0  0
    9.9000    2.7486   24.7669 H   0  0  0  0  0  0  0  0  0  0  0  0
    4.3967    1.9772   17.4718 H   0  0  0  0  0  0  0  0  0  0  0  0
    3.0218    2.6486   19.3697 H   0  0  0  0  0  0  0  0  0  0  0  0
    3.6566    2.0043   21.7065 H   0  0  0  0  0  0  0  0  0  0  0  0
    5.7190    0.6877   22.0810 H   0  0  0  0  0  0  0  0  0  0  0  0
    8.9362   -3.8759   27.4489 H   0  0  0  0  0  0  0  0  0  0  0  0
    9.5593   -5.5413   27.4538 H   0  0  0  0  0  0  0  0  0  0  0  0
    9.8251   -6.7295   25.2159 H   0  0  0  0  0  0  0  0  0  0  0  0
    9.3501   -5.8539   23.7441 H   0  0  0  0  0  0  0  0  0  0  0  0
    7.1818   -5.5525   28.0779 H   0  0  0  0  0  0  0  0  0  0  0  0
    6.7334   -4.6727   26.6129 H   0  0  0  0  0  0  0  0  0  0  0  0
    6.9790   -5.8386   24.4676 H   0  0  0  0  0  0  0  0  0  0  0  0
    7.6015   -7.4918   24.5034 H   0  0  0  0  0  0  0  0  0  0  0  0
   11.6022    0.2720   22.2019 H   0  0  0  0  0  0  0  0  0  0  0  0
   11.4622    0.2902   23.9433 H   0  0  0  0  0  0  0  0  0  0  0  0
    8.9292    0.9747   23.5105 H   0  0  0  0  0  0  0  0  0  0  0  0
    8.2585   -1.5522   21.1129 H   0  0  0  0  0  0  0  0  0  0  0  0
  1  3  2  0  0  0  0
  1  8  1  0  0  0  0
  2  4  1  0  0  0  0
  2  8  2  0  0  0  0
  3 10  1  0  0  0  0
  4 10  2  0  0  0  0
  5  6  2  0  0  0  0
  5  9  1  0  0  0  0
  6 31  1  0  0  0  0
  7  9  2  0  0  0  0
  7 31  1  0  0  0  0
  8 23  1  0  0  0  0
  9 22  1  0  0  0  0
 10 27  1  0  0  0  0
 11 13  1  0  0  0  0
 11 24  2  0  0  0  0
 11 26  1  0  0  0  0
 12 25  2  0  0  0  0
 12 26  1  0  0  0  0
 12 28  1  0  0  0  0
 13 14  2  0  0  0  0
 14 15  1  0  0  0  0
 15 16  2  0  0  0  0
 16 26  1  0  0  0  0
 17 23  1  6  0  0  0
 17 28  1  0  0  0  0
 17 29  2  0  0  0  0
 18 20  1  0  0  0  0
 18 27  1  0  0  0  0
 19 21  1  0  0  0  0
 19 27  1  0  0  0  0
 20 30  1  0  0  0  0
 21 30  1  0  0  0  0
 22 23  1  0  0  0  0
 24 25  1  0  0  0  0
  1 32  1  0  0  0  0
  2 33  1  0  0  0  0
  3 34  1  0  0  0  0
  4 35  1  0  0  0  0
  5 36  1  0  0  0  0
  6 37  1  0  0  0  0
  7 38  1  0  0  0  0
 13 39  1  0  0  0  0
 14 40  1  0  0  0  0
 15 41  1  0  0  0  0
 16 42  1  0  0  0  0
 18 43  1  0  0  0  0
 18 44  1  0  0  0  0
 19 45  1  0  0  0  0
 19 46  1  0  0  0  0
 20 47  1  0  0  0  0
 20 48  1  0  0  0  0
 21 49  1  0  0  0  0
 21 50  1  0  0  0  0
 22 51  1  0  0  0  0
 22 52  1  0  0  0  0
 23 53  1  0  0  0  0
 28 54  1  0  0  0  0
M  END
> <clash_score>
0

> <docking_score>
-9.718547821044922

> <overlap_score>
0.9365742802619934

$$$$
BENZO_337_1
  -OEChem-08232013463D

 52 55  0     0  0  0  0  0  0999 V2000
   14.2752    1.1804   23.9044 C   0  0  0  0  0  0  0  0  0  0  0  0
   13.5041    0.5023   24.8484 C   0  0  0  0  0  0  0  0  0  0  0  0
   13.6543    1.8926   22.8783 C   0  0  0  0  0  0  0  0  0  0  0  0
    3.9160    2.0630   19.5520 C   0  0  0  0  0  0  0  0  0  0  0  0
    4.2750    1.7050   20.8490 C   0  0  0  0  0  0  0  0  0  0  0  0
   12.1121    0.5362   24.7663 C   0  0  0  0  0  0  0  0  0  0  0  0
   12.2623    1.9266   22.7961 C   0  0  0  0  0  0  0  0  0  0  0  0
    4.6890    1.6810   18.4640 C   0  0  0  0  0  0  0  0  0  0  0  0
    5.4210    0.9600   21.0930 C   0  0  0  0  0  0  0  0  0  0  0  0
    9.0720   -1.1280   24.8640 C   0  0  0  0  0  0  0  0  0  0  0  0
    9.7200   -2.2600   22.8630 C   0  0  0  0  0  0  0  0  0  0  0  0
    8.9960   -2.3380   25.5320 C   0  0  0  0  0  0  0  0  0  0  0  0
    9.6730   -3.4710   23.5300 C   0  0  0  0  0  0  0  0  0  0  0  0
   11.4911    1.2484   23.7401 C   0  0  0  0  0  0  0  0  0  0  0  0
    5.8300    0.9190   18.6970 C   0  0  0  0  0  0  0  0  0  0  0  0
    6.1790    0.5730   19.9990 C   0  0  0  0  0  0  0  0  0  0  0  0
    9.3350   -1.0880   23.5010 C   0  0  0  0  0  0  0  0  0  0  0  0
    9.3070   -3.5340   24.8780 C   0  0  0  0  0  0  0  0  0  0  0  0
    9.0420    0.3700   21.5280 C   0  0  0  0  0  0  0  0  0  0  0  0
    8.0128   -5.2151   26.1416 C   0  0  0  0  0  0  0  0  0  0  0  0
   10.4372   -5.5860   25.6589 C   0  0  0  0  0  0  0  0  0  0  0  0
    9.9929    1.2851   23.6509 C   0  0  0  0  0  0  0  0  0  0  0  0
    8.1890   -0.7180   20.8700 C   0  0  0  0  0  0  0  0  0  0  0  0
    6.7580    0.3810   17.8350 N   0  0  0  0  0  0  0  0  0  0  0  0
    7.6390   -0.2680   18.5410 N   0  0  0  0  0  0  0  0  0  0  0  0
    7.3170   -0.1610   19.8550 N   0  0  0  0  0  0  0  0  0  0  0  0
    9.4560    0.1560   22.8130 N   0  0  0  0  0  0  0  0  0  0  0  0
    9.2543   -4.7552   25.5519 N   0  0  0  0  0  0  0  0  0  0  0  0
    9.2690    1.4140   20.9380 O   0  0  0  0  0  0  0  0  0  0  0  0
   15.3591    1.1550   23.9693 H   0  0  0  0  0  0  0  0  0  0  0  0
   13.9874   -0.0514   25.6481 H   0  0  0  0  0  0  0  0  0  0  0  0
   14.2543    2.4216   22.1438 H   0  0  0  0  0  0  0  0  0  0  0  0
    3.0136    2.6524   19.3909 H   0  0  0  0  0  0  0  0  0  0  0  0
    3.6477    2.0141   21.6817 H   0  0  0  0  0  0  0  0  0  0  0  0
   11.5194    0.0047   25.5061 H   0  0  0  0  0  0  0  0  0  0  0  0
   11.7872    2.4839   21.9931 H   0  0  0  0  0  0  0  0  0  0  0  0
    4.4041    1.9739   17.4524 H   0  0  0  0  0  0  0  0  0  0  0  0
    5.7107    0.6909   22.1141 H   0  0  0  0  0  0  0  0  0  0  0  0
    8.9217   -0.1995   25.4232 H   0  0  0  0  0  0  0  0  0  0  0  0
   10.0643   -2.2341   21.8254 H   0  0  0  0  0  0  0  0  0  0  0  0
    8.6893   -2.3540   26.5808 H   0  0  0  0  0  0  0  0  0  0  0  0
    9.9257   -4.3898   22.9921 H   0  0  0  0  0  0  0  0  0  0  0  0
    8.1744   -6.1904   26.6238 H   0  0  0  0  0  0  0  0  0  0  0  0
    7.6718   -4.4870   26.8924 H   0  0  0  0  0  0  0  0  0  0  0  0
    7.2494   -5.3166   25.3561 H   0  0  0  0  0  0  0  0  0  0  0  0
   10.1946   -6.4995   26.2216 H   0  0  0  0  0  0  0  0  0  0  0  0
   10.7865   -5.8578   24.6518 H   0  0  0  0  0  0  0  0  0  0  0  0
   11.2285   -5.0312   26.1842 H   0  0  0  0  0  0  0  0  0  0  0  0
    9.5448    1.2080   24.6476 H   0  0  0  0  0  0  0  0  0  0  0  0
    9.6483    2.2271   23.2115 H   0  0  0  0  0  0  0  0  0  0  0  0
    8.8255   -1.4531   20.3835 H   0  0  0  0  0  0  0  0  0  0  0  0
    7.5533   -1.1948   21.6123 H   0  0  0  0  0  0  0  0  0  0  0  0
  1  2  1  0  0  0  0
  1  3  2  0  0  0  0
  2  6  2  0  0  0  0
  3  7  1  0  0  0  0
  4  5  1  0  0  0  0
  4  8  2  0  0  0  0
  5  9  2  0  0  0  0
  6 14  1  0  0  0  0
  7 14  2  0  0  0  0
  8 15  1  0  0  0  0
  9 16  1  0  0  0  0
 10 12  2  0  0  0  0
 10 17  1  0  0  0  0
 11 13  1  0  0  0  0
 11 17  2  0  0  0  0
 12 18  1  0  0  0  0
 13 18  2  0  0  0  0
 14 22  1  0  0  0  0
 15 16  2  0  0  0  0
 15 24  1  0  0  0  0
 16 26  1  0  0  0  0
 17 27  1  0  0  0  0
 18 28  1  0  0  0  0
 19 23  1  0  0  0  0
 19 27  1  0  0  0  0
 19 29  2  0  0  0  0
 20 28  1  0  0  0  0
 21 28  1  0  0  0  0
 22 27  1  0  0  0  0
 23 26  1  0  0  0  0
 24 25  2  0  0  0  0
 25 26  1  0  0  0  0
  1 30  1  0  0  0  0
  2 31  1  0  0  0  0
  3 32  1  0  0  0  0
  4 33  1  0  0  0  0
  5 34  1  0  0  0  0
  6 35  1  0  0  0  0
  7 36  1  0  0  0  0
  8 37  1  0  0  0  0
  9 38  1  0  0  0  0
 10 39  1  0  0  0  0
 11 40  1  0  0  0  0
 12 41  1  0  0  0  0
 13 42  1  0  0  0  0
 20 43  1  0  0  0  0
 20 44  1  0  0  0  0
 20 45  1  0  0  0  0
 21 46  1  0  0  0  0
 21 47  1  0  0  0  0
 21 48  1  0  0  0  0
 22 49  1  0  0  0  0
 22 50  1  0  0  0  0
 23 51  1  0  0  0  0
 23 52  1  0  0  0  0
M  END
> <clash_score>
0

> <docking_score>
-10.111695289611816

> <overlap_score>
0.9756594896316528

$$$$
BENZO_336_1
  -OEChem-08232013463D

 49 52  0     0  0  0  0  0  0999 V2000
    3.9160    2.0630   19.5520 C   0  0  0  0  0  0  0  0  0  0  0  0
    4.2750    1.7050   20.8490 C   0  0  0  0  0  0  0  0  0  0  0  0
    4.6890    1.6810   18.4640 C   0  0  0  0  0  0  0  0  0  0  0  0
    5.4210    0.9600   21.0930 C   0  0  0  0  0  0  0  0  0  0  0  0
    9.0720   -1.1280   24.8640 C   0  0  0  0  0  0  0  0  0  0  0  0
    9.7200   -2.2600   22.8630 C   0  0  0  0  0  0  0  0  0  0  0  0
    8.9960   -2.3380   25.5320 C   0  0  0  0  0  0  0  0  0  0  0  0
    9.6730   -3.4710   23.5300 C   0  0  0  0  0  0  0  0  0  0  0  0
   12.3565    1.3288   22.6110 C   0  0  0  0  0  0  0  0  0  0  0  0
   13.6847    1.2712   22.9719 C   0  0  0  0  0  0  0  0  0  0  0  0
   12.1910    1.1321   24.9211 C   0  0  0  0  0  0  0  0  0  0  0  0
   11.4911    1.2484   23.7401 C   0  0  0  0  0  0  0  0  0  0  0  0
    5.8300    0.9190   18.6970 C   0  0  0  0  0  0  0  0  0  0  0  0
    6.1790    0.5730   19.9990 C   0  0  0  0  0  0  0  0  0  0  0  0
    9.3350   -1.0880   23.5010 C   0  0  0  0  0  0  0  0  0  0  0  0
    9.3070   -3.5340   24.8780 C   0  0  0  0  0  0  0  0  0  0  0  0
    9.0420    0.3700   21.5280 C   0  0  0  0  0  0  0  0  0  0  0  0
    8.8742   -4.8064   26.9496 C   0  0  0  0  0  0  0  0  0  0  0  0
    9.5655   -5.9897   24.8591 C   0  0  0  0  0  0  0  0  0  0  0  0
    9.9929    1.2851   23.6509 C   0  0  0  0  0  0  0  0  0  0  0  0
    8.1890   -0.7180   20.8700 C   0  0  0  0  0  0  0  0  0  0  0  0
    6.7580    0.3810   17.8350 N   0  0  0  0  0  0  0  0  0  0  0  0
    7.6390   -0.2680   18.5410 N   0  0  0  0  0  0  0  0  0  0  0  0
    7.3170   -0.1610   19.8550 N   0  0  0  0  0  0  0  0  0  0  0  0
    9.4560    0.1560   22.8130 N   0  0  0  0  0  0  0  0  0  0  0  0
    9.2543   -4.7552   25.5519 N   0  0  0  0  0  0  0  0  0  0  0  0
    9.2690    1.4140   20.9380 O   0  0  0  0  0  0  0  0  0  0  0  0
   13.8842    1.1207   24.6659 S   0  0  0  0  0  0  0  0  0  0  0  0
    3.0136    2.6524   19.3909 H   0  0  0  0  0  0  0  0  0  0  0  0
    3.6477    2.0141   21.6817 H   0  0  0  0  0  0  0  0  0  0  0  0
    4.4041    1.9739   17.4524 H   0  0  0  0  0  0  0  0  0  0  0  0
    5.7107    0.6909   22.1141 H   0  0  0  0  0  0  0  0  0  0  0  0
    8.9217   -0.1995   25.4232 H   0  0  0  0  0  0  0  0  0  0  0  0
   10.0643   -2.2341   21.8254 H   0  0  0  0  0  0  0  0  0  0  0  0
    8.6893   -2.3540   26.5808 H   0  0  0  0  0  0  0  0  0  0  0  0
    9.9257   -4.3898   22.9921 H   0  0  0  0  0  0  0  0  0  0  0  0
   12.0258    1.4237   21.5844 H   0  0  0  0  0  0  0  0  0  0  0  0
   14.5473    1.3097   22.3218 H   0  0  0  0  0  0  0  0  0  0  0  0
   11.7930    1.0520   25.9232 H   0  0  0  0  0  0  0  0  0  0  0  0
    8.8922   -5.8499   27.2971 H   0  0  0  0  0  0  0  0  0  0  0  0
    9.5819   -4.2099   27.5440 H   0  0  0  0  0  0  0  0  0  0  0  0
    7.8598   -4.3978   27.0688 H   0  0  0  0  0  0  0  0  0  0  0  0
    9.4683   -6.8360   25.5551 H   0  0  0  0  0  0  0  0  0  0  0  0
    8.8685   -6.1243   24.0189 H   0  0  0  0  0  0  0  0  0  0  0  0
   10.5961   -5.9459   24.4772 H   0  0  0  0  0  0  0  0  0  0  0  0
    9.5448    1.2080   24.6476 H   0  0  0  0  0  0  0  0  0  0  0  0
    9.6483    2.2271   23.2115 H   0  0  0  0  0  0  0  0  0  0  0  0
    8.8255   -1.4531   20.3835 H   0  0  0  0  0  0  0  0  0  0  0  0
    7.5533   -1.1948   21.6123 H   0  0  0  0  0  0  0  0  0  0  0  0
  1  2  1  0  0  0  0
  1  3  2  0  0  0  0
  2  4  2  0  0  0  0
  3 13  1  0  0  0  0
  4 14  1  0  0  0  0
  5  7  2  0  0  0  0
  5 15  1  0  0  0  0
  6  8  1  0  0  0  0
  6 15  2  0  0  0  0
  7 16  1  0  0  0  0
  8 16  2  0  0  0  0
  9 10  2  0  0  0  0
  9 12  1  0  0  0  0
 10 28  1  0  0  0  0
 11 12  2  0  0  0  0
 11 28  1  0  0  0  0
 12 20  1  0  0  0  0
 13 14  2  0  0  0  0
 13 22  1  0  0  0  0
 14 24  1  0  0  0  0
 15 25  1  0  0  0  0
 16 26  1  0  0  0  0
 17 21  1  0  0  0  0
 17 25  1  0  0  0  0
 17 27  2  0  0  0  0
 18 26  1  0  0  0  0
 19 26  1  0  0  0  0
 20 25  1  0  0  0  0
 21 24  1  0  0  0  0
 22 23  2  0  0  0  0
 23 24  1  0  0  0  0
  1 29  1  0  0  0  0
  2 30  1  0  0  0  0
  3 31  1  0  0  0  0
  4 32  1  0  0  0  0
  5 33  1  0  0  0  0
  6 34  1  0  0  0  0
  7 35  1  0  0  0  0
  8 36  1  0  0  0  0
  9 37  1  0  0  0  0
 10 38  1  0  0  0  0
 11 39  1  0  0  0  0
 18 40  1  0  0  0  0
 18 41  1  0  0  0  0
 18 42  1  0  0  0  0
 19 43  1  0  0  0  0
 19 44  1  0  0  0  0
 19 45  1  0  0  0  0
 20 46  1  0  0  0  0
 20 47  1  0  0  0  0
 21 48  1  0  0  0  0
 21 49  1  0  0  0  0
M  END
> <clash_score>
0

> <docking_score>
-9.974366188049316

> <overlap_score>
0.9606966376304626

$$$$
BENZO_339_1
  -OEChem-08232013463D

 52 55  0     0  0  0  0  0  0999 V2000
    3.9160    2.0630   19.5520 C   0  0  0  0  0  0  0  0  0  0  0  0
    4.2750    1.7050   20.8490 C   0  0  0  0  0  0  0  0  0  0  0  0
    4.6890    1.6810   18.4640 C   0  0  0  0  0  0  0  0  0  0  0  0
    5.4210    0.9600   21.0930 C   0  0  0  0  0  0  0  0  0  0  0  0
    9.0720   -1.1280   24.8640 C   0  0  0  0  0  0  0  0  0  0  0  0
    9.7200   -2.2600   22.8630 C   0  0  0  0  0  0  0  0  0  0  0  0
    8.9960   -2.3380   25.5320 C   0  0  0  0  0  0  0  0  0  0  0  0
    9.6730   -3.4710   23.5300 C   0  0  0  0  0  0  0  0  0  0  0  0
   12.4165    2.0766   23.0771 C   0  0  0  0  0  0  0  0  0  0  0  0
   12.2668    0.3989   24.4906 C   0  0  0  0  0  0  0  0  0  0  0  0
   11.4911    1.2484   23.7401 C   0  0  0  0  0  0  0  0  0  0  0  0
    5.8300    0.9190   18.6970 C   0  0  0  0  0  0  0  0  0  0  0  0
    6.1790    0.5730   19.9990 C   0  0  0  0  0  0  0  0  0  0  0  0
    9.3350   -1.0880   23.5010 C   0  0  0  0  0  0  0  0  0  0  0  0
    9.3070   -3.5340   24.8780 C   0  0  0  0  0  0  0  0  0  0  0  0
    9.0420    0.3700   21.5280 C   0  0  0  0  0  0  0  0  0  0  0  0
   14.7399    0.1471   24.8055 C   0  0  0  0  0  0  0  0  0  0  0  0
    8.0128   -5.2151   26.1416 C   0  0  0  0  0  0  0  0  0  0  0  0
   10.4372   -5.5860   25.6589 C   0  0  0  0  0  0  0  0  0  0  0  0
    9.9929    1.2851   23.6509 C   0  0  0  0  0  0  0  0  0  0  0  0
    8.1890   -0.7180   20.8700 C   0  0  0  0  0  0  0  0  0  0  0  0
   13.6832    1.7802   23.3799 N   0  0  0  0  0  0  0  0  0  0  0  0
    6.7580    0.3810   17.8350 N   0  0  0  0  0  0  0  0  0  0  0  0
    7.6390   -0.2680   18.5410 N   0  0  0  0  0  0  0  0  0  0  0  0
   13.5592    0.7562   24.2415 N   0  0  0  0  0  0  0  0  0  0  0  0
    7.3170   -0.1610   19.8550 N   0  0  0  0  0  0  0  0  0  0  0  0
    9.4560    0.1560   22.8130 N   0  0  0  0  0  0  0  0  0  0  0  0
    9.2543   -4.7552   25.5519 N   0  0  0  0  0  0  0  0  0  0  0  0
    9.2690    1.4140   20.9380 O   0  0  0  0  0  0  0  0  0  0  0  0
    3.0136    2.6524   19.3909 H   0  0  0  0  0  0  0  0  0  0  0  0
    3.6477    2.0141   21.6817 H   0  0  0  0  0  0  0  0  0  0  0  0
    4.4041    1.9739   17.4524 H   0  0  0  0  0  0  0  0  0  0  0  0
    5.7107    0.6909   22.1141 H   0  0  0  0  0  0  0  0  0  0  0  0
    8.9217   -0.1995   25.4232 H   0  0  0  0  0  0  0  0  0  0  0  0
   10.0643   -2.2341   21.8254 H   0  0  0  0  0  0  0  0  0  0  0  0
    8.6893   -2.3540   26.5808 H   0  0  0  0  0  0  0  0  0  0  0  0
    9.9257   -4.3898   22.9921 H   0  0  0  0  0  0  0  0  0  0  0  0
   12.2231    2.8850   22.3862 H   0  0  0  0  0  0  0  0  0  0  0  0
   12.0153   -0.4085   25.1650 H   0  0  0  0  0  0  0  0  0  0  0  0
   15.0484   -0.6665   24.1438 H   0  0  0  0  0  0  0  0  0  0  0  0
   15.5328    0.8959   24.8861 H   0  0  0  0  0  0  0  0  0  0  0  0
   14.5072   -0.2369   25.8026 H   0  0  0  0  0  0  0  0  0  0  0  0
    8.1744   -6.1904   26.6238 H   0  0  0  0  0  0  0  0  0  0  0  0
    7.6718   -4.4870   26.8924 H   0  0  0  0  0  0  0  0  0  0  0  0
    7.2494   -5.3166   25.3561 H   0  0  0  0  0  0  0  0  0  0  0  0
   10.1946   -6.4995   26.2216 H   0  0  0  0  0  0  0  0  0  0  0  0
   10.7865   -5.8578   24.6518 H   0  0  0  0  0  0  0  0  0  0  0  0
   11.2285   -5.0312   26.1842 H   0  0  0  0  0  0  0  0  0  0  0  0
    9.5448    1.2080   24.6476 H   0  0  0  0  0  0  0  0  0  0  0  0
    9.6483    2.2271   23.2115 H   0  0  0  0  0  0  0  0  0  0  0  0
    8.8255   -1.4531   20.3835 H   0  0  0  0  0  0  0  0  0  0  0  0
    7.5533   -1.1948   21.6123 H   0  0  0  0  0  0  0  0  0  0  0  0
  1  2  1  0  0  0  0
  1  3  2  0  0  0  0
  2  4  2  0  0  0  0
  3 12  1  0  0  0  0
  4 13  1  0  0  0  0
  5  7  2  0  0  0  0
  5 14  1  0  0  0  0
  6  8  1  0  0  0  0
  6 14  2  0  0  0  0
  7 15  1  0  0  0  0
  8 15  2  0  0  0  0
  9 11  1  0  0  0  0
  9 22  2  0  0  0  0
 10 11  2  0  0  0  0
 10 25  1  0  0  0  0
 11 20  1  0  0  0  0
 12 13  2  0  0  0  0
 12 23  1  0  0  0  0
 13 26  1  0  0  0  0
 14 27  1  0  0  0  0
 15 28  1  0  0  0  0
 16 21  1  0  0  0  0
 16 27  1  0  0  0  0
 16 29  2  0  0  0  0
 17 25  1  0  0  0  0
 18 28  1  0  0  0  0
 19 28  1  0  0  0  0
 20 27  1  0  0  0  0
 21 26  1  0  0  0  0
 22 25  1  0  0  0  0
 23 24  2  0  0  0  0
 24 26  1  0  0  0  0
  1 30  1  0  0  0  0
  2 31  1  0  0  0  0
  3 32  1  0  0  0  0
  4 33  1  0  0  0  0
  5 34  1  0  0  0  0
  6 35  1  0  0  0  0
  7 36  1  0  0  0  0
  8 37  1  0  0  0  0
  9 38  1  0  0  0  0
 10 39  1  0  0  0  0
 17 40  1  0  0  0  0
 17 41  1  0  0  0  0
 17 42  1  0  0  0  0
 18 43  1  0  0  0  0
 18 44  1  0  0  0  0
 18 45  1  0  0  0  0
 19 46  1  0  0  0  0
 19 47  1  0  0  0  0
 19 48  1  0  0  0  0
 20 49  1  0  0  0  0
 20 50  1  0  0  0  0
 21 51  1  0  0  0  0
 21 52  1  0  0  0  0
M  END
> <clash_score>
0

> <docking_score>
-9.608519554138184

> <overlap_score>
0.9745228886604309

$$$$
BENZO_338_1
  -OEChem-08232013463D

 52 55  0     0  0  0  0  0  0999 V2000
    3.9160    2.0630   19.5520 C   0  0  0  0  0  0  0  0  0  0  0  0
    4.2750    1.7050   20.8490 C   0  0  0  0  0  0  0  0  0  0  0  0
   13.6473    2.1218   23.0883 C   0  0  0  0  0  0  0  0  0  0  0  0
   12.2554    2.1546   23.0050 C   0  0  0  0  0  0  0  0  0  0  0  0
    4.6890    1.6810   18.4640 C   0  0  0  0  0  0  0  0  0  0  0  0
    5.4210    0.9600   21.0930 C   0  0  0  0  0  0  0  0  0  0  0  0
    9.0720   -1.1280   24.8640 C   0  0  0  0  0  0  0  0  0  0  0  0
    9.7200   -2.2600   22.8630 C   0  0  0  0  0  0  0  0  0  0  0  0
    8.9960   -2.3380   25.5320 C   0  0  0  0  0  0  0  0  0  0  0  0
    9.6730   -3.4710   23.5300 C   0  0  0  0  0  0  0  0  0  0  0  0
   14.2751    1.1826   23.9065 C   0  0  0  0  0  0  0  0  0  0  0  0
   12.1189    0.3092   24.5584 C   0  0  0  0  0  0  0  0  0  0  0  0
   11.4911    1.2484   23.7401 C   0  0  0  0  0  0  0  0  0  0  0  0
    5.8300    0.9190   18.6970 C   0  0  0  0  0  0  0  0  0  0  0  0
    6.1790    0.5730   19.9990 C   0  0  0  0  0  0  0  0  0  0  0  0
    9.3350   -1.0880   23.5010 C   0  0  0  0  0  0  0  0  0  0  0  0
    9.3070   -3.5340   24.8780 C   0  0  0  0  0  0  0  0  0  0  0  0
   13.5109    0.2764   24.6416 C   0  0  0  0  0  0  0  0  0  0  0  0
    9.0420    0.3700   21.5280 C   0  0  0  0  0  0  0  0  0  0  0  0
    8.0128   -5.2151   26.1416 C   0  0  0  0  0  0  0  0  0  0  0  0
   10.4372   -5.5860   25.6589 C   0  0  0  0  0  0  0  0  0  0  0  0
    9.9929    1.2851   23.6509 C   0  0  0  0  0  0  0  0  0  0  0  0
    8.1890   -0.7180   20.8700 C   0  0  0  0  0  0  0  0  0  0  0  0
    6.7580    0.3810   17.8350 N   0  0  0  0  0  0  0  0  0  0  0  0
    7.6390   -0.2680   18.5410 N   0  0  0  0  0  0  0  0  0  0  0  0
    7.3170   -0.1610   19.8550 N   0  0  0  0  0  0  0  0  0  0  0  0
    9.4560    0.1560   22.8130 N   0  0  0  0  0  0  0  0  0  0  0  0
    9.2543   -4.7552   25.5519 N   0  0  0  0  0  0  0  0  0  0  0  0
    9.2690    1.4140   20.9380 O   0  0  0  0  0  0  0  0  0  0  0  0
   14.2860   -0.8814   25.6519 Cl  0  0  0  0  0  0  0  0  0  0  0  0
    3.0136    2.6524   19.3909 H   0  0  0  0  0  0  0  0  0  0  0  0
    3.6477    2.0141   21.6817 H   0  0  0  0  0  0  0  0  0  0  0  0
   14.2420    2.8277   22.5158 H   0  0  0  0  0  0  0  0  0  0  0  0
   11.7747    2.8899   22.3650 H   0  0  0  0  0  0  0  0  0  0  0  0
    4.4041    1.9739   17.4524 H   0  0  0  0  0  0  0  0  0  0  0  0
    5.7107    0.6909   22.1141 H   0  0  0  0  0  0  0  0  0  0  0  0
    8.9217   -0.1995   25.4232 H   0  0  0  0  0  0  0  0  0  0  0  0
   10.0643   -2.2341   21.8254 H   0  0  0  0  0  0  0  0  0  0  0  0
    8.6893   -2.3540   26.5808 H   0  0  0  0  0  0  0  0  0  0  0  0
    9.9257   -4.3898   22.9921 H   0  0  0  0  0  0  0  0  0  0  0  0
   15.3609    1.1688   23.9618 H   0  0  0  0  0  0  0  0  0  0  0  0
   11.5186   -0.3955   25.1292 H   0  0  0  0  0  0  0  0  0  0  0  0
    8.1744   -6.1904   26.6238 H   0  0  0  0  0  0  0  0  0  0  0  0
    7.6718   -4.4870   26.8924 H   0  0  0  0  0  0  0  0  0  0  0  0
    7.2494   -5.3166   25.3561 H   0  0  0  0  0  0  0  0  0  0  0  0
   10.1946   -6.4995   26.2216 H   0  0  0  0  0  0  0  0  0  0  0  0
   10.7865   -5.8578   24.6518 H   0  0  0  0  0  0  0  0  0  0  0  0
   11.2285   -5.0312   26.1842 H   0  0  0  0  0  0  0  0  0  0  0  0
    9.5448    1.2080   24.6476 H   0  0  0  0  0  0  0  0  0  0  0  0
    9.6483    2.2271   23.2115 H   0  0  0  0  0  0  0  0  0  0  0  0
    8.8255   -1.4531   20.3835 H   0  0  0  0  0  0  0  0  0  0  0  0
    7.5533   -1.1948   21.6123 H   0  0  0  0  0  0  0  0  0  0  0  0
  1  2  1  0  0  0  0
  1  5  2  0  0  0  0
  2  6  2  0  0  0  0
  3  4  2  0  0  0  0
  3 11  1  0  0  0  0
  4 13  1  0  0  0  0
  5 14  1  0  0  0  0
  6 15  1  0  0  0  0
  7  9  2  0  0  0  0
  7 16  1  0  0  0  0
  8 10  1  0  0  0  0
  8 16  2  0  0  0  0
  9 17  1  0  0  0  0
 10 17  2  0  0  0  0
 11 18  2  0  0  0  0
 12 13  2  0  0  0  0
 12 18  1  0  0  0  0
 13 22  1  0  0  0  0
 14 15  2  0  0  0  0
 14 24  1  0  0  0  0
 15 26  1  0  0  0  0
 16 27  1  0  0  0  0
 17 28  1  0  0  0  0
 18 30  1  0  0  0  0
 19 23  1  0  0  0  0
 19 27  1  0  0  0  0
 19 29  2  0  0  0  0
 20 28  1  0  0  0  0
 21 28  1  0  0  0  0
 22 27  1  0  0  0  0
 23 26  1  0  0  0  0
 24 25  2  0  0  0  0
 25 26  1  0  0  0  0
  1 31  1  0  0  0  0
  2 32  1  0  0  0  0
  3 33  1  0  0  0  0
  4 34  1  0  0  0  0
  5 35  1  0  0  0  0
  6 36  1  0  0  0  0
  7 37  1  0  0  0  0
  8 38  1  0  0  0  0
  9 39  1  0  0  0  0
 10 40  1  0  0  0  0
 11 41  1  0  0  0  0
 12 42  1  0  0  0  0
 20 43  1  0  0  0  0
 20 44  1  0  0  0  0
 20 45  1  0  0  0  0
 21 46  1  0  0  0  0
 21 47  1  0  0  0  0
 21 48  1  0  0  0  0
 22 49  1  0  0  0  0
 22 50  1  0  0  0  0
 23 51  1  0  0  0  0
 23 52  1  0  0  0  0
M  END
> <clash_score>
0.673869244874083

> <docking_score>
-8.914066314697266

> <overlap_score>
0.9790372848510742

$$$$
BENZO_334_1
  -OEChem-08232013463D

 57 61  0     1  0  0  0  0  0999 V2000
    8.4264    4.7647   22.2317 C   0  0  0  0  0  0  0  0  0  0  0  0
    8.1972    3.4413   22.6079 C   0  0  0  0  0  0  0  0  0  0  0  0
    9.0720   -1.1280   24.8640 C   0  0  0  0  0  0  0  0  0  0  0  0
    9.7200   -2.2600   22.8630 C   0  0  0  0  0  0  0  0  0  0  0  0
    8.9960   -2.3380   25.5320 C   0  0  0  0  0  0  0  0  0  0  0  0
    9.6730   -3.4710   23.5300 C   0  0  0  0  0  0  0  0  0  0  0  0
    9.5829    5.4198   22.6550 C   0  0  0  0  0  0  0  0  0  0  0  0
   10.2808    3.4280   23.8309 C   0  0  0  0  0  0  0  0  0  0  0  0
    9.3350   -1.0880   23.5010 C   0  0  0  0  0  0  0  0  0  0  0  0
    9.1243    2.7729   23.4075 C   0  0  0  0  0  0  0  0  0  0  0  0
    9.3070   -3.5340   24.8780 C   0  0  0  0  0  0  0  0  0  0  0  0
   10.5100    4.7515   23.4546 C   0  0  0  0  0  0  0  0  0  0  0  0
    5.8300    0.9190   18.6970 C   0  0  0  0  0  0  0  0  0  0  0  0
    7.3170   -0.1610   19.8550 C   0  0  0  0  0  0  0  0  0  0  0  0
    4.6890    1.6810   18.4640 C   0  0  0  0  0  0  0  0  0  0  0  0
    3.9160    2.0630   19.5520 C   0  0  0  0  0  0  0  0  0  0  0  0
    4.2750    1.7050   20.8490 C   0  0  0  0  0  0  0  0  0  0  0  0
    5.4210    0.9600   21.0930 C   0  0  0  0  0  0  0  0  0  0  0  0
    9.0420    0.3700   21.5280 C   0  0  0  0  0  0  0  0  0  0  0  0
    9.5835   -5.9889   24.8508 C   0  0  0  0  0  0  0  0  0  0  0  0
    8.4830   -4.9307   26.7696 C   0  0  0  0  0  0  0  0  0  0  0  0
    8.2780   -6.7382   24.5802 C   0  0  0  0  0  0  0  0  0  0  0  0
    7.2139   -5.7040   26.4277 C   0  0  0  0  0  0  0  0  0  0  0  0
    8.8746    1.3393   23.8158 C   0  0  0  0  0  0  0  0  0  0  0  0
    9.4560    0.1560   22.8130 C   0  0  1  0  0  0  0  0  0  0  0  0
    6.7580    0.3810   17.8350 N   0  0  0  0  0  0  0  0  0  0  0  0
    7.6390   -0.2680   18.5410 N   0  0  0  0  0  0  0  0  0  0  0  0
    6.1790    0.5730   19.9990 N   0  0  0  0  0  0  0  0  0  0  0  0
    9.2564   -4.7368   25.5411 N   0  0  0  0  0  0  0  0  0  0  0  0
    8.1890   -0.7180   20.8700 N   0  0  0  0  0  0  0  0  0  0  0  0
    9.2690    1.4140   20.9380 O   0  0  0  0  0  0  0  0  0  0  0  0
    7.5531   -6.9453   25.7977 O   0  0  0  0  0  0  0  0  0  0  0  0
   11.9361    5.5606   23.9775 Cl  0  0  0  0  0  0  0  0  0  0  0  0
    7.7041    5.2848   21.6092 H   0  0  0  0  0  0  0  0  0  0  0  0
    7.2933    2.9387   22.2736 H   0  0  0  0  0  0  0  0  0  0  0  0
    8.9214   -0.1986   25.4206 H   0  0  0  0  0  0  0  0  0  0  0  0
   10.0622   -2.2326   21.8251 H   0  0  0  0  0  0  0  0  0  0  0  0
    8.6882   -2.3542   26.5803 H   0  0  0  0  0  0  0  0  0  0  0  0
    9.9258   -4.3896   22.9914 H   0  0  0  0  0  0  0  0  0  0  0  0
    9.7483    6.4515   22.3543 H   0  0  0  0  0  0  0  0  0  0  0  0
   11.0008    2.9024   24.4538 H   0  0  0  0  0  0  0  0  0  0  0  0
    4.3967    1.9772   17.4718 H   0  0  0  0  0  0  0  0  0  0  0  0
    3.0218    2.6486   19.3697 H   0  0  0  0  0  0  0  0  0  0  0  0
    3.6566    2.0043   21.7065 H   0  0  0  0  0  0  0  0  0  0  0  0
    5.7190    0.6877   22.0810 H   0  0  0  0  0  0  0  0  0  0  0  0
   10.2403   -6.6108   25.4579 H   0  0  0  0  0  0  0  0  0  0  0  0
   10.0757   -5.7616   23.9043 H   0  0  0  0  0  0  0  0  0  0  0  0
    8.2168   -3.9556   27.1860 H   0  0  0  0  0  0  0  0  0  0  0  0
    9.0602   -5.4857   27.5117 H   0  0  0  0  0  0  0  0  0  0  0  0
    7.6439   -6.1455   23.9135 H   0  0  0  0  0  0  0  0  0  0  0  0
    8.4620   -7.7014   24.0901 H   0  0  0  0  0  0  0  0  0  0  0  0
    6.6049   -5.8940   27.3159 H   0  0  0  0  0  0  0  0  0  0  0  0
    6.6090   -5.1300   25.7228 H   0  0  0  0  0  0  0  0  0  0  0  0
    9.2322    1.1871   24.8426 H   0  0  0  0  0  0  0  0  0  0  0  0
    7.7874    1.1856   23.8601 H   0  0  0  0  0  0  0  0  0  0  0  0
   10.6111    0.4645   22.8838 H   0  0  0  0  0  0  0  0  0  0  0  0
    8.2585   -1.5522   21.1129 H   0  0  0  0  0  0  0  0  0  0  0  0
  1  2  2  0  0  0  0
  1  7  1  0  0  0  0
  2 10  1  0  0  0  0
  3  5  2  0  0  0  0
  3  9  1  0  0  0  0
  4  6  1  0  0  0  0
  4  9  2  0  0  0  0
  5 11  1  0  0  0  0
  6 11  2  0  0  0  0
  7 12  2  0  0  0  0
  8 10  2  0  0  0  0
  8 12  1  0  0  0  0
  9 25  1  0  0  0  0
 10 24  1  0  0  0  0
 11 29  1  0  0  0  0
 12 33  1  0  0  0  0
 13 15  1  0  0  0  0
 13 26  2  0  0  0  0
 13 28  1  0  0  0  0
 14 27  2  0  0  0  0
 14 28  1  0  0  0  0
 14 30  1  0  0  0  0
 15 16  2  0  0  0  0
 16 17  1  0  0  0  0
 17 18  2  0  0  0  0
 18 28  1  0  0  0  0
 19 25  1  1  0  0  0
 19 30  1  0  0  0  0
 19 31  2  0  0  0  0
 20 22  1  0  0  0  0
 20 29  1  0  0  0  0
 21 23  1  0  0  0  0
 21 29  1  0  0  0  0
 22 32  1  0  0  0  0
 23 32  1  0  0  0  0
 24 25  1  0  0  0  0
 26 27  1  0  0  0  0
  1 34  1  0  0  0  0
  2 35  1  0  0  0  0
  3 36  1  0  0  0  0
  4 37  1  0  0  0  0
  5 38  1  0  0  0  0
  6 39  1  0  0  0  0
  7 40  1  0  0  0  0
  8 41  1  0  0  0  0
 15 42  1  0  0  0  0
 16 43  1  0  0  0  0
 17 44  1  0  0  0  0
 18 45  1  0  0  0  0
 20 46  1  0  0  0  0
 20 47  1  0  0  0  0
 21 48  1  0  0  0  0
 21 49  1  0  0  0  0
 22 50  1  0  0  0  0
 22 51  1  0  0  0  0
 23 52  1  0  0  0  0
 23 53  1  0  0  0  0
 24 54  1  0  0  0  0
 24 55  1  0  0  0  0
 25 56  1  0  0  0  0
 30 57  1  0  0  0  0
M  END
> <clash_score>
0

> <docking_score>
-8.065873146057129

> <overlap_score>
0.8577043414115906

$$$$
BENZO_335_2
  -OEChem-08232013463D

 57 61  0     1  0  0  0  0  0999 V2000
    9.0720   -1.1280   24.8640 C   0  0  0  0  0  0  0  0  0  0  0  0
    9.7200   -2.2600   22.8630 C   0  0  0  0  0  0  0  0  0  0  0  0
    8.9960   -2.3380   25.5320 C   0  0  0  0  0  0  0  0  0  0  0  0
    9.6730   -3.4710   23.5300 C   0  0  0  0  0  0  0  0  0  0  0  0
   10.2059    3.2839   22.6653 C   0  0  0  0  0  0  0  0  0  0  0  0
    8.3433    3.8704   23.6762 C   0  0  0  0  0  0  0  0  0  0  0  0
    9.3350   -1.0880   23.5010 C   0  0  0  0  0  0  0  0  0  0  0  0
    9.1243    2.7729   23.4075 C   0  0  0  0  0  0  0  0  0  0  0  0
    9.3070   -3.5340   24.8780 C   0  0  0  0  0  0  0  0  0  0  0  0
    5.8300    0.9190   18.6970 C   0  0  0  0  0  0  0  0  0  0  0  0
    7.3170   -0.1610   19.8550 C   0  0  0  0  0  0  0  0  0  0  0  0
    4.6890    1.6810   18.4640 C   0  0  0  0  0  0  0  0  0  0  0  0
    3.9160    2.0630   19.5520 C   0  0  0  0  0  0  0  0  0  0  0  0
    4.2750    1.7050   20.8490 C   0  0  0  0  0  0  0  0  0  0  0  0
    5.4210    0.9600   21.0930 C   0  0  0  0  0  0  0  0  0  0  0  0
    9.0420    0.3700   21.5280 C   0  0  0  0  0  0  0  0  0  0  0  0
    9.5835   -5.9889   24.8508 C   0  0  0  0  0  0  0  0  0  0  0  0
    8.4830   -4.9307   26.7696 C   0  0  0  0  0  0  0  0  0  0  0  0
    8.2780   -6.7382   24.5802 C   0  0  0  0  0  0  0  0  0  0  0  0
    7.2139   -5.7040   26.4277 C   0  0  0  0  0  0  0  0  0  0  0  0
    8.5383    6.3046   23.1148 C   0  0  0  0  0  0  0  0  0  0  0  0
    8.8746    1.3393   23.8158 C   0  0  0  0  0  0  0  0  0  0  0  0
    9.4560    0.1560   22.8130 C   0  0  2  0  0  0  0  0  0  0  0  0
   10.1229    4.6032   22.4745 N   0  0  0  0  0  0  0  0  0  0  0  0
    6.7580    0.3810   17.8350 N   0  0  0  0  0  0  0  0  0  0  0  0
    7.6390   -0.2680   18.5410 N   0  0  0  0  0  0  0  0  0  0  0  0
    8.9797    4.9306   23.1006 N   0  0  0  0  0  0  0  0  0  0  0  0
    6.1790    0.5730   19.9990 N   0  0  0  0  0  0  0  0  0  0  0  0
    9.2564   -4.7368   25.5411 N   0  0  0  0  0  0  0  0  0  0  0  0
    8.1890   -0.7180   20.8700 N   0  0  0  0  0  0  0  0  0  0  0  0
    9.2690    1.4140   20.9380 O   0  0  0  0  0  0  0  0  0  0  0  0
    7.5531   -6.9453   25.7977 O   0  0  0  0  0  0  0  0  0  0  0  0
    8.9214   -0.1986   25.4206 H   0  0  0  0  0  0  0  0  0  0  0  0
   10.0622   -2.2326   21.8251 H   0  0  0  0  0  0  0  0  0  0  0  0
    8.6882   -2.3542   26.5803 H   0  0  0  0  0  0  0  0  0  0  0  0
    9.9258   -4.3896   22.9914 H   0  0  0  0  0  0  0  0  0  0  0  0
   11.0518    2.7517   22.2537 H   0  0  0  0  0  0  0  0  0  0  0  0
    7.4115    3.9842   24.2133 H   0  0  0  0  0  0  0  0  0  0  0  0
    4.3967    1.9772   17.4718 H   0  0  0  0  0  0  0  0  0  0  0  0
    3.0218    2.6486   19.3697 H   0  0  0  0  0  0  0  0  0  0  0  0
    3.6566    2.0043   21.7065 H   0  0  0  0  0  0  0  0  0  0  0  0
    5.7190    0.6877   22.0810 H   0  0  0  0  0  0  0  0  0  0  0  0
   10.2403   -6.6108   25.4579 H   0  0  0  0  0  0  0  0  0  0  0  0
   10.0757   -5.7616   23.9043 H   0  0  0  0  0  0  0  0  0  0  0  0
    8.2168   -3.9556   27.1860 H   0  0  0  0  0  0  0  0  0  0  0  0
    9.0602   -5.4857   27.5117 H   0  0  0  0  0  0  0  0  0  0  0  0
    7.6439   -6.1455   23.9135 H   0  0  0  0  0  0  0  0  0  0  0  0
    8.4620   -7.7014   24.0901 H   0  0  0  0  0  0  0  0  0  0  0  0
    6.6049   -5.8940   27.3159 H   0  0  0  0  0  0  0  0  0  0  0  0
    6.6090   -5.1300   25.7228 H   0  0  0  0  0  0  0  0  0  0  0  0
    8.9640    6.7865   23.9989 H   0  0  0  0  0  0  0  0  0  0  0  0
    8.8793    6.8060   22.2046 H   0  0  0  0  0  0  0  0  0  0  0  0
    7.4457    6.3329   23.1513 H   0  0  0  0  0  0  0  0  0  0  0  0
    9.2322    1.1871   24.8426 H   0  0  0  0  0  0  0  0  0  0  0  0
    7.7874    1.1856   23.8601 H   0  0  0  0  0  0  0  0  0  0  0  0
   10.6111    0.4645   22.8838 H   0  0  0  0  0  0  0  0  0  0  0  0
    8.2585   -1.5522   21.1129 H   0  0  0  0  0  0  0  0  0  0  0  0
  1  3  2  0  0  0  0
  1  7  1  0  0  0  0
  2  4  1  0  0  0  0
  2  7  2  0  0  0  0
  3  9  1  0  0  0  0
  4  9  2  0  0  0  0
  5  8  1  0  0  0  0
  5 24  2  0  0  0  0
  6  8  2  0  0  0  0
  6 27  1  0  0  0  0
  7 23  1  0  0  0  0
  8 22  1  0  0  0  0
  9 29  1  0  0  0  0
 10 12  1  0  0  0  0
 10 25  2  0  0  0  0
 10 28  1  0  0  0  0
 11 26  2  0  0  0  0
 11 28  1  0  0  0  0
 11 30  1  0  0  0  0
 12 13  2  0  0  0  0
 13 14  1  0  0  0  0
 14 15  2  0  0  0  0
 15 28  1  0  0  0  0
 16 23  1  0  0  0  0
 16 30  1  0  0  0  0
 16 31  2  0  0  0  0
 17 19  1  0  0  0  0
 17 29  1  0  0  0  0
 18 20  1  0  0  0  0
 18 29  1  0  0  0  0
 19 32  1  0  0  0  0
 20 32  1  0  0  0  0
 21 27  1  0  0  0  0
 22 23  1  6  0  0  0
 24 27  1  0  0  0  0
 25 26  1  0  0  0  0
  1 33  1  0  0  0  0
  2 34  1  0  0  0  0
  3 35  1  0  0  0  0
  4 36  1  0  0  0  0
  5 37  1  0  0  0  0
  6 38  1  0  0  0  0
 12 39  1  0  0  0  0
 13 40  1  0  0  0  0
 14 41  1  0  0  0  0
 15 42  1  0  0  0  0
 17 43  1  0  0  0  0
 17 44  1  0  0  0  0
 18 45  1  0  0  0  0
 18 46  1  0  0  0  0
 19 47  1  0  0  0  0
 19 48  1  0  0  0  0
 20 49  1  0  0  0  0
 20 50  1  0  0  0  0
 21 51  1  0  0  0  0
 21 52  1  0  0  0  0
 21 53  1  0  0  0  0
 22 54  1  0  0  0  0
 22 55  1  0  0  0  0
 23 56  1  0  0  0  0
 30 57  1  0  0  0  0
M  END
> <clash_score>
0

> <docking_score>
-6.307787895202637

> <overlap_score>
0.8582332134246826

$$$$
BENZO_334_2
  -OEChem-08232013463D

 57 61  0     1  0  0  0  0  0999 V2000
   10.2883    4.3880   23.5308 C   0  0  0  0  0  0  0  0  0  0  0  0
   10.1371    3.0016   23.5115 C   0  0  0  0  0  0  0  0  0  0  0  0
    9.0720   -1.1280   24.8640 C   0  0  0  0  0  0  0  0  0  0  0  0
    9.7200   -2.2600   22.8630 C   0  0  0  0  0  0  0  0  0  0  0  0
    8.9960   -2.3380   25.5320 C   0  0  0  0  0  0  0  0  0  0  0  0
    9.6730   -3.4710   23.5300 C   0  0  0  0  0  0  0  0  0  0  0  0
   11.4763    4.9663   23.0834 C   0  0  0  0  0  0  0  0  0  0  0  0
   12.3618    2.7715   22.5978 C   0  0  0  0  0  0  0  0  0  0  0  0
    9.3350   -1.0880   23.5010 C   0  0  0  0  0  0  0  0  0  0  0  0
   11.1738    2.1933   23.0450 C   0  0  0  0  0  0  0  0  0  0  0  0
    9.3070   -3.5340   24.8780 C   0  0  0  0  0  0  0  0  0  0  0  0
   12.5130    4.1581   22.6170 C   0  0  0  0  0  0  0  0  0  0  0  0
    5.8300    0.9190   18.6970 C   0  0  0  0  0  0  0  0  0  0  0  0
    7.3170   -0.1610   19.8550 C   0  0  0  0  0  0  0  0  0  0  0  0
    4.6890    1.6810   18.4640 C   0  0  0  0  0  0  0  0  0  0  0  0
    3.9160    2.0630   19.5520 C   0  0  0  0  0  0  0  0  0  0  0  0
    4.2750    1.7050   20.8490 C   0  0  0  0  0  0  0  0  0  0  0  0
    5.4210    0.9600   21.0930 C   0  0  0  0  0  0  0  0  0  0  0  0
    9.0420    0.3700   21.5280 C   0  0  0  0  0  0  0  0  0  0  0  0
    9.5176   -4.8600   26.9769 C   0  0  0  0  0  0  0  0  0  0  0  0
    8.5166   -5.8725   24.9805 C   0  0  0  0  0  0  0  0  0  0  0  0
    8.1870   -5.0443   27.6986 C   0  0  0  0  0  0  0  0  0  0  0  0
    7.2201   -6.0348   25.7753 C   0  0  0  0  0  0  0  0  0  0  0  0
   11.0096    0.6909   23.0256 C   0  0  0  0  0  0  0  0  0  0  0  0
    9.4560    0.1560   22.8130 C   0  0  2  0  0  0  0  0  0  0  0  0
    6.7580    0.3810   17.8350 N   0  0  0  0  0  0  0  0  0  0  0  0
    7.6390   -0.2680   18.5410 N   0  0  0  0  0  0  0  0  0  0  0  0
    6.1790    0.5730   19.9990 N   0  0  0  0  0  0  0  0  0  0  0  0
    9.2564   -4.7368   25.5411 N   0  0  0  0  0  0  0  0  0  0  0  0
    8.1890   -0.7180   20.8700 N   0  0  0  0  0  0  0  0  0  0  0  0
    9.2690    1.4140   20.9380 O   0  0  0  0  0  0  0  0  0  0  0  0
    7.4995   -6.1856   27.1717 O   0  0  0  0  0  0  0  0  0  0  0  0
   13.9789    4.8720   22.0663 Cl  0  0  0  0  0  0  0  0  0  0  0  0
    9.4808    5.0171   23.8942 H   0  0  0  0  0  0  0  0  0  0  0  0
    9.2080    2.5596   23.8620 H   0  0  0  0  0  0  0  0  0  0  0  0
    8.9214   -0.1986   25.4206 H   0  0  0  0  0  0  0  0  0  0  0  0
   10.0622   -2.2326   21.8251 H   0  0  0  0  0  0  0  0  0  0  0  0
    8.6882   -2.3542   26.5803 H   0  0  0  0  0  0  0  0  0  0  0  0
    9.9258   -4.3896   22.9914 H   0  0  0  0  0  0  0  0  0  0  0  0
   11.5803    6.0484   23.1045 H   0  0  0  0  0  0  0  0  0  0  0  0
   13.1669    2.1370   22.2345 H   0  0  0  0  0  0  0  0  0  0  0  0
    4.3967    1.9772   17.4718 H   0  0  0  0  0  0  0  0  0  0  0  0
    3.0218    2.6486   19.3697 H   0  0  0  0  0  0  0  0  0  0  0  0
    3.6566    2.0043   21.7065 H   0  0  0  0  0  0  0  0  0  0  0  0
    5.7190    0.6877   22.0810 H   0  0  0  0  0  0  0  0  0  0  0  0
   10.0207   -3.9702   27.3608 H   0  0  0  0  0  0  0  0  0  0  0  0
   10.1536   -5.7313   27.1546 H   0  0  0  0  0  0  0  0  0  0  0  0
    9.1181   -6.7774   25.0751 H   0  0  0  0  0  0  0  0  0  0  0  0
    8.2812   -5.7063   23.9302 H   0  0  0  0  0  0  0  0  0  0  0  0
    8.3631   -5.2257   28.7609 H   0  0  0  0  0  0  0  0  0  0  0  0
    7.5532   -4.1574   27.6103 H   0  0  0  0  0  0  0  0  0  0  0  0
    6.5460   -5.1840   25.6220 H   0  0  0  0  0  0  0  0  0  0  0  0
    6.6948   -6.9355   25.4433 H   0  0  0  0  0  0  0  0  0  0  0  0
   11.6022    0.2720   22.2019 H   0  0  0  0  0  0  0  0  0  0  0  0
   11.4622    0.2902   23.9433 H   0  0  0  0  0  0  0  0  0  0  0  0
    8.9292    0.9747   23.5105 H   0  0  0  0  0  0  0  0  0  0  0  0
    8.2585   -1.5522   21.1129 H   0  0  0  0  0  0  0  0  0  0  0  0
  1  2  2  0  0  0  0
  1  7  1  0  0  0  0
  2 10  1  0  0  0  0
  3  5  2  0  0  0  0
  3  9  1  0  0  0  0
  4  6  1  0  0  0  0
  4  9  2  0  0  0  0
  5 11  1  0  0  0  0
  6 11  2  0  0  0  0
  7 12  2  0  0  0  0
  8 10  2  0  0  0  0
  8 12  1  0  0  0  0
  9 25  1  0  0  0  0
 10 24  1  0  0  0  0
 11 29  1  0  0  0  0
 12 33  1  0  0  0  0
 13 15  1  0  0  0  0
 13 26  2  0  0  0  0
 13 28  1  0  0  0  0
 14 27  2  0  0  0  0
 14 28  1  0  0  0  0
 14 30  1  0  0  0  0
 15 16  2  0  0  0  0
 16 17  1  0  0  0  0
 17 18  2  0  0  0  0
 18 28  1  0  0  0  0
 19 25  1  6  0  0  0
 19 30  1  0  0  0  0
 19 31  2  0  0  0  0
 20 22  1  0  0  0  0
 20 29  1  0  0  0  0
 21 23  1  0  0  0  0
 21 29  1  0  0  0  0
 22 32  1  0  0  0  0
 23 32  1  0  0  0  0
 24 25  1  0  0  0  0
 26 27  1  0  0  0  0
  1 34  1  0  0  0  0
  2 35  1  0  0  0  0
  3 36  1  0  0  0  0
  4 37  1  0  0  0  0
  5 38  1  0  0  0  0
  6 39  1  0  0  0  0
  7 40  1  0  0  0  0
  8 41  1  0  0  0  0
 15 42  1  0  0  0  0
 16 43  1  0  0  0  0
 17 44  1  0  0  0  0
 18 45  1  0  0  0  0
 20 46  1  0  0  0  0
 20 47  1  0  0  0  0
 21 48  1  0  0  0  0
 21 49  1  0  0  0  0
 22 50  1  0  0  0  0
 22 51  1  0  0  0  0
 23 52  1  0  0  0  0
 23 53  1  0  0  0  0
 24 54  1  0  0  0  0
 24 55  1  0  0  0  0
 25 56  1  0  0  0  0
 30 57  1  0  0  0  0
M  END
> <clash_score>
0

> <docking_score>
-11.074481964111328

> <overlap_score>
0.9450560808181763

$$$$
BENZO_335_1
  -OEChem-08232013463D

 57 61  0     1  0  0  0  0  0999 V2000
    9.0720   -1.1280   24.8640 C   0  0  0  0  0  0  0  0  0  0  0  0
    9.7200   -2.2600   22.8630 C   0  0  0  0  0  0  0  0  0  0  0  0
    8.9960   -2.3380   25.5320 C   0  0  0  0  0  0  0  0  0  0  0  0
    9.6730   -3.4710   23.5300 C   0  0  0  0  0  0  0  0  0  0  0  0
   10.2449    3.1582   23.4786 C   0  0  0  0  0  0  0  0  0  0  0  0
   12.2661    2.9236   22.6451 C   0  0  0  0  0  0  0  0  0  0  0  0
    9.3350   -1.0880   23.5010 C   0  0  0  0  0  0  0  0  0  0  0  0
   11.1738    2.1933   23.0450 C   0  0  0  0  0  0  0  0  0  0  0  0
    9.3070   -3.5340   24.8780 C   0  0  0  0  0  0  0  0  0  0  0  0
    5.8300    0.9190   18.6970 C   0  0  0  0  0  0  0  0  0  0  0  0
    7.3170   -0.1610   19.8550 C   0  0  0  0  0  0  0  0  0  0  0  0
    4.6890    1.6810   18.4640 C   0  0  0  0  0  0  0  0  0  0  0  0
    3.9160    2.0630   19.5520 C   0  0  0  0  0  0  0  0  0  0  0  0
    4.2750    1.7050   20.8490 C   0  0  0  0  0  0  0  0  0  0  0  0
    5.4210    0.9600   21.0930 C   0  0  0  0  0  0  0  0  0  0  0  0
    9.0420    0.3700   21.5280 C   0  0  0  0  0  0  0  0  0  0  0  0
   10.0772   -5.0257   26.7191 C   0  0  0  0  0  0  0  0  0  0  0  0
    8.0927   -5.6196   25.4069 C   0  0  0  0  0  0  0  0  0  0  0  0
    9.1935   -4.9431   27.9590 C   0  0  0  0  0  0  0  0  0  0  0  0
    7.2758   -5.5292   26.6966 C   0  0  0  0  0  0  0  0  0  0  0  0
   12.7722    5.3769   22.5852 C   0  0  0  0  0  0  0  0  0  0  0  0
   11.0096    0.6909   23.0256 C   0  0  0  0  0  0  0  0  0  0  0  0
    9.4560    0.1560   22.8130 C   0  0  1  0  0  0  0  0  0  0  0  0
   10.7069    4.4063   23.3651 N   0  0  0  0  0  0  0  0  0  0  0  0
    6.7580    0.3810   17.8350 N   0  0  0  0  0  0  0  0  0  0  0  0
    7.6390   -0.2680   18.5410 N   0  0  0  0  0  0  0  0  0  0  0  0
   11.9381    4.2306   22.8556 N   0  0  0  0  0  0  0  0  0  0  0  0
    6.1790    0.5730   19.9990 N   0  0  0  0  0  0  0  0  0  0  0  0
    9.2564   -4.7368   25.5411 N   0  0  0  0  0  0  0  0  0  0  0  0
    8.1890   -0.7180   20.8700 N   0  0  0  0  0  0  0  0  0  0  0  0
    9.2690    1.4140   20.9380 O   0  0  0  0  0  0  0  0  0  0  0  0
    8.0884   -5.8462   27.8322 O   0  0  0  0  0  0  0  0  0  0  0  0
    8.9214   -0.1986   25.4206 H   0  0  0  0  0  0  0  0  0  0  0  0
   10.0622   -2.2326   21.8251 H   0  0  0  0  0  0  0  0  0  0  0  0
    8.6882   -2.3542   26.5803 H   0  0  0  0  0  0  0  0  0  0  0  0
    9.9258   -4.3896   22.9914 H   0  0  0  0  0  0  0  0  0  0  0  0
    9.2505    3.0064   23.8739 H   0  0  0  0  0  0  0  0  0  0  0  0
   13.2256    2.6317   22.2400 H   0  0  0  0  0  0  0  0  0  0  0  0
    4.3967    1.9772   17.4718 H   0  0  0  0  0  0  0  0  0  0  0  0
    3.0218    2.6486   19.3697 H   0  0  0  0  0  0  0  0  0  0  0  0
    3.6566    2.0043   21.7065 H   0  0  0  0  0  0  0  0  0  0  0  0
    5.7190    0.6877   22.0810 H   0  0  0  0  0  0  0  0  0  0  0  0
   10.8986   -4.3117   26.8083 H   0  0  0  0  0  0  0  0  0  0  0  0
   10.4916   -6.0336   26.6319 H   0  0  0  0  0  0  0  0  0  0  0  0
    8.4328   -6.6457   25.2617 H   0  0  0  0  0  0  0  0  0  0  0  0
    7.4726   -5.3240   24.5618 H   0  0  0  0  0  0  0  0  0  0  0  0
    9.7638   -5.2402   28.8416 H   0  0  0  0  0  0  0  0  0  0  0  0
    8.8238   -3.9272   28.1248 H   0  0  0  0  0  0  0  0  0  0  0  0
    6.8340   -4.5339   26.8232 H   0  0  0  0  0  0  0  0  0  0  0  0
    6.4551   -6.2523   26.6641 H   0  0  0  0  0  0  0  0  0  0  0  0
   12.5768    5.7019   21.5598 H   0  0  0  0  0  0  0  0  0  0  0  0
   12.5325    6.1764   23.2918 H   0  0  0  0  0  0  0  0  0  0  0  0
   13.8223    5.0961   22.7049 H   0  0  0  0  0  0  0  0  0  0  0  0
   11.6022    0.2720   22.2019 H   0  0  0  0  0  0  0  0  0  0  0  0
   11.4622    0.2902   23.9433 H   0  0  0  0  0  0  0  0  0  0  0  0
    8.9292    0.9747   23.5105 H   0  0  0  0  0  0  0  0  0  0  0  0
    8.2585   -1.5522   21.1129 H   0  0  0  0  0  0  0  0  0  0  0  0
  1  3  2  0  0  0  0
  1  7  1  0  0  0  0
  2  4  1  0  0  0  0
  2  7  2  0  0  0  0
  3  9  1  0  0  0  0
  4  9  2  0  0  0  0
  5  8  1  0  0  0  0
  5 24  2  0  0  0  0
  6  8  2  0  0  0  0
  6 27  1  0  0  0  0
  7 23  1  0  0  0  0
  8 22  1  0  0  0  0
  9 29  1  0  0  0  0
 10 12  1  0  0  0  0
 10 25  2  0  0  0  0
 10 28  1  0  0  0  0
 11 26  2  0  0  0  0
 11 28  1  0  0  0  0
 11 30  1  0  0  0  0
 12 13  2  0  0  0  0
 13 14  1  0  0  0  0
 14 15  2  0  0  0  0
 15 28  1  0  0  0  0
 16 23  1  0  0  0  0
 16 30  1  0  0  0  0
 16 31  2  0  0  0  0
 17 19  1  0  0  0  0
 17 29  1  0  0  0  0
 18 20  1  0  0  0  0
 18 29  1  0  0  0  0
 19 32  1  0  0  0  0
 20 32  1  0  0  0  0
 21 27  1  0  0  0  0
 22 23  1  1  0  0  0
 24 27  1  0  0  0  0
 25 26  1  0  0  0  0
  1 33  1  0  0  0  0
  2 34  1  0  0  0  0
  3 35  1  0  0  0  0
  4 36  1  0  0  0  0
  5 37  1  0  0  0  0
  6 38  1  0  0  0  0
 12 39  1  0  0  0  0
 13 40  1  0  0  0  0
 14 41  1  0  0  0  0
 15 42  1  0  0  0  0
 17 43  1  0  0  0  0
 17 44  1  0  0  0  0
 18 45  1  0  0  0  0
 18 46  1  0  0  0  0
 19 47  1  0  0  0  0
 19 48  1  0  0  0  0
 20 49  1  0  0  0  0
 20 50  1  0  0  0  0
 21 51  1  0  0  0  0
 21 52  1  0  0  0  0
 21 53  1  0  0  0  0
 22 54  1  0  0  0  0
 22 55  1  0  0  0  0
 23 56  1  0  0  0  0
 30 57  1  0  0  0  0
M  END
> <clash_score>
0

> <docking_score>
-10.586353302001953

> <overlap_score>
0.9365970492362976

$$$$
BENZO_341_1
  -OEChem-08232013463D

 54 57  0     0  0  0  0  0  0999 V2000
   14.2752    1.1804   23.9044 C   0  0  0  0  0  0  0  0  0  0  0  0
   13.5041    0.5023   24.8484 C   0  0  0  0  0  0  0  0  0  0  0  0
   13.6543    1.8926   22.8783 C   0  0  0  0  0  0  0  0  0  0  0  0
    3.9160    2.0630   19.5520 C   0  0  0  0  0  0  0  0  0  0  0  0
    4.2750    1.7050   20.8490 C   0  0  0  0  0  0  0  0  0  0  0  0
   12.1121    0.5362   24.7663 C   0  0  0  0  0  0  0  0  0  0  0  0
   12.2623    1.9266   22.7961 C   0  0  0  0  0  0  0  0  0  0  0  0
    4.6890    1.6810   18.4640 C   0  0  0  0  0  0  0  0  0  0  0  0
    5.4210    0.9600   21.0930 C   0  0  0  0  0  0  0  0  0  0  0  0
    8.9960   -2.3380   25.5320 C   0  0  0  0  0  0  0  0  0  0  0  0
    9.6730   -3.4710   23.5300 C   0  0  0  0  0  0  0  0  0  0  0  0
    9.0720   -1.1280   24.8640 C   0  0  0  0  0  0  0  0  0  0  0  0
    9.7200   -2.2600   22.8630 C   0  0  0  0  0  0  0  0  0  0  0  0
   11.4911    1.2484   23.7401 C   0  0  0  0  0  0  0  0  0  0  0  0
    5.8300    0.9190   18.6970 C   0  0  0  0  0  0  0  0  0  0  0  0
    6.1790    0.5730   19.9990 C   0  0  0  0  0  0  0  0  0  0  0  0
    9.3070   -3.5340   24.8780 C   0  0  0  0  0  0  0  0  0  0  0  0
    9.3350   -1.0880   23.5010 C   0  0  0  0  0  0  0  0  0  0  0  0
    9.5334   -6.0236   25.0414 C   0  0  0  0  0  0  0  0  0  0  0  0
    9.0420    0.3700   21.5280 C   0  0  0  0  0  0  0  0  0  0  0  0
   10.6330   -7.3746   26.8775 C   0  0  0  0  0  0  0  0  0  0  0  0
    9.9929    1.2851   23.6509 C   0  0  0  0  0  0  0  0  0  0  0  0
    9.3522   -7.0865   26.1149 C   0  0  0  0  0  0  0  0  0  0  0  0
    8.1890   -0.7180   20.8700 C   0  0  0  0  0  0  0  0  0  0  0  0
    6.7580    0.3810   17.8350 N   0  0  0  0  0  0  0  0  0  0  0  0
    7.6390   -0.2680   18.5410 N   0  0  0  0  0  0  0  0  0  0  0  0
    7.3170   -0.1610   19.8550 N   0  0  0  0  0  0  0  0  0  0  0  0
    9.2546   -4.7422   25.5438 N   0  0  0  0  0  0  0  0  0  0  0  0
    9.4560    0.1560   22.8130 N   0  0  0  0  0  0  0  0  0  0  0  0
    9.8805   -6.3053   23.8992 O   0  0  0  0  0  0  0  0  0  0  0  0
    9.2690    1.4140   20.9380 O   0  0  0  0  0  0  0  0  0  0  0  0
   15.3591    1.1550   23.9693 H   0  0  0  0  0  0  0  0  0  0  0  0
   13.9874   -0.0514   25.6481 H   0  0  0  0  0  0  0  0  0  0  0  0
   14.2543    2.4216   22.1438 H   0  0  0  0  0  0  0  0  0  0  0  0
    3.0136    2.6524   19.3909 H   0  0  0  0  0  0  0  0  0  0  0  0
    3.6477    2.0141   21.6817 H   0  0  0  0  0  0  0  0  0  0  0  0
   11.5194    0.0047   25.5061 H   0  0  0  0  0  0  0  0  0  0  0  0
   11.7872    2.4839   21.9931 H   0  0  0  0  0  0  0  0  0  0  0  0
    4.4041    1.9739   17.4524 H   0  0  0  0  0  0  0  0  0  0  0  0
    5.7107    0.6909   22.1141 H   0  0  0  0  0  0  0  0  0  0  0  0
    8.6895   -2.3529   26.5807 H   0  0  0  0  0  0  0  0  0  0  0  0
    9.9262   -4.3897   22.9916 H   0  0  0  0  0  0  0  0  0  0  0  0
    8.9224   -0.1998   25.4238 H   0  0  0  0  0  0  0  0  0  0  0  0
   10.0649   -2.2343   21.8258 H   0  0  0  0  0  0  0  0  0  0  0  0
   11.4241   -7.7171   26.2024 H   0  0  0  0  0  0  0  0  0  0  0  0
   10.4629   -8.1530   27.6277 H   0  0  0  0  0  0  0  0  0  0  0  0
   10.9949   -6.4779   27.3911 H   0  0  0  0  0  0  0  0  0  0  0  0
    9.5448    1.2080   24.6476 H   0  0  0  0  0  0  0  0  0  0  0  0
    9.6483    2.2271   23.2115 H   0  0  0  0  0  0  0  0  0  0  0  0
    8.5795   -6.7463   26.8138 H   0  0  0  0  0  0  0  0  0  0  0  0
    8.9965   -8.0064   25.6368 H   0  0  0  0  0  0  0  0  0  0  0  0
    8.8255   -1.4531   20.3835 H   0  0  0  0  0  0  0  0  0  0  0  0
    7.5533   -1.1948   21.6123 H   0  0  0  0  0  0  0  0  0  0  0  0
    8.9776   -4.7057   26.5317 H   0  0  0  0  0  0  0  0  0  0  0  0
  1  2  1  0  0  0  0
  1  3  2  0  0  0  0
  2  6  2  0  0  0  0
  3  7  1  0  0  0  0
  4  5  1  0  0  0  0
  4  8  2  0  0  0  0
  5  9  2  0  0  0  0
  6 14  1  0  0  0  0
  7 14  2  0  0  0  0
  8 15  1  0  0  0  0
  9 16  1  0  0  0  0
 10 12  2  0  0  0  0
 10 17  1  0  0  0  0
 11 13  1  0  0  0  0
 11 17  2  0  0  0  0
 12 18  1  0  0  0  0
 13 18  2  0  0  0  0
 14 22  1  0  0  0  0
 15 16  2  0  0  0  0
 15 25  1  0  0  0  0
 16 27  1  0  0  0  0
 17 28  1  0  0  0  0
 18 29  1  0  0  0  0
 19 23  1  0  0  0  0
 19 28  1  0  0  0  0
 19 30  2  0  0  0  0
 20 24  1  0  0  0  0
 20 29  1  0  0  0  0
 20 31  2  0  0  0  0
 21 23  1  0  0  0  0
 22 29  1  0  0  0  0
 24 27  1  0  0  0  0
 25 26  2  0  0  0  0
 26 27  1  0  0  0  0
  1 32  1  0  0  0  0
  2 33  1  0  0  0  0
  3 34  1  0  0  0  0
  4 35  1  0  0  0  0
  5 36  1  0  0  0  0
  6 37  1  0  0  0  0
  7 38  1  0  0  0  0
  8 39  1  0  0  0  0
  9 40  1  0  0  0  0
 10 41  1  0  0  0  0
 11 42  1  0  0  0  0
 12 43  1  0  0  0  0
 13 44  1  0  0  0  0
 21 45  1  0  0  0  0
 21 46  1  0  0  0  0
 21 47  1  0  0  0  0
 22 48  1  0  0  0  0
 22 49  1  0  0  0  0
 23 50  1  0  0  0  0
 23 51  1  0  0  0  0
 24 52  1  0  0  0  0
 24 53  1  0  0  0  0
 28 54  1  0  0  0  0
M  END
> <clash_score>
1.4986672183376766

> <docking_score>
-6.91741943359375

> <overlap_score>
0.9778850078582764

$$$$
BENZO_340_1
  -OEChem-08232013463D

 51 54  0     0  0  0  0  0  0999 V2000
    3.9160    2.0630   19.5520 C   0  0  0  0  0  0  0  0  0  0  0  0
    4.2750    1.7050   20.8490 C   0  0  0  0  0  0  0  0  0  0  0  0
    4.6890    1.6810   18.4640 C   0  0  0  0  0  0  0  0  0  0  0  0
    5.4210    0.9600   21.0930 C   0  0  0  0  0  0  0  0  0  0  0  0
    8.9960   -2.3380   25.5320 C   0  0  0  0  0  0  0  0  0  0  0  0
    9.6730   -3.4710   23.5300 C   0  0  0  0  0  0  0  0  0  0  0  0
    9.0720   -1.1280   24.8640 C   0  0  0  0  0  0  0  0  0  0  0  0
    9.7200   -2.2600   22.8630 C   0  0  0  0  0  0  0  0  0  0  0  0
   12.3069    2.4071   23.8887 C   0  0  0  0  0  0  0  0  0  0  0  0
   13.6470    2.0928   23.9439 C   0  0  0  0  0  0  0  0  0  0  0  0
   12.2389    0.0925   23.6871 C   0  0  0  0  0  0  0  0  0  0  0  0
   11.4911    1.2484   23.7401 C   0  0  0  0  0  0  0  0  0  0  0  0
    5.8300    0.9190   18.6970 C   0  0  0  0  0  0  0  0  0  0  0  0
    6.1790    0.5730   19.9990 C   0  0  0  0  0  0  0  0  0  0  0  0
    9.3070   -3.5340   24.8780 C   0  0  0  0  0  0  0  0  0  0  0  0
    9.3350   -1.0880   23.5010 C   0  0  0  0  0  0  0  0  0  0  0  0
    9.5334   -6.0236   25.0414 C   0  0  0  0  0  0  0  0  0  0  0  0
    9.0420    0.3700   21.5280 C   0  0  0  0  0  0  0  0  0  0  0  0
   10.6330   -7.3746   26.8775 C   0  0  0  0  0  0  0  0  0  0  0  0
    9.9929    1.2851   23.6509 C   0  0  0  0  0  0  0  0  0  0  0  0
    9.3522   -7.0865   26.1149 C   0  0  0  0  0  0  0  0  0  0  0  0
    8.1890   -0.7180   20.8700 C   0  0  0  0  0  0  0  0  0  0  0  0
    6.7580    0.3810   17.8350 N   0  0  0  0  0  0  0  0  0  0  0  0
    7.6390   -0.2680   18.5410 N   0  0  0  0  0  0  0  0  0  0  0  0
    7.3170   -0.1610   19.8550 N   0  0  0  0  0  0  0  0  0  0  0  0
    9.2546   -4.7422   25.5438 N   0  0  0  0  0  0  0  0  0  0  0  0
    9.4560    0.1560   22.8130 N   0  0  0  0  0  0  0  0  0  0  0  0
    9.8805   -6.3053   23.8992 O   0  0  0  0  0  0  0  0  0  0  0  0
    9.2690    1.4140   20.9380 O   0  0  0  0  0  0  0  0  0  0  0  0
   13.9173    0.4067   23.8165 S   0  0  0  0  0  0  0  0  0  0  0  0
    3.0136    2.6524   19.3909 H   0  0  0  0  0  0  0  0  0  0  0  0
    3.6477    2.0141   21.6817 H   0  0  0  0  0  0  0  0  0  0  0  0
    4.4041    1.9739   17.4524 H   0  0  0  0  0  0  0  0  0  0  0  0
    5.7107    0.6909   22.1141 H   0  0  0  0  0  0  0  0  0  0  0  0
    8.6895   -2.3529   26.5807 H   0  0  0  0  0  0  0  0  0  0  0  0
    9.9262   -4.3897   22.9916 H   0  0  0  0  0  0  0  0  0  0  0  0
    8.9224   -0.1998   25.4238 H   0  0  0  0  0  0  0  0  0  0  0  0
   10.0649   -2.2343   21.8258 H   0  0  0  0  0  0  0  0  0  0  0  0
   11.9339    3.4215   23.9520 H   0  0  0  0  0  0  0  0  0  0  0  0
   14.4803    2.7726   24.0521 H   0  0  0  0  0  0  0  0  0  0  0  0
   11.8841   -0.9229   23.5774 H   0  0  0  0  0  0  0  0  0  0  0  0
   11.4241   -7.7171   26.2024 H   0  0  0  0  0  0  0  0  0  0  0  0
   10.4629   -8.1530   27.6277 H   0  0  0  0  0  0  0  0  0  0  0  0
   10.9949   -6.4779   27.3911 H   0  0  0  0  0  0  0  0  0  0  0  0
    9.5448    1.2080   24.6476 H   0  0  0  0  0  0  0  0  0  0  0  0
    9.6483    2.2271   23.2115 H   0  0  0  0  0  0  0  0  0  0  0  0
    8.5795   -6.7463   26.8138 H   0  0  0  0  0  0  0  0  0  0  0  0
    8.9965   -8.0064   25.6368 H   0  0  0  0  0  0  0  0  0  0  0  0
    8.8255   -1.4531   20.3835 H   0  0  0  0  0  0  0  0  0  0  0  0
    7.5533   -1.1948   21.6123 H   0  0  0  0  0  0  0  0  0  0  0  0
    8.9776   -4.7057   26.5317 H   0  0  0  0  0  0  0  0  0  0  0  0
  1  2  1  0  0  0  0
  1  3  2  0  0  0  0
  2  4  2  0  0  0  0
  3 13  1  0  0  0  0
  4 14  1  0  0  0  0
  5  7  2  0  0  0  0
  5 15  1  0  0  0  0
  6  8  1  0  0  0  0
  6 15  2  0  0  0  0
  7 16  1  0  0  0  0
  8 16  2  0  0  0  0
  9 10  2  0  0  0  0
  9 12  1  0  0  0  0
 10 30  1  0  0  0  0
 11 12  2  0  0  0  0
 11 30  1  0  0  0  0
 12 20  1  0  0  0  0
 13 14  2  0  0  0  0
 13 23  1  0  0  0  0
 14 25  1  0  0  0  0
 15 26  1  0  0  0  0
 16 27  1  0  0  0  0
 17 21  1  0  0  0  0
 17 26  1  0  0  0  0
 17 28  2  0  0  0  0
 18 22  1  0  0  0  0
 18 27  1  0  0  0  0
 18 29  2  0  0  0  0
 19 21  1  0  0  0  0
 20 27  1  0  0  0  0
 22 25  1  0  0  0  0
 23 24  2  0  0  0  0
 24 25  1  0  0  0  0
  1 31  1  0  0  0  0
  2 32  1  0  0  0  0
  3 33  1  0  0  0  0
  4 34  1  0  0  0  0
  5 35  1  0  0  0  0
  6 36  1  0  0  0  0
  7 37  1  0  0  0  0
  8 38  1  0  0  0  0
  9 39  1  0  0  0  0
 10 40  1  0  0  0  0
 11 41  1  0  0  0  0
 19 42  1  0  0  0  0
 19 43  1  0  0  0  0
 19 44  1  0  0  0  0
 20 45  1  0  0  0  0
 20 46  1  0  0  0  0
 21 47  1  0  0  0  0
 21 48  1  0  0  0  0
 22 49  1  0  0  0  0
 22 50  1  0  0  0  0
 26 51  1  0  0  0  0
M  END
> <clash_score>
1.4986672183376766

> <docking_score>
-5.840753555297852

> <overlap_score>
0.9629238247871399

$$$$
BENZO_345_1
  -OEChem-08232013463D

 59 63  0     0  0  0  0  0  0999 V2000
   14.2762    1.3533   23.8952 C   0  0  0  0  0  0  0  0  0  0  0  0
   13.5269    0.6624   24.8474 C   0  0  0  0  0  0  0  0  0  0  0  0
   13.6334    2.0295   22.8583 C   0  0  0  0  0  0  0  0  0  0  0  0
    3.9160    2.0630   19.5520 C   0  0  0  0  0  0  0  0  0  0  0  0
    4.2750    1.7050   20.8490 C   0  0  0  0  0  0  0  0  0  0  0  0
   12.1346    0.6475   24.7626 C   0  0  0  0  0  0  0  0  0  0  0  0
   12.2412    2.0146   22.7735 C   0  0  0  0  0  0  0  0  0  0  0  0
    4.6890    1.6810   18.4640 C   0  0  0  0  0  0  0  0  0  0  0  0
    5.4210    0.9600   21.0930 C   0  0  0  0  0  0  0  0  0  0  0  0
    8.9960   -2.3380   25.5320 C   0  0  0  0  0  0  0  0  0  0  0  0
    9.6730   -3.4710   23.5300 C   0  0  0  0  0  0  0  0  0  0  0  0
    9.0720   -1.1280   24.8640 C   0  0  0  0  0  0  0  0  0  0  0  0
    9.7200   -2.2600   22.8630 C   0  0  0  0  0  0  0  0  0  0  0  0
   11.4918    1.3236   23.7257 C   0  0  0  0  0  0  0  0  0  0  0  0
    5.8300    0.9190   18.6970 C   0  0  0  0  0  0  0  0  0  0  0  0
    6.1790    0.5730   19.9990 C   0  0  0  0  0  0  0  0  0  0  0  0
    9.3070   -3.5340   24.8780 C   0  0  0  0  0  0  0  0  0  0  0  0
    9.3350   -1.0880   23.5010 C   0  0  0  0  0  0  0  0  0  0  0  0
    9.0420    0.3700   21.5280 C   0  0  0  0  0  0  0  0  0  0  0  0
    7.3635   -6.1361   27.1888 C   0  0  0  0  0  0  0  0  0  0  0  0
    8.1961   -4.9735   27.7341 C   0  0  0  0  0  0  0  0  0  0  0  0
    7.1942   -6.0394   25.6709 C   0  0  0  0  0  0  0  0  0  0  0  0
    9.5196   -4.8490   26.9797 C   0  0  0  0  0  0  0  0  0  0  0  0
    8.5442   -5.8838   24.9639 C   0  0  0  0  0  0  0  0  0  0  0  0
    9.9933    1.3078   23.6337 C   0  0  0  0  0  0  0  0  0  0  0  0
    8.1890   -0.7180   20.8700 C   0  0  0  0  0  0  0  0  0  0  0  0
    6.7580    0.3810   17.8350 N   0  0  0  0  0  0  0  0  0  0  0  0
    7.6390   -0.2680   18.5410 N   0  0  0  0  0  0  0  0  0  0  0  0
    7.3170   -0.1610   19.8550 N   0  0  0  0  0  0  0  0  0  0  0  0
    9.2562   -4.7384   25.5422 N   0  0  0  0  0  0  0  0  0  0  0  0
    9.4560    0.1560   22.8130 N   0  0  0  0  0  0  0  0  0  0  0  0
    9.2690    1.4140   20.9380 O   0  0  0  0  0  0  0  0  0  0  0  0
   15.3602    1.3659   23.9622 H   0  0  0  0  0  0  0  0  0  0  0  0
   14.0272    0.1367   25.6555 H   0  0  0  0  0  0  0  0  0  0  0  0
   14.2164    2.5685   22.1174 H   0  0  0  0  0  0  0  0  0  0  0  0
    3.0136    2.6524   19.3909 H   0  0  0  0  0  0  0  0  0  0  0  0
    3.6477    2.0141   21.6817 H   0  0  0  0  0  0  0  0  0  0  0  0
   11.5589    0.1063   25.5089 H   0  0  0  0  0  0  0  0  0  0  0  0
   11.7489    2.5442   21.9621 H   0  0  0  0  0  0  0  0  0  0  0  0
    4.4042    1.9739   17.4524 H   0  0  0  0  0  0  0  0  0  0  0  0
    5.7107    0.6909   22.1141 H   0  0  0  0  0  0  0  0  0  0  0  0
    8.6905   -2.3533   26.5810 H   0  0  0  0  0  0  0  0  0  0  0  0
    9.9266   -4.3896   22.9917 H   0  0  0  0  0  0  0  0  0  0  0  0
    8.9233   -0.1992   25.4231 H   0  0  0  0  0  0  0  0  0  0  0  0
   10.0650   -2.2330   21.8256 H   0  0  0  0  0  0  0  0  0  0  0  0
    7.8482   -7.0901   27.4469 H   0  0  0  0  0  0  0  0  0  0  0  0
    6.3760   -6.1438   27.6724 H   0  0  0  0  0  0  0  0  0  0  0  0
    7.6307   -4.0424   27.6403 H   0  0  0  0  0  0  0  0  0  0  0  0
    8.3915   -5.1310   28.7968 H   0  0  0  0  0  0  0  0  0  0  0  0
    6.6888   -6.9376   25.3010 H   0  0  0  0  0  0  0  0  0  0  0  0
    6.5515   -5.1859   25.4257 H   0  0  0  0  0  0  0  0  0  0  0  0
   10.0492   -3.9640   27.3414 H   0  0  0  0  0  0  0  0  0  0  0  0
   10.1431   -5.7254   27.1778 H   0  0  0  0  0  0  0  0  0  0  0  0
    9.1338   -6.7931   25.0868 H   0  0  0  0  0  0  0  0  0  0  0  0
    8.3656   -5.7264   23.8998 H   0  0  0  0  0  0  0  0  0  0  0  0
    9.5459    1.2392   24.6313 H   0  0  0  0  0  0  0  0  0  0  0  0
    9.6182    2.2271   23.1715 H   0  0  0  0  0  0  0  0  0  0  0  0
    8.8326   -1.4554   20.3912 H   0  0  0  0  0  0  0  0  0  0  0  0
    7.5604   -1.1971   21.6201 H   0  0  0  0  0  0  0  0  0  0  0  0
  1  2  1  0  0  0  0
  1  3  2  0  0  0  0
  2  6  2  0  0  0  0
  3  7  1  0  0  0  0
  4  5  1  0  0  0  0
  4  8  2  0  0  0  0
  5  9  2  0  0  0  0
  6 14  1  0  0  0  0
  7 14  2  0  0  0  0
  8 15  1  0  0  0  0
  9 16  1  0  0  0  0
 10 12  2  0  0  0  0
 10 17  1  0  0  0  0
 11 13  1  0  0  0  0
 11 17  2  0  0  0  0
 12 18  1  0  0  0  0
 13 18  2  0  0  0  0
 14 25  1  0  0  0  0
 15 16  2  0  0  0  0
 15 27  1  0  0  0  0
 16 29  1  0  0  0  0
 17 30  1  0  0  0  0
 18 31  1  0  0  0  0
 19 26  1  0  0  0  0
 19 31  1  0  0  0  0
 19 32  2  0  0  0  0
 20 21  1  0  0  0  0
 20 22  1  0  0  0  0
 21 23  1  0  0  0  0
 22 24  1  0  0  0  0
 23 30  1  0  0  0  0
 24 30  1  0  0  0  0
 25 31  1  0  0  0  0
 26 29  1  0  0  0  0
 27 28  2  0  0  0  0
 28 29  1  0  0  0  0
  1 33  1  0  0  0  0
  2 34  1  0  0  0  0
  3 35  1  0  0  0  0
  4 36  1  0  0  0  0
  5 37  1  0  0  0  0
  6 38  1  0  0  0  0
  7 39  1  0  0  0  0
  8 40  1  0  0  0  0
  9 41  1  0  0  0  0
 10 42  1  0  0  0  0
 11 43  1  0  0  0  0
 12 44  1  0  0  0  0
 13 45  1  0  0  0  0
 20 46  1  0  0  0  0
 20 47  1  0  0  0  0
 21 48  1  0  0  0  0
 21 49  1  0  0  0  0
 22 50  1  0  0  0  0
 22 51  1  0  0  0  0
 23 52  1  0  0  0  0
 23 53  1  0  0  0  0
 24 54  1  0  0  0  0
 24 55  1  0  0  0  0
 25 56  1  0  0  0  0
 25 57  1  0  0  0  0
 26 58  1  0  0  0  0
 26 59  1  0  0  0  0
M  END
> <clash_score>
0

> <docking_score>
-9.127571105957031

> <overlap_score>
0.9928334355354309

$$$$
BENZO_344_1
  -OEChem-08232013463D

 56 60  0     0  0  0  0  0  0999 V2000
    3.9160    2.0630   19.5520 C   0  0  0  0  0  0  0  0  0  0  0  0
    4.2750    1.7050   20.8490 C   0  0  0  0  0  0  0  0  0  0  0  0
    4.6890    1.6810   18.4640 C   0  0  0  0  0  0  0  0  0  0  0  0
    5.4210    0.9600   21.0930 C   0  0  0  0  0  0  0  0  0  0  0  0
    8.9960   -2.3380   25.5320 C   0  0  0  0  0  0  0  0  0  0  0  0
    9.6730   -3.4710   23.5300 C   0  0  0  0  0  0  0  0  0  0  0  0
    9.0720   -1.1280   24.8640 C   0  0  0  0  0  0  0  0  0  0  0  0
    9.7200   -2.2600   22.8630 C   0  0  0  0  0  0  0  0  0  0  0  0
   12.3563    1.4065   22.5961 C   0  0  0  0  0  0  0  0  0  0  0  0
   13.6849    1.4022   22.9600 C   0  0  0  0  0  0  0  0  0  0  0  0
   12.1926    1.2589   24.9100 C   0  0  0  0  0  0  0  0  0  0  0  0
   11.4918    1.3236   23.7257 C   0  0  0  0  0  0  0  0  0  0  0  0
    5.8300    0.9190   18.6970 C   0  0  0  0  0  0  0  0  0  0  0  0
    6.1790    0.5730   19.9990 C   0  0  0  0  0  0  0  0  0  0  0  0
    9.3070   -3.5340   24.8780 C   0  0  0  0  0  0  0  0  0  0  0  0
    9.3350   -1.0880   23.5010 C   0  0  0  0  0  0  0  0  0  0  0  0
    9.0420    0.3700   21.5280 C   0  0  0  0  0  0  0  0  0  0  0  0
    7.2235   -6.6199   26.3009 C   0  0  0  0  0  0  0  0  0  0  0  0
    7.4293   -5.3101   27.0652 C   0  0  0  0  0  0  0  0  0  0  0  0
    7.7217   -6.5099   24.8580 C   0  0  0  0  0  0  0  0  0  0  0  0
    8.8782   -4.8357   26.9548 C   0  0  0  0  0  0  0  0  0  0  0  0
    9.1652   -6.0007   24.7995 C   0  0  0  0  0  0  0  0  0  0  0  0
    9.9933    1.3078   23.6337 C   0  0  0  0  0  0  0  0  0  0  0  0
    8.1890   -0.7180   20.8700 C   0  0  0  0  0  0  0  0  0  0  0  0
    6.7580    0.3810   17.8350 N   0  0  0  0  0  0  0  0  0  0  0  0
    7.6390   -0.2680   18.5410 N   0  0  0  0  0  0  0  0  0  0  0  0
    7.3170   -0.1610   19.8550 N   0  0  0  0  0  0  0  0  0  0  0  0
    9.2562   -4.7384   25.5422 N   0  0  0  0  0  0  0  0  0  0  0  0
    9.4560    0.1560   22.8130 N   0  0  0  0  0  0  0  0  0  0  0  0
    9.2690    1.4140   20.9380 O   0  0  0  0  0  0  0  0  0  0  0  0
   13.8858    1.2985   24.6574 S   0  0  0  0  0  0  0  0  0  0  0  0
    3.0136    2.6524   19.3909 H   0  0  0  0  0  0  0  0  0  0  0  0
    3.6477    2.0141   21.6817 H   0  0  0  0  0  0  0  0  0  0  0  0
    4.4042    1.9739   17.4524 H   0  0  0  0  0  0  0  0  0  0  0  0
    5.7107    0.6909   22.1141 H   0  0  0  0  0  0  0  0  0  0  0  0
    8.6905   -2.3533   26.5810 H   0  0  0  0  0  0  0  0  0  0  0  0
    9.9266   -4.3896   22.9917 H   0  0  0  0  0  0  0  0  0  0  0  0
    8.9233   -0.1992   25.4231 H   0  0  0  0  0  0  0  0  0  0  0  0
   10.0650   -2.2330   21.8256 H   0  0  0  0  0  0  0  0  0  0  0  0
   12.0248    1.4659   21.5671 H   0  0  0  0  0  0  0  0  0  0  0  0
   14.5472    1.4542   22.3104 H   0  0  0  0  0  0  0  0  0  0  0  0
   11.7954    1.1891   25.9131 H   0  0  0  0  0  0  0  0  0  0  0  0
    7.7559   -7.4347   26.8149 H   0  0  0  0  0  0  0  0  0  0  0  0
    6.1572   -6.8883   26.3055 H   0  0  0  0  0  0  0  0  0  0  0  0
    6.7602   -4.5435   26.6651 H   0  0  0  0  0  0  0  0  0  0  0  0
    7.1684   -5.4551   28.1155 H   0  0  0  0  0  0  0  0  0  0  0  0
    7.6595   -7.4899   24.3736 H   0  0  0  0  0  0  0  0  0  0  0  0
    7.0706   -5.8317   24.2943 H   0  0  0  0  0  0  0  0  0  0  0  0
    8.9681   -3.8621   27.4435 H   0  0  0  0  0  0  0  0  0  0  0  0
    9.5387   -5.5390   27.4697 H   0  0  0  0  0  0  0  0  0  0  0  0
    9.8374   -6.7413   25.2344 H   0  0  0  0  0  0  0  0  0  0  0  0
    9.4414   -5.8515   23.7552 H   0  0  0  0  0  0  0  0  0  0  0  0
    9.5459    1.2392   24.6313 H   0  0  0  0  0  0  0  0  0  0  0  0
    9.6182    2.2271   23.1715 H   0  0  0  0  0  0  0  0  0  0  0  0
    8.8326   -1.4554   20.3912 H   0  0  0  0  0  0  0  0  0  0  0  0
    7.5604   -1.1971   21.6201 H   0  0  0  0  0  0  0  0  0  0  0  0
  1  2  1  0  0  0  0
  1  3  2  0  0  0  0
  2  4  2  0  0  0  0
  3 13  1  0  0  0  0
  4 14  1  0  0  0  0
  5  7  2  0  0  0  0
  5 15  1  0  0  0  0
  6  8  1  0  0  0  0
  6 15  2  0  0  0  0
  7 16  1  0  0  0  0
  8 16  2  0  0  0  0
  9 10  2  0  0  0  0
  9 12  1  0  0  0  0
 10 31  1  0  0  0  0
 11 12  2  0  0  0  0
 11 31  1  0  0  0  0
 12 23  1  0  0  0  0
 13 14  2  0  0  0  0
 13 25  1  0  0  0  0
 14 27  1  0  0  0  0
 15 28  1  0  0  0  0
 16 29  1  0  0  0  0
 17 24  1  0  0  0  0
 17 29  1  0  0  0  0
 17 30  2  0  0  0  0
 18 19  1  0  0  0  0
 18 20  1  0  0  0  0
 19 21  1  0  0  0  0
 20 22  1  0  0  0  0
 21 28  1  0  0  0  0
 22 28  1  0  0  0  0
 23 29  1  0  0  0  0
 24 27  1  0  0  0  0
 25 26  2  0  0  0  0
 26 27  1  0  0  0  0
  1 32  1  0  0  0  0
  2 33  1  0  0  0  0
  3 34  1  0  0  0  0
  4 35  1  0  0  0  0
  5 36  1  0  0  0  0
  6 37  1  0  0  0  0
  7 38  1  0  0  0  0
  8 39  1  0  0  0  0
  9 40  1  0  0  0  0
 10 41  1  0  0  0  0
 11 42  1  0  0  0  0
 18 43  1  0  0  0  0
 18 44  1  0  0  0  0
 19 45  1  0  0  0  0
 19 46  1  0  0  0  0
 20 47  1  0  0  0  0
 20 48  1  0  0  0  0
 21 49  1  0  0  0  0
 21 50  1  0  0  0  0
 22 51  1  0  0  0  0
 22 52  1  0  0  0  0
 23 53  1  0  0  0  0
 23 54  1  0  0  0  0
 24 55  1  0  0  0  0
 24 56  1  0  0  0  0
M  END
> <clash_score>
0

> <docking_score>
-9.065710067749023

> <overlap_score>
0.9770368933677673

$$$$
BENZO_342_1
  -OEChem-08232013463D

 54 57  0     0  0  0  0  0  0999 V2000
    3.9160    2.0630   19.5520 C   0  0  0  0  0  0  0  0  0  0  0  0
    4.2750    1.7050   20.8490 C   0  0  0  0  0  0  0  0  0  0  0  0
   13.6473    2.1218   23.0883 C   0  0  0  0  0  0  0  0  0  0  0  0
   12.2554    2.1546   23.0050 C   0  0  0  0  0  0  0  0  0  0  0  0
    4.6890    1.6810   18.4640 C   0  0  0  0  0  0  0  0  0  0  0  0
    5.4210    0.9600   21.0930 C   0  0  0  0  0  0  0  0  0  0  0  0
    8.9960   -2.3380   25.5320 C   0  0  0  0  0  0  0  0  0  0  0  0
    9.6730   -3.4710   23.5300 C   0  0  0  0  0  0  0  0  0  0  0  0
    9.0720   -1.1280   24.8640 C   0  0  0  0  0  0  0  0  0  0  0  0
    9.7200   -2.2600   22.8630 C   0  0  0  0  0  0  0  0  0  0  0  0
   14.2751    1.1826   23.9065 C   0  0  0  0  0  0  0  0  0  0  0  0
   12.1189    0.3092   24.5584 C   0  0  0  0  0  0  0  0  0  0  0  0
   11.4911    1.2484   23.7401 C   0  0  0  0  0  0  0  0  0  0  0  0
    5.8300    0.9190   18.6970 C   0  0  0  0  0  0  0  0  0  0  0  0
    6.1790    0.5730   19.9990 C   0  0  0  0  0  0  0  0  0  0  0  0
    9.3070   -3.5340   24.8780 C   0  0  0  0  0  0  0  0  0  0  0  0
    9.3350   -1.0880   23.5010 C   0  0  0  0  0  0  0  0  0  0  0  0
   13.5109    0.2764   24.6416 C   0  0  0  0  0  0  0  0  0  0  0  0
    9.5334   -6.0236   25.0414 C   0  0  0  0  0  0  0  0  0  0  0  0
    9.0420    0.3700   21.5280 C   0  0  0  0  0  0  0  0  0  0  0  0
   10.6330   -7.3746   26.8775 C   0  0  0  0  0  0  0  0  0  0  0  0
    9.9929    1.2851   23.6509 C   0  0  0  0  0  0  0  0  0  0  0  0
    9.3522   -7.0865   26.1149 C   0  0  0  0  0  0  0  0  0  0  0  0
    8.1890   -0.7180   20.8700 C   0  0  0  0  0  0  0  0  0  0  0  0
    6.7580    0.3810   17.8350 N   0  0  0  0  0  0  0  0  0  0  0  0
    7.6390   -0.2680   18.5410 N   0  0  0  0  0  0  0  0  0  0  0  0
    7.3170   -0.1610   19.8550 N   0  0  0  0  0  0  0  0  0  0  0  0
    9.2546   -4.7422   25.5438 N   0  0  0  0  0  0  0  0  0  0  0  0
    9.4560    0.1560   22.8130 N   0  0  0  0  0  0  0  0  0  0  0  0
    9.8805   -6.3053   23.8992 O   0  0  0  0  0  0  0  0  0  0  0  0
    9.2690    1.4140   20.9380 O   0  0  0  0  0  0  0  0  0  0  0  0
   14.2860   -0.8814   25.6519 Cl  0  0  0  0  0  0  0  0  0  0  0  0
    3.0136    2.6524   19.3909 H   0  0  0  0  0  0  0  0  0  0  0  0
    3.6477    2.0141   21.6817 H   0  0  0  0  0  0  0  0  0  0  0  0
   14.2420    2.8277   22.5158 H   0  0  0  0  0  0  0  0  0  0  0  0
   11.7747    2.8899   22.3650 H   0  0  0  0  0  0  0  0  0  0  0  0
    4.4041    1.9739   17.4524 H   0  0  0  0  0  0  0  0  0  0  0  0
    5.7107    0.6909   22.1141 H   0  0  0  0  0  0  0  0  0  0  0  0
    8.6895   -2.3529   26.5807 H   0  0  0  0  0  0  0  0  0  0  0  0
    9.9262   -4.3897   22.9916 H   0  0  0  0  0  0  0  0  0  0  0  0
    8.9224   -0.1998   25.4238 H   0  0  0  0  0  0  0  0  0  0  0  0
   10.0649   -2.2343   21.8258 H   0  0  0  0  0  0  0  0  0  0  0  0
   15.3609    1.1688   23.9618 H   0  0  0  0  0  0  0  0  0  0  0  0
   11.5186   -0.3955   25.1292 H   0  0  0  0  0  0  0  0  0  0  0  0
   11.4241   -7.7171   26.2024 H   0  0  0  0  0  0  0  0  0  0  0  0
   10.4629   -8.1530   27.6277 H   0  0  0  0  0  0  0  0  0  0  0  0
   10.9949   -6.4779   27.3911 H   0  0  0  0  0  0  0  0  0  0  0  0
    9.5448    1.2080   24.6476 H   0  0  0  0  0  0  0  0  0  0  0  0
    9.6483    2.2271   23.2115 H   0  0  0  0  0  0  0  0  0  0  0  0
    8.5795   -6.7463   26.8138 H   0  0  0  0  0  0  0  0  0  0  0  0
    8.9965   -8.0064   25.6368 H   0  0  0  0  0  0  0  0  0  0  0  0
    8.8255   -1.4531   20.3835 H   0  0  0  0  0  0  0  0  0  0  0  0
    7.5533   -1.1948   21.6123 H   0  0  0  0  0  0  0  0  0  0  0  0
    8.9776   -4.7057   26.5317 H   0  0  0  0  0  0  0  0  0  0  0  0
  1  2  1  0  0  0  0
  1  5  2  0  0  0  0
  2  6  2  0  0  0  0
  3  4  2  0  0  0  0
  3 11  1  0  0  0  0
  4 13  1  0  0  0  0
  5 14  1  0  0  0  0
  6 15  1  0  0  0  0
  7  9  2  0  0  0  0
  7 16  1  0  0  0  0
  8 10  1  0  0  0  0
  8 16  2  0  0  0  0
  9 17  1  0  0  0  0
 10 17  2  0  0  0  0
 11 18  2  0  0  0  0
 12 13  2  0  0  0  0
 12 18  1  0  0  0  0
 13 22  1  0  0  0  0
 14 15  2  0  0  0  0
 14 25  1  0  0  0  0
 15 27  1  0  0  0  0
 16 28  1  0  0  0  0
 17 29  1  0  0  0  0
 18 32  1  0  0  0  0
 19 23  1  0  0  0  0
 19 28  1  0  0  0  0
 19 30  2  0  0  0  0
 20 24  1  0  0  0  0
 20 29  1  0  0  0  0
 20 31  2  0  0  0  0
 21 23  1  0  0  0  0
 22 29  1  0  0  0  0
 24 27  1  0  0  0  0
 25 26  2  0  0  0  0
 26 27  1  0  0  0  0
  1 33  1  0  0  0  0
  2 34  1  0  0  0  0
  3 35  1  0  0  0  0
  4 36  1  0  0  0  0
  5 37  1  0  0  0  0
  6 38  1  0  0  0  0
  7 39  1  0  0  0  0
  8 40  1  0  0  0  0
  9 41  1  0  0  0  0
 10 42  1  0  0  0  0
 11 43  1  0  0  0  0
 12 44  1  0  0  0  0
 21 45  1  0  0  0  0
 21 46  1  0  0  0  0
 21 47  1  0  0  0  0
 22 48  1  0  0  0  0
 22 49  1  0  0  0  0
 23 50  1  0  0  0  0
 23 51  1  0  0  0  0
 24 52  1  0  0  0  0
 24 53  1  0  0  0  0
 28 54  1  0  0  0  0
M  END
> <clash_score>
2.1725364632117596

> <docking_score>
-5.719790458679199

> <overlap_score>
0.9812483787536621

$$$$
BENZO_343_1
  -OEChem-08232013463D

 54 57  0     0  0  0  0  0  0999 V2000
    3.9160    2.0630   19.5520 C   0  0  0  0  0  0  0  0  0  0  0  0
    4.2750    1.7050   20.8490 C   0  0  0  0  0  0  0  0  0  0  0  0
    4.6890    1.6810   18.4640 C   0  0  0  0  0  0  0  0  0  0  0  0
    5.4210    0.9600   21.0930 C   0  0  0  0  0  0  0  0  0  0  0  0
    8.9960   -2.3380   25.5320 C   0  0  0  0  0  0  0  0  0  0  0  0
    9.6730   -3.4710   23.5300 C   0  0  0  0  0  0  0  0  0  0  0  0
    9.0720   -1.1280   24.8640 C   0  0  0  0  0  0  0  0  0  0  0  0
    9.7200   -2.2600   22.8630 C   0  0  0  0  0  0  0  0  0  0  0  0
   12.2851    1.1333   24.8969 C   0  0  0  0  0  0  0  0  0  0  0  0
   12.3954    1.3169   22.7085 C   0  0  0  0  0  0  0  0  0  0  0  0
   11.4911    1.2484   23.7401 C   0  0  0  0  0  0  0  0  0  0  0  0
    5.8300    0.9190   18.6970 C   0  0  0  0  0  0  0  0  0  0  0  0
    6.1790    0.5730   19.9990 C   0  0  0  0  0  0  0  0  0  0  0  0
    9.3070   -3.5340   24.8780 C   0  0  0  0  0  0  0  0  0  0  0  0
    9.3350   -1.0880   23.5010 C   0  0  0  0  0  0  0  0  0  0  0  0
    9.5334   -6.0236   25.0414 C   0  0  0  0  0  0  0  0  0  0  0  0
    9.0420    0.3700   21.5280 C   0  0  0  0  0  0  0  0  0  0  0  0
   10.6330   -7.3746   26.8775 C   0  0  0  0  0  0  0  0  0  0  0  0
   14.8985    1.2725   22.6038 C   0  0  0  0  0  0  0  0  0  0  0  0
    9.9929    1.2851   23.6509 C   0  0  0  0  0  0  0  0  0  0  0  0
    9.3522   -7.0865   26.1149 C   0  0  0  0  0  0  0  0  0  0  0  0
    8.1890   -0.7180   20.8700 C   0  0  0  0  0  0  0  0  0  0  0  0
   13.5930    1.1286   24.6263 N   0  0  0  0  0  0  0  0  0  0  0  0
    6.7580    0.3810   17.8350 N   0  0  0  0  0  0  0  0  0  0  0  0
    7.6390   -0.2680   18.5410 N   0  0  0  0  0  0  0  0  0  0  0  0
   13.6279    1.2414   23.2876 N   0  0  0  0  0  0  0  0  0  0  0  0
    7.3170   -0.1610   19.8550 N   0  0  0  0  0  0  0  0  0  0  0  0
    9.2546   -4.7422   25.5438 N   0  0  0  0  0  0  0  0  0  0  0  0
    9.4560    0.1560   22.8130 N   0  0  0  0  0  0  0  0  0  0  0  0
    9.8805   -6.3053   23.8992 O   0  0  0  0  0  0  0  0  0  0  0  0
    9.2690    1.4140   20.9380 O   0  0  0  0  0  0  0  0  0  0  0  0
    3.0136    2.6524   19.3909 H   0  0  0  0  0  0  0  0  0  0  0  0
    3.6477    2.0141   21.6817 H   0  0  0  0  0  0  0  0  0  0  0  0
    4.4041    1.9739   17.4524 H   0  0  0  0  0  0  0  0  0  0  0  0
    5.7107    0.6909   22.1141 H   0  0  0  0  0  0  0  0  0  0  0  0
    8.6895   -2.3529   26.5807 H   0  0  0  0  0  0  0  0  0  0  0  0
    9.9262   -4.3897   22.9916 H   0  0  0  0  0  0  0  0  0  0  0  0
    8.9224   -0.1998   25.4238 H   0  0  0  0  0  0  0  0  0  0  0  0
   10.0649   -2.2343   21.8258 H   0  0  0  0  0  0  0  0  0  0  0  0
   11.9674    1.0517   25.9268 H   0  0  0  0  0  0  0  0  0  0  0  0
   12.2698    1.4094   21.6382 H   0  0  0  0  0  0  0  0  0  0  0  0
   11.4241   -7.7171   26.2024 H   0  0  0  0  0  0  0  0  0  0  0  0
   10.4629   -8.1530   27.6277 H   0  0  0  0  0  0  0  0  0  0  0  0
   10.9949   -6.4779   27.3911 H   0  0  0  0  0  0  0  0  0  0  0  0
   15.2175    2.3156   22.5321 H   0  0  0  0  0  0  0  0  0  0  0  0
   15.6299    0.6869   23.1677 H   0  0  0  0  0  0  0  0  0  0  0  0
   14.7832    0.8374   21.6071 H   0  0  0  0  0  0  0  0  0  0  0  0
    9.5448    1.2080   24.6476 H   0  0  0  0  0  0  0  0  0  0  0  0
    9.6483    2.2271   23.2115 H   0  0  0  0  0  0  0  0  0  0  0  0
    8.5795   -6.7463   26.8138 H   0  0  0  0  0  0  0  0  0  0  0  0
    8.9965   -8.0064   25.6368 H   0  0  0  0  0  0  0  0  0  0  0  0
    8.8255   -1.4531   20.3835 H   0  0  0  0  0  0  0  0  0  0  0  0
    7.5533   -1.1948   21.6123 H   0  0  0  0  0  0  0  0  0  0  0  0
    8.9776   -4.7057   26.5317 H   0  0  0  0  0  0  0  0  0  0  0  0
  1  2  1  0  0  0  0
  1  3  2  0  0  0  0
  2  4  2  0  0  0  0
  3 12  1  0  0  0  0
  4 13  1  0  0  0  0
  5  7  2  0  0  0  0
  5 14  1  0  0  0  0
  6  8  1  0  0  0  0
  6 14  2  0  0  0  0
  7 15  1  0  0  0  0
  8 15  2  0  0  0  0
  9 11  1  0  0  0  0
  9 23  2  0  0  0  0
 10 11  2  0  0  0  0
 10 26  1  0  0  0  0
 11 20  1  0  0  0  0
 12 13  2  0  0  0  0
 12 24  1  0  0  0  0
 13 27  1  0  0  0  0
 14 28  1  0  0  0  0
 15 29  1  0  0  0  0
 16 21  1  0  0  0  0
 16 28  1  0  0  0  0
 16 30  2  0  0  0  0
 17 22  1  0  0  0  0
 17 29  1  0  0  0  0
 17 31  2  0  0  0  0
 18 21  1  0  0  0  0
 19 26  1  0  0  0  0
 20 29  1  0  0  0  0
 22 27  1  0  0  0  0
 23 26  1  0  0  0  0
 24 25  2  0  0  0  0
 25 27  1  0  0  0  0
  1 32  1  0  0  0  0
  2 33  1  0  0  0  0
  3 34  1  0  0  0  0
  4 35  1  0  0  0  0
  5 36  1  0  0  0  0
  6 37  1  0  0  0  0
  7 38  1  0  0  0  0
  8 39  1  0  0  0  0
  9 40  1  0  0  0  0
 10 41  1  0  0  0  0
 18 42  1  0  0  0  0
 18 43  1  0  0  0  0
 18 44  1  0  0  0  0
 19 45  1  0  0  0  0
 19 46  1  0  0  0  0
 19 47  1  0  0  0  0
 20 48  1  0  0  0  0
 20 49  1  0  0  0  0
 21 50  1  0  0  0  0
 21 51  1  0  0  0  0
 22 52  1  0  0  0  0
 22 53  1  0  0  0  0
 28 54  1  0  0  0  0
M  END
> <clash_score>
1.4986672183376766

> <docking_score>
-6.675075531005859

> <overlap_score>
0.9705243110656738

$$$$
BENZO_346_1
  -OEChem-08232013463D

 59 63  0     0  0  0  0  0  0999 V2000
    3.9160    2.0630   19.5520 C   0  0  0  0  0  0  0  0  0  0  0  0
    4.2750    1.7050   20.8490 C   0  0  0  0  0  0  0  0  0  0  0  0
   13.5399    0.4378   24.6515 C   0  0  0  0  0  0  0  0  0  0  0  0
   12.1478    0.4245   24.5664 C   0  0  0  0  0  0  0  0  0  0  0  0
    4.6890    1.6810   18.4640 C   0  0  0  0  0  0  0  0  0  0  0  0
    5.4210    0.9600   21.0930 C   0  0  0  0  0  0  0  0  0  0  0  0
    8.9960   -2.3380   25.5320 C   0  0  0  0  0  0  0  0  0  0  0  0
    9.6730   -3.4710   23.5300 C   0  0  0  0  0  0  0  0  0  0  0  0
    9.0720   -1.1280   24.8640 C   0  0  0  0  0  0  0  0  0  0  0  0
    9.7200   -2.2600   22.8630 C   0  0  0  0  0  0  0  0  0  0  0  0
   14.2762    1.3505   23.8959 C   0  0  0  0  0  0  0  0  0  0  0  0
   12.2280    2.2362   22.9700 C   0  0  0  0  0  0  0  0  0  0  0  0
   11.4918    1.3236   23.7257 C   0  0  0  0  0  0  0  0  0  0  0  0
    5.8300    0.9190   18.6970 C   0  0  0  0  0  0  0  0  0  0  0  0
    6.1790    0.5730   19.9990 C   0  0  0  0  0  0  0  0  0  0  0  0
    9.3070   -3.5340   24.8780 C   0  0  0  0  0  0  0  0  0  0  0  0
    9.3350   -1.0880   23.5010 C   0  0  0  0  0  0  0  0  0  0  0  0
   13.6202    2.2496   23.0552 C   0  0  0  0  0  0  0  0  0  0  0  0
    9.0420    0.3700   21.5280 C   0  0  0  0  0  0  0  0  0  0  0  0
    7.3635   -6.1361   27.1888 C   0  0  0  0  0  0  0  0  0  0  0  0
    8.1961   -4.9735   27.7341 C   0  0  0  0  0  0  0  0  0  0  0  0
    7.1942   -6.0394   25.6709 C   0  0  0  0  0  0  0  0  0  0  0  0
    9.5196   -4.8490   26.9797 C   0  0  0  0  0  0  0  0  0  0  0  0
    8.5442   -5.8838   24.9639 C   0  0  0  0  0  0  0  0  0  0  0  0
    9.9933    1.3078   23.6337 C   0  0  0  0  0  0  0  0  0  0  0  0
    8.1890   -0.7180   20.8700 C   0  0  0  0  0  0  0  0  0  0  0  0
    6.7580    0.3810   17.8350 N   0  0  0  0  0  0  0  0  0  0  0  0
    7.6390   -0.2680   18.5410 N   0  0  0  0  0  0  0  0  0  0  0  0
    7.3170   -0.1610   19.8550 N   0  0  0  0  0  0  0  0  0  0  0  0
    9.2562   -4.7384   25.5422 N   0  0  0  0  0  0  0  0  0  0  0  0
    9.4560    0.1560   22.8130 N   0  0  0  0  0  0  0  0  0  0  0  0
    9.2690    1.4140   20.9380 O   0  0  0  0  0  0  0  0  0  0  0  0
   14.5291    3.3745   22.1224 Cl  0  0  0  0  0  0  0  0  0  0  0  0
    3.0136    2.6524   19.3909 H   0  0  0  0  0  0  0  0  0  0  0  0
    3.6477    2.0141   21.6817 H   0  0  0  0  0  0  0  0  0  0  0  0
   14.0504   -0.2626   25.3062 H   0  0  0  0  0  0  0  0  0  0  0  0
   11.5822   -0.2901   25.1587 H   0  0  0  0  0  0  0  0  0  0  0  0
    4.4042    1.9739   17.4524 H   0  0  0  0  0  0  0  0  0  0  0  0
    5.7107    0.6909   22.1141 H   0  0  0  0  0  0  0  0  0  0  0  0
    8.6905   -2.3533   26.5810 H   0  0  0  0  0  0  0  0  0  0  0  0
    9.9266   -4.3896   22.9917 H   0  0  0  0  0  0  0  0  0  0  0  0
    8.9233   -0.1992   25.4231 H   0  0  0  0  0  0  0  0  0  0  0  0
   10.0650   -2.2330   21.8256 H   0  0  0  0  0  0  0  0  0  0  0  0
   15.3607    1.3493   23.9721 H   0  0  0  0  0  0  0  0  0  0  0  0
   11.7118    2.9356   22.3164 H   0  0  0  0  0  0  0  0  0  0  0  0
    7.8482   -7.0901   27.4469 H   0  0  0  0  0  0  0  0  0  0  0  0
    6.3760   -6.1438   27.6724 H   0  0  0  0  0  0  0  0  0  0  0  0
    7.6307   -4.0424   27.6403 H   0  0  0  0  0  0  0  0  0  0  0  0
    8.3915   -5.1310   28.7968 H   0  0  0  0  0  0  0  0  0  0  0  0
    6.6888   -6.9376   25.3010 H   0  0  0  0  0  0  0  0  0  0  0  0
    6.5515   -5.1859   25.4257 H   0  0  0  0  0  0  0  0  0  0  0  0
   10.0492   -3.9640   27.3414 H   0  0  0  0  0  0  0  0  0  0  0  0
   10.1431   -5.7254   27.1778 H   0  0  0  0  0  0  0  0  0  0  0  0
    9.1338   -6.7931   25.0868 H   0  0  0  0  0  0  0  0  0  0  0  0
    8.3656   -5.7264   23.8998 H   0  0  0  0  0  0  0  0  0  0  0  0
    9.5459    1.2392   24.6313 H   0  0  0  0  0  0  0  0  0  0  0  0
    9.6182    2.2271   23.1715 H   0  0  0  0  0  0  0  0  0  0  0  0
    8.8326   -1.4554   20.3912 H   0  0  0  0  0  0  0  0  0  0  0  0
    7.5604   -1.1971   21.6201 H   0  0  0  0  0  0  0  0  0  0  0  0
  1  2  1  0  0  0  0
  1  5  2  0  0  0  0
  2  6  2  0  0  0  0
  3  4  2  0  0  0  0
  3 11  1  0  0  0  0
  4 13  1  0  0  0  0
  5 14  1  0  0  0  0
  6 15  1  0  0  0  0
  7  9  2  0  0  0  0
  7 16  1  0  0  0  0
  8 10  1  0  0  0  0
  8 16  2  0  0  0  0
  9 17  1  0  0  0  0
 10 17  2  0  0  0  0
 11 18  2  0  0  0  0
 12 13  2  0  0  0  0
 12 18  1  0  0  0  0
 13 25  1  0  0  0  0
 14 15  2  0  0  0  0
 14 27  1  0  0  0  0
 15 29  1  0  0  0  0
 16 30  1  0  0  0  0
 17 31  1  0  0  0  0
 18 33  1  0  0  0  0
 19 26  1  0  0  0  0
 19 31  1  0  0  0  0
 19 32  2  0  0  0  0
 20 21  1  0  0  0  0
 20 22  1  0  0  0  0
 21 23  1  0  0  0  0
 22 24  1  0  0  0  0
 23 30  1  0  0  0  0
 24 30  1  0  0  0  0
 25 31  1  0  0  0  0
 26 29  1  0  0  0  0
 27 28  2  0  0  0  0
 28 29  1  0  0  0  0
  1 34  1  0  0  0  0
  2 35  1  0  0  0  0
  3 36  1  0  0  0  0
  4 37  1  0  0  0  0
  5 38  1  0  0  0  0
  6 39  1  0  0  0  0
  7 40  1  0  0  0  0
  8 41  1  0  0  0  0
  9 42  1  0  0  0  0
 10 43  1  0  0  0  0
 11 44  1  0  0  0  0
 12 45  1  0  0  0  0
 20 46  1  0  0  0  0
 20 47  1  0  0  0  0
 21 48  1  0  0  0  0
 21 49  1  0  0  0  0
 22 50  1  0  0  0  0
 22 51  1  0  0  0  0
 23 52  1  0  0  0  0
 23 53  1  0  0  0  0
 24 54  1  0  0  0  0
 24 55  1  0  0  0  0
 25 56  1  0  0  0  0
 25 57  1  0  0  0  0
 26 58  1  0  0  0  0
 26 59  1  0  0  0  0
M  END
> <clash_score>
0

> <docking_score>
-8.027942657470703

> <overlap_score>
1.003443717956543

$$$$
BENZO_347_1
  -OEChem-08232013463D

 59 63  0     0  0  0  0  0  0999 V2000
    3.9160    2.0630   19.5520 C   0  0  0  0  0  0  0  0  0  0  0  0
    4.2750    1.7050   20.8490 C   0  0  0  0  0  0  0  0  0  0  0  0
    4.6890    1.6810   18.4640 C   0  0  0  0  0  0  0  0  0  0  0  0
    5.4210    0.9600   21.0930 C   0  0  0  0  0  0  0  0  0  0  0  0
    8.9960   -2.3380   25.5320 C   0  0  0  0  0  0  0  0  0  0  0  0
    9.6730   -3.4710   23.5300 C   0  0  0  0  0  0  0  0  0  0  0  0
    9.0720   -1.1280   24.8640 C   0  0  0  0  0  0  0  0  0  0  0  0
    9.7200   -2.2600   22.8630 C   0  0  0  0  0  0  0  0  0  0  0  0
   12.2867    1.2627   24.8859 C   0  0  0  0  0  0  0  0  0  0  0  0
   12.3954    1.3982   22.6939 C   0  0  0  0  0  0  0  0  0  0  0  0
   11.4918    1.3236   23.7257 C   0  0  0  0  0  0  0  0  0  0  0  0
    5.8300    0.9190   18.6970 C   0  0  0  0  0  0  0  0  0  0  0  0
    6.1790    0.5730   19.9990 C   0  0  0  0  0  0  0  0  0  0  0  0
    9.3070   -3.5340   24.8780 C   0  0  0  0  0  0  0  0  0  0  0  0
    9.3350   -1.0880   23.5010 C   0  0  0  0  0  0  0  0  0  0  0  0
    9.0420    0.3700   21.5280 C   0  0  0  0  0  0  0  0  0  0  0  0
    7.3635   -6.1361   27.1888 C   0  0  0  0  0  0  0  0  0  0  0  0
    8.1961   -4.9735   27.7341 C   0  0  0  0  0  0  0  0  0  0  0  0
    7.1942   -6.0394   25.6709 C   0  0  0  0  0  0  0  0  0  0  0  0
    9.5196   -4.8490   26.9797 C   0  0  0  0  0  0  0  0  0  0  0  0
    8.5442   -5.8838   24.9639 C   0  0  0  0  0  0  0  0  0  0  0  0
   14.8988    1.4355   22.5936 C   0  0  0  0  0  0  0  0  0  0  0  0
    9.9933    1.3078   23.6337 C   0  0  0  0  0  0  0  0  0  0  0  0
    8.1890   -0.7180   20.8700 C   0  0  0  0  0  0  0  0  0  0  0  0
   13.5946    1.2956   24.6172 N   0  0  0  0  0  0  0  0  0  0  0  0
    6.7580    0.3810   17.8350 N   0  0  0  0  0  0  0  0  0  0  0  0
    7.6390   -0.2680   18.5410 N   0  0  0  0  0  0  0  0  0  0  0  0
   13.6285    1.3779   23.2763 N   0  0  0  0  0  0  0  0  0  0  0  0
    7.3170   -0.1610   19.8550 N   0  0  0  0  0  0  0  0  0  0  0  0
    9.2562   -4.7384   25.5422 N   0  0  0  0  0  0  0  0  0  0  0  0
    9.4560    0.1560   22.8130 N   0  0  0  0  0  0  0  0  0  0  0  0
    9.2690    1.4140   20.9380 O   0  0  0  0  0  0  0  0  0  0  0  0
    3.0136    2.6524   19.3909 H   0  0  0  0  0  0  0  0  0  0  0  0
    3.6477    2.0141   21.6817 H   0  0  0  0  0  0  0  0  0  0  0  0
    4.4042    1.9739   17.4524 H   0  0  0  0  0  0  0  0  0  0  0  0
    5.7107    0.6909   22.1141 H   0  0  0  0  0  0  0  0  0  0  0  0
    8.6905   -2.3533   26.5810 H   0  0  0  0  0  0  0  0  0  0  0  0
    9.9266   -4.3896   22.9917 H   0  0  0  0  0  0  0  0  0  0  0  0
    8.9233   -0.1992   25.4231 H   0  0  0  0  0  0  0  0  0  0  0  0
   10.0650   -2.2330   21.8256 H   0  0  0  0  0  0  0  0  0  0  0  0
   11.9697    1.1948   25.9170 H   0  0  0  0  0  0  0  0  0  0  0  0
   12.2691    1.4611   21.6216 H   0  0  0  0  0  0  0  0  0  0  0  0
    7.8482   -7.0901   27.4469 H   0  0  0  0  0  0  0  0  0  0  0  0
    6.3760   -6.1438   27.6724 H   0  0  0  0  0  0  0  0  0  0  0  0
    7.6307   -4.0424   27.6403 H   0  0  0  0  0  0  0  0  0  0  0  0
    8.3915   -5.1310   28.7968 H   0  0  0  0  0  0  0  0  0  0  0  0
    6.6888   -6.9376   25.3010 H   0  0  0  0  0  0  0  0  0  0  0  0
    6.5515   -5.1859   25.4257 H   0  0  0  0  0  0  0  0  0  0  0  0
   10.0492   -3.9640   27.3414 H   0  0  0  0  0  0  0  0  0  0  0  0
   10.1431   -5.7254   27.1778 H   0  0  0  0  0  0  0  0  0  0  0  0
    9.1338   -6.7931   25.0868 H   0  0  0  0  0  0  0  0  0  0  0  0
    8.3656   -5.7264   23.8998 H   0  0  0  0  0  0  0  0  0  0  0  0
   15.1828    2.4868   22.4977 H   0  0  0  0  0  0  0  0  0  0  0  0
   15.6483    0.8884   23.1722 H   0  0  0  0  0  0  0  0  0  0  0  0
   14.8004    0.9734   21.6074 H   0  0  0  0  0  0  0  0  0  0  0  0
    9.5459    1.2392   24.6313 H   0  0  0  0  0  0  0  0  0  0  0  0
    9.6182    2.2271   23.1715 H   0  0  0  0  0  0  0  0  0  0  0  0
    8.8326   -1.4554   20.3912 H   0  0  0  0  0  0  0  0  0  0  0  0
    7.5604   -1.1971   21.6201 H   0  0  0  0  0  0  0  0  0  0  0  0
  1  2  1  0  0  0  0
  1  3  2  0  0  0  0
  2  4  2  0  0  0  0
  3 12  1  0  0  0  0
  4 13  1  0  0  0  0
  5  7  2  0  0  0  0
  5 14  1  0  0  0  0
  6  8  1  0  0  0  0
  6 14  2  0  0  0  0
  7 15  1  0  0  0  0
  8 15  2  0  0  0  0
  9 11  1  0  0  0  0
  9 25  2  0  0  0  0
 10 11  2  0  0  0  0
 10 28  1  0  0  0  0
 11 23  1  0  0  0  0
 12 13  2  0  0  0  0
 12 26  1  0  0  0  0
 13 29  1  0  0  0  0
 14 30  1  0  0  0  0
 15 31  1  0  0  0  0
 16 24  1  0  0  0  0
 16 31  1  0  0  0  0
 16 32  2  0  0  0  0
 17 18  1  0  0  0  0
 17 19  1  0  0  0  0
 18 20  1  0  0  0  0
 19 21  1  0  0  0  0
 20 30  1  0  0  0  0
 21 30  1  0  0  0  0
 22 28  1  0  0  0  0
 23 31  1  0  0  0  0
 24 29  1  0  0  0  0
 25 28  1  0  0  0  0
 26 27  2  0  0  0  0
 27 29  1  0  0  0  0
  1 33  1  0  0  0  0
  2 34  1  0  0  0  0
  3 35  1  0  0  0  0
  4 36  1  0  0  0  0
  5 37  1  0  0  0  0
  6 38  1  0  0  0  0
  7 39  1  0  0  0  0
  8 40  1  0  0  0  0
  9 41  1  0  0  0  0
 10 42  1  0  0  0  0
 17 43  1  0  0  0  0
 17 44  1  0  0  0  0
 18 45  1  0  0  0  0
 18 46  1  0  0  0  0
 19 47  1  0  0  0  0
 19 48  1  0  0  0  0
 20 49  1  0  0  0  0
 20 50  1  0  0  0  0
 21 51  1  0  0  0  0
 21 52  1  0  0  0  0
 22 53  1  0  0  0  0
 22 54  1  0  0  0  0
 22 55  1  0  0  0  0
 23 56  1  0  0  0  0
 23 57  1  0  0  0  0
 24 58  1  0  0  0  0
 24 59  1  0  0  0  0
M  END
> <clash_score>
0

> <docking_score>
-8.927203178405762

> <overlap_score>
0.985863208770752

$$$$
BENZO_349_1
  -OEChem-08232013463D

 47 50  0     0  0  0  0  0  0999 V2000
   14.2752    1.1804   23.9044 C   0  0  0  0  0  0  0  0  0  0  0  0
   13.5041    0.5023   24.8484 C   0  0  0  0  0  0  0  0  0  0  0  0
   13.6543    1.8926   22.8783 C   0  0  0  0  0  0  0  0  0  0  0  0
    3.9160    2.0630   19.5520 C   0  0  0  0  0  0  0  0  0  0  0  0
    4.2750    1.7050   20.8490 C   0  0  0  0  0  0  0  0  0  0  0  0
   12.1121    0.5362   24.7663 C   0  0  0  0  0  0  0  0  0  0  0  0
   12.2623    1.9266   22.7961 C   0  0  0  0  0  0  0  0  0  0  0  0
    8.9960   -2.3380   25.5320 C   0  0  0  0  0  0  0  0  0  0  0  0
    9.6730   -3.4710   23.5300 C   0  0  0  0  0  0  0  0  0  0  0  0
    4.6890    1.6810   18.4640 C   0  0  0  0  0  0  0  0  0  0  0  0
    5.4210    0.9600   21.0930 C   0  0  0  0  0  0  0  0  0  0  0  0
    9.0720   -1.1280   24.8640 C   0  0  0  0  0  0  0  0  0  0  0  0
    9.7200   -2.2600   22.8630 C   0  0  0  0  0  0  0  0  0  0  0  0
    9.3070   -3.5340   24.8780 C   0  0  0  0  0  0  0  0  0  0  0  0
   11.4911    1.2484   23.7401 C   0  0  0  0  0  0  0  0  0  0  0  0
    5.8300    0.9190   18.6970 C   0  0  0  0  0  0  0  0  0  0  0  0
    6.1790    0.5730   19.9990 C   0  0  0  0  0  0  0  0  0  0  0  0
    9.3350   -1.0880   23.5010 C   0  0  0  0  0  0  0  0  0  0  0  0
    9.0420    0.3700   21.5280 C   0  0  0  0  0  0  0  0  0  0  0  0
    9.2505   -4.8264   25.5904 C   0  0  0  0  0  0  0  0  0  0  0  0
    9.9929    1.2851   23.6509 C   0  0  0  0  0  0  0  0  0  0  0  0
    8.1890   -0.7180   20.8700 C   0  0  0  0  0  0  0  0  0  0  0  0
    6.7580    0.3810   17.8350 N   0  0  0  0  0  0  0  0  0  0  0  0
    7.6390   -0.2680   18.5410 N   0  0  0  0  0  0  0  0  0  0  0  0
    7.3170   -0.1610   19.8550 N   0  0  0  0  0  0  0  0  0  0  0  0
    9.4560    0.1560   22.8130 N   0  0  0  0  0  0  0  0  0  0  0  0
    9.2690    1.4140   20.9380 O   0  0  0  0  0  0  0  0  0  0  0  0
   15.3591    1.1550   23.9693 H   0  0  0  0  0  0  0  0  0  0  0  0
   13.9874   -0.0514   25.6481 H   0  0  0  0  0  0  0  0  0  0  0  0
   14.2543    2.4216   22.1438 H   0  0  0  0  0  0  0  0  0  0  0  0
    3.0136    2.6524   19.3909 H   0  0  0  0  0  0  0  0  0  0  0  0
    3.6477    2.0141   21.6817 H   0  0  0  0  0  0  0  0  0  0  0  0
   11.5194    0.0047   25.5061 H   0  0  0  0  0  0  0  0  0  0  0  0
   11.7872    2.4839   21.9931 H   0  0  0  0  0  0  0  0  0  0  0  0
    8.6919   -2.3557   26.5813 H   0  0  0  0  0  0  0  0  0  0  0  0
    9.9267   -4.3907   22.9939 H   0  0  0  0  0  0  0  0  0  0  0  0
    4.4041    1.9739   17.4524 H   0  0  0  0  0  0  0  0  0  0  0  0
    5.7107    0.6909   22.1141 H   0  0  0  0  0  0  0  0  0  0  0  0
    8.9217   -0.1995   25.4231 H   0  0  0  0  0  0  0  0  0  0  0  0
   10.0653   -2.2339   21.8256 H   0  0  0  0  0  0  0  0  0  0  0  0
    8.2503   -5.2678   25.5020 H   0  0  0  0  0  0  0  0  0  0  0  0
    9.9817   -5.5374   25.1845 H   0  0  0  0  0  0  0  0  0  0  0  0
    9.4841   -4.7043   26.6562 H   0  0  0  0  0  0  0  0  0  0  0  0
    9.5448    1.2080   24.6476 H   0  0  0  0  0  0  0  0  0  0  0  0
    9.6483    2.2271   23.2115 H   0  0  0  0  0  0  0  0  0  0  0  0
    8.8255   -1.4531   20.3835 H   0  0  0  0  0  0  0  0  0  0  0  0
    7.5533   -1.1948   21.6123 H   0  0  0  0  0  0  0  0  0  0  0  0
  1  2  1  0  0  0  0
  1  3  2  0  0  0  0
  2  6  2  0  0  0  0
  3  7  1  0  0  0  0
  4  5  1  0  0  0  0
  4 10  2  0  0  0  0
  5 11  2  0  0  0  0
  6 15  1  0  0  0  0
  7 15  2  0  0  0  0
  8 12  2  0  0  0  0
  8 14  1  0  0  0  0
  9 13  1  0  0  0  0
  9 14  2  0  0  0  0
 10 16  1  0  0  0  0
 11 17  1  0  0  0  0
 12 18  1  0  0  0  0
 13 18  2  0  0  0  0
 14 20  1  0  0  0  0
 15 21  1  0  0  0  0
 16 17  2  0  0  0  0
 16 23  1  0  0  0  0
 17 25  1  0  0  0  0
 18 26  1  0  0  0  0
 19 22  1  0  0  0  0
 19 26  1  0  0  0  0
 19 27  2  0  0  0  0
 21 26  1  0  0  0  0
 22 25  1  0  0  0  0
 23 24  2  0  0  0  0
 24 25  1  0  0  0  0
  1 28  1  0  0  0  0
  2 29  1  0  0  0  0
  3 30  1  0  0  0  0
  4 31  1  0  0  0  0
  5 32  1  0  0  0  0
  6 33  1  0  0  0  0
  7 34  1  0  0  0  0
  8 35  1  0  0  0  0
  9 36  1  0  0  0  0
 10 37  1  0  0  0  0
 11 38  1  0  0  0  0
 12 39  1  0  0  0  0
 13 40  1  0  0  0  0
 20 41  1  0  0  0  0
 20 42  1  0  0  0  0
 20 43  1  0  0  0  0
 21 44  1  0  0  0  0
 21 45  1  0  0  0  0
 22 46  1  0  0  0  0
 22 47  1  0  0  0  0
M  END
> <clash_score>
0

> <docking_score>
-9.452491760253906

> <overlap_score>
0.9370893239974976

$$$$
BENZO_348_1
  -OEChem-08232013463D

 44 47  0     0  0  0  0  0  0999 V2000
    3.9160    2.0630   19.5520 C   0  0  0  0  0  0  0  0  0  0  0  0
    4.2750    1.7050   20.8490 C   0  0  0  0  0  0  0  0  0  0  0  0
    8.9960   -2.3380   25.5320 C   0  0  0  0  0  0  0  0  0  0  0  0
    9.6730   -3.4710   23.5300 C   0  0  0  0  0  0  0  0  0  0  0  0
    4.6890    1.6810   18.4640 C   0  0  0  0  0  0  0  0  0  0  0  0
    5.4210    0.9600   21.0930 C   0  0  0  0  0  0  0  0  0  0  0  0
    9.0720   -1.1280   24.8640 C   0  0  0  0  0  0  0  0  0  0  0  0
    9.7200   -2.2600   22.8630 C   0  0  0  0  0  0  0  0  0  0  0  0
   12.3069    2.4071   23.8887 C   0  0  0  0  0  0  0  0  0  0  0  0
   13.6470    2.0928   23.9439 C   0  0  0  0  0  0  0  0  0  0  0  0
   12.2389    0.0925   23.6871 C   0  0  0  0  0  0  0  0  0  0  0  0
    9.3070   -3.5340   24.8780 C   0  0  0  0  0  0  0  0  0  0  0  0
   11.4911    1.2484   23.7401 C   0  0  0  0  0  0  0  0  0  0  0  0
    5.8300    0.9190   18.6970 C   0  0  0  0  0  0  0  0  0  0  0  0
    6.1790    0.5730   19.9990 C   0  0  0  0  0  0  0  0  0  0  0  0
    9.3350   -1.0880   23.5010 C   0  0  0  0  0  0  0  0  0  0  0  0
    9.0420    0.3700   21.5280 C   0  0  0  0  0  0  0  0  0  0  0  0
    9.2505   -4.8264   25.5904 C   0  0  0  0  0  0  0  0  0  0  0  0
    9.9929    1.2851   23.6509 C   0  0  0  0  0  0  0  0  0  0  0  0
    8.1890   -0.7180   20.8700 C   0  0  0  0  0  0  0  0  0  0  0  0
    6.7580    0.3810   17.8350 N   0  0  0  0  0  0  0  0  0  0  0  0
    7.6390   -0.2680   18.5410 N   0  0  0  0  0  0  0  0  0  0  0  0
    7.3170   -0.1610   19.8550 N   0  0  0  0  0  0  0  0  0  0  0  0
    9.4560    0.1560   22.8130 N   0  0  0  0  0  0  0  0  0  0  0  0
    9.2690    1.4140   20.9380 O   0  0  0  0  0  0  0  0  0  0  0  0
   13.9173    0.4067   23.8165 S   0  0  0  0  0  0  0  0  0  0  0  0
    3.0136    2.6524   19.3909 H   0  0  0  0  0  0  0  0  0  0  0  0
    3.6477    2.0141   21.6817 H   0  0  0  0  0  0  0  0  0  0  0  0
    8.6919   -2.3557   26.5813 H   0  0  0  0  0  0  0  0  0  0  0  0
    9.9267   -4.3907   22.9939 H   0  0  0  0  0  0  0  0  0  0  0  0
    4.4041    1.9739   17.4524 H   0  0  0  0  0  0  0  0  0  0  0  0
    5.7107    0.6909   22.1141 H   0  0  0  0  0  0  0  0  0  0  0  0
    8.9217   -0.1995   25.4231 H   0  0  0  0  0  0  0  0  0  0  0  0
   10.0653   -2.2339   21.8256 H   0  0  0  0  0  0  0  0  0  0  0  0
   11.9339    3.4215   23.9520 H   0  0  0  0  0  0  0  0  0  0  0  0
   14.4803    2.7726   24.0521 H   0  0  0  0  0  0  0  0  0  0  0  0
   11.8841   -0.9229   23.5774 H   0  0  0  0  0  0  0  0  0  0  0  0
    8.2503   -5.2678   25.5020 H   0  0  0  0  0  0  0  0  0  0  0  0
    9.9817   -5.5374   25.1845 H   0  0  0  0  0  0  0  0  0  0  0  0
    9.4841   -4.7043   26.6562 H   0  0  0  0  0  0  0  0  0  0  0  0
    9.5448    1.2080   24.6476 H   0  0  0  0  0  0  0  0  0  0  0  0
    9.6483    2.2271   23.2115 H   0  0  0  0  0  0  0  0  0  0  0  0
    8.8255   -1.4531   20.3835 H   0  0  0  0  0  0  0  0  0  0  0  0
    7.5533   -1.1948   21.6123 H   0  0  0  0  0  0  0  0  0  0  0  0
  1  2  1  0  0  0  0
  1  5  2  0  0  0  0
  2  6  2  0  0  0  0
  3  7  2  0  0  0  0
  3 12  1  0  0  0  0
  4  8  1  0  0  0  0
  4 12  2  0  0  0  0
  5 14  1  0  0  0  0
  6 15  1  0  0  0  0
  7 16  1  0  0  0  0
  8 16  2  0  0  0  0
  9 10  2  0  0  0  0
  9 13  1  0  0  0  0
 10 26  1  0  0  0  0
 11 13  2  0  0  0  0
 11 26  1  0  0  0  0
 12 18  1  0  0  0  0
 13 19  1  0  0  0  0
 14 15  2  0  0  0  0
 14 21  1  0  0  0  0
 15 23  1  0  0  0  0
 16 24  1  0  0  0  0
 17 20  1  0  0  0  0
 17 24  1  0  0  0  0
 17 25  2  0  0  0  0
 19 24  1  0  0  0  0
 20 23  1  0  0  0  0
 21 22  2  0  0  0  0
 22 23  1  0  0  0  0
  1 27  1  0  0  0  0
  2 28  1  0  0  0  0
  3 29  1  0  0  0  0
  4 30  1  0  0  0  0
  5 31  1  0  0  0  0
  6 32  1  0  0  0  0
  7 33  1  0  0  0  0
  8 34  1  0  0  0  0
  9 35  1  0  0  0  0
 10 36  1  0  0  0  0
 11 37  1  0  0  0  0
 18 38  1  0  0  0  0
 18 39  1  0  0  0  0
 18 40  1  0  0  0  0
 19 41  1  0  0  0  0
 19 42  1  0  0  0  0
 20 43  1  0  0  0  0
 20 44  1  0  0  0  0
M  END
> <clash_score>
0

> <docking_score>
-8.375825881958008

> <overlap_score>
0.9219330549240112

$$$$
BENZO_350_1
  -OEChem-08232013463D

 47 50  0     0  0  0  0  0  0999 V2000
    3.9160    2.0630   19.5520 C   0  0  0  0  0  0  0  0  0  0  0  0
    4.2750    1.7050   20.8490 C   0  0  0  0  0  0  0  0  0  0  0  0
   13.6473    2.1218   23.0883 C   0  0  0  0  0  0  0  0  0  0  0  0
   12.2554    2.1546   23.0050 C   0  0  0  0  0  0  0  0  0  0  0  0
    8.9960   -2.3380   25.5320 C   0  0  0  0  0  0  0  0  0  0  0  0
    9.6730   -3.4710   23.5300 C   0  0  0  0  0  0  0  0  0  0  0  0
    4.6890    1.6810   18.4640 C   0  0  0  0  0  0  0  0  0  0  0  0
    5.4210    0.9600   21.0930 C   0  0  0  0  0  0  0  0  0  0  0  0
    9.0720   -1.1280   24.8640 C   0  0  0  0  0  0  0  0  0  0  0  0
    9.7200   -2.2600   22.8630 C   0  0  0  0  0  0  0  0  0  0  0  0
   14.2751    1.1826   23.9065 C   0  0  0  0  0  0  0  0  0  0  0  0
   12.1189    0.3092   24.5584 C   0  0  0  0  0  0  0  0  0  0  0  0
    9.3070   -3.5340   24.8780 C   0  0  0  0  0  0  0  0  0  0  0  0
   11.4911    1.2484   23.7401 C   0  0  0  0  0  0  0  0  0  0  0  0
    5.8300    0.9190   18.6970 C   0  0  0  0  0  0  0  0  0  0  0  0
    6.1790    0.5730   19.9990 C   0  0  0  0  0  0  0  0  0  0  0  0
    9.3350   -1.0880   23.5010 C   0  0  0  0  0  0  0  0  0  0  0  0
   13.5109    0.2764   24.6416 C   0  0  0  0  0  0  0  0  0  0  0  0
    9.0420    0.3700   21.5280 C   0  0  0  0  0  0  0  0  0  0  0  0
    9.2505   -4.8264   25.5904 C   0  0  0  0  0  0  0  0  0  0  0  0
    9.9929    1.2851   23.6509 C   0  0  0  0  0  0  0  0  0  0  0  0
    8.1890   -0.7180   20.8700 C   0  0  0  0  0  0  0  0  0  0  0  0
    6.7580    0.3810   17.8350 N   0  0  0  0  0  0  0  0  0  0  0  0
    7.6390   -0.2680   18.5410 N   0  0  0  0  0  0  0  0  0  0  0  0
    7.3170   -0.1610   19.8550 N   0  0  0  0  0  0  0  0  0  0  0  0
    9.4560    0.1560   22.8130 N   0  0  0  0  0  0  0  0  0  0  0  0
    9.2690    1.4140   20.9380 O   0  0  0  0  0  0  0  0  0  0  0  0
   14.2860   -0.8814   25.6519 Cl  0  0  0  0  0  0  0  0  0  0  0  0
    3.0136    2.6524   19.3909 H   0  0  0  0  0  0  0  0  0  0  0  0
    3.6477    2.0141   21.6817 H   0  0  0  0  0  0  0  0  0  0  0  0
   14.2420    2.8277   22.5158 H   0  0  0  0  0  0  0  0  0  0  0  0
   11.7747    2.8899   22.3650 H   0  0  0  0  0  0  0  0  0  0  0  0
    8.6919   -2.3557   26.5813 H   0  0  0  0  0  0  0  0  0  0  0  0
    9.9267   -4.3907   22.9939 H   0  0  0  0  0  0  0  0  0  0  0  0
    4.4041    1.9739   17.4524 H   0  0  0  0  0  0  0  0  0  0  0  0
    5.7107    0.6909   22.1141 H   0  0  0  0  0  0  0  0  0  0  0  0
    8.9217   -0.1995   25.4231 H   0  0  0  0  0  0  0  0  0  0  0  0
   10.0653   -2.2339   21.8256 H   0  0  0  0  0  0  0  0  0  0  0  0
   15.3609    1.1688   23.9618 H   0  0  0  0  0  0  0  0  0  0  0  0
   11.5186   -0.3955   25.1292 H   0  0  0  0  0  0  0  0  0  0  0  0
    8.2503   -5.2678   25.5020 H   0  0  0  0  0  0  0  0  0  0  0  0
    9.9817   -5.5374   25.1845 H   0  0  0  0  0  0  0  0  0  0  0  0
    9.4841   -4.7043   26.6562 H   0  0  0  0  0  0  0  0  0  0  0  0
    9.5448    1.2080   24.6476 H   0  0  0  0  0  0  0  0  0  0  0  0
    9.6483    2.2271   23.2115 H   0  0  0  0  0  0  0  0  0  0  0  0
    8.8255   -1.4531   20.3835 H   0  0  0  0  0  0  0  0  0  0  0  0
    7.5533   -1.1948   21.6123 H   0  0  0  0  0  0  0  0  0  0  0  0
  1  2  1  0  0  0  0
  1  7  2  0  0  0  0
  2  8  2  0  0  0  0
  3  4  2  0  0  0  0
  3 11  1  0  0  0  0
  4 14  1  0  0  0  0
  5  9  2  0  0  0  0
  5 13  1  0  0  0  0
  6 10  1  0  0  0  0
  6 13  2  0  0  0  0
  7 15  1  0  0  0  0
  8 16  1  0  0  0  0
  9 17  1  0  0  0  0
 10 17  2  0  0  0  0
 11 18  2  0  0  0  0
 12 14  2  0  0  0  0
 12 18  1  0  0  0  0
 13 20  1  0  0  0  0
 14 21  1  0  0  0  0
 15 16  2  0  0  0  0
 15 23  1  0  0  0  0
 16 25  1  0  0  0  0
 17 26  1  0  0  0  0
 18 28  1  0  0  0  0
 19 22  1  0  0  0  0
 19 26  1  0  0  0  0
 19 27  2  0  0  0  0
 21 26  1  0  0  0  0
 22 25  1  0  0  0  0
 23 24  2  0  0  0  0
 24 25  1  0  0  0  0
  1 29  1  0  0  0  0
  2 30  1  0  0  0  0
  3 31  1  0  0  0  0
  4 32  1  0  0  0  0
  5 33  1  0  0  0  0
  6 34  1  0  0  0  0
  7 35  1  0  0  0  0
  8 36  1  0  0  0  0
  9 37  1  0  0  0  0
 10 38  1  0  0  0  0
 11 39  1  0  0  0  0
 12 40  1  0  0  0  0
 20 41  1  0  0  0  0
 20 42  1  0  0  0  0
 20 43  1  0  0  0  0
 21 44  1  0  0  0  0
 21 45  1  0  0  0  0
 22 46  1  0  0  0  0
 22 47  1  0  0  0  0
M  END
> <clash_score>
0.673869244874083

> <docking_score>
-8.254863739013672

> <overlap_score>
0.9405324459075928

$$$$
BENZO_351_1
  -OEChem-08232013463D

 47 50  0     0  0  0  0  0  0999 V2000
    3.9160    2.0630   19.5520 C   0  0  0  0  0  0  0  0  0  0  0  0
    4.2750    1.7050   20.8490 C   0  0  0  0  0  0  0  0  0  0  0  0
    8.9960   -2.3380   25.5320 C   0  0  0  0  0  0  0  0  0  0  0  0
    9.6730   -3.4710   23.5300 C   0  0  0  0  0  0  0  0  0  0  0  0
    4.6890    1.6810   18.4640 C   0  0  0  0  0  0  0  0  0  0  0  0
    5.4210    0.9600   21.0930 C   0  0  0  0  0  0  0  0  0  0  0  0
    9.0720   -1.1280   24.8640 C   0  0  0  0  0  0  0  0  0  0  0  0
    9.7200   -2.2600   22.8630 C   0  0  0  0  0  0  0  0  0  0  0  0
   12.4165    2.0766   23.0771 C   0  0  0  0  0  0  0  0  0  0  0  0
   12.2668    0.3989   24.4906 C   0  0  0  0  0  0  0  0  0  0  0  0
    9.3070   -3.5340   24.8780 C   0  0  0  0  0  0  0  0  0  0  0  0
   11.4911    1.2484   23.7401 C   0  0  0  0  0  0  0  0  0  0  0  0
    5.8300    0.9190   18.6970 C   0  0  0  0  0  0  0  0  0  0  0  0
    6.1790    0.5730   19.9990 C   0  0  0  0  0  0  0  0  0  0  0  0
    9.3350   -1.0880   23.5010 C   0  0  0  0  0  0  0  0  0  0  0  0
    9.0420    0.3700   21.5280 C   0  0  0  0  0  0  0  0  0  0  0  0
    9.2505   -4.8264   25.5904 C   0  0  0  0  0  0  0  0  0  0  0  0
   14.7399    0.1471   24.8055 C   0  0  0  0  0  0  0  0  0  0  0  0
    9.9929    1.2851   23.6509 C   0  0  0  0  0  0  0  0  0  0  0  0
    8.1890   -0.7180   20.8700 C   0  0  0  0  0  0  0  0  0  0  0  0
   13.6832    1.7802   23.3799 N   0  0  0  0  0  0  0  0  0  0  0  0
    6.7580    0.3810   17.8350 N   0  0  0  0  0  0  0  0  0  0  0  0
    7.6390   -0.2680   18.5410 N   0  0  0  0  0  0  0  0  0  0  0  0
   13.5592    0.7562   24.2415 N   0  0  0  0  0  0  0  0  0  0  0  0
    7.3170   -0.1610   19.8550 N   0  0  0  0  0  0  0  0  0  0  0  0
    9.4560    0.1560   22.8130 N   0  0  0  0  0  0  0  0  0  0  0  0
    9.2690    1.4140   20.9380 O   0  0  0  0  0  0  0  0  0  0  0  0
    3.0136    2.6524   19.3909 H   0  0  0  0  0  0  0  0  0  0  0  0
    3.6477    2.0141   21.6817 H   0  0  0  0  0  0  0  0  0  0  0  0
    8.6919   -2.3557   26.5813 H   0  0  0  0  0  0  0  0  0  0  0  0
    9.9267   -4.3907   22.9939 H   0  0  0  0  0  0  0  0  0  0  0  0
    4.4041    1.9739   17.4524 H   0  0  0  0  0  0  0  0  0  0  0  0
    5.7107    0.6909   22.1141 H   0  0  0  0  0  0  0  0  0  0  0  0
    8.9217   -0.1995   25.4231 H   0  0  0  0  0  0  0  0  0  0  0  0
   10.0653   -2.2339   21.8256 H   0  0  0  0  0  0  0  0  0  0  0  0
   12.2231    2.8850   22.3862 H   0  0  0  0  0  0  0  0  0  0  0  0
   12.0153   -0.4085   25.1650 H   0  0  0  0  0  0  0  0  0  0  0  0
    8.2503   -5.2678   25.5020 H   0  0  0  0  0  0  0  0  0  0  0  0
    9.9817   -5.5374   25.1845 H   0  0  0  0  0  0  0  0  0  0  0  0
    9.4841   -4.7043   26.6562 H   0  0  0  0  0  0  0  0  0  0  0  0
   15.0484   -0.6665   24.1438 H   0  0  0  0  0  0  0  0  0  0  0  0
   15.5328    0.8959   24.8861 H   0  0  0  0  0  0  0  0  0  0  0  0
   14.5072   -0.2369   25.8026 H   0  0  0  0  0  0  0  0  0  0  0  0
    9.5448    1.2080   24.6476 H   0  0  0  0  0  0  0  0  0  0  0  0
    9.6483    2.2271   23.2115 H   0  0  0  0  0  0  0  0  0  0  0  0
    8.8255   -1.4531   20.3835 H   0  0  0  0  0  0  0  0  0  0  0  0
    7.5533   -1.1948   21.6123 H   0  0  0  0  0  0  0  0  0  0  0  0
  1  2  1  0  0  0  0
  1  5  2  0  0  0  0
  2  6  2  0  0  0  0
  3  7  2  0  0  0  0
  3 11  1  0  0  0  0
  4  8  1  0  0  0  0
  4 11  2  0  0  0  0
  5 13  1  0  0  0  0
  6 14  1  0  0  0  0
  7 15  1  0  0  0  0
  8 15  2  0  0  0  0
  9 12  1  0  0  0  0
  9 21  2  0  0  0  0
 10 12  2  0  0  0  0
 10 24  1  0  0  0  0
 11 17  1  0  0  0  0
 12 19  1  0  0  0  0
 13 14  2  0  0  0  0
 13 22  1  0  0  0  0
 14 25  1  0  0  0  0
 15 26  1  0  0  0  0
 16 20  1  0  0  0  0
 16 26  1  0  0  0  0
 16 27  2  0  0  0  0
 18 24  1  0  0  0  0
 19 26  1  0  0  0  0
 20 25  1  0  0  0  0
 21 24  1  0  0  0  0
 22 23  2  0  0  0  0
 23 25  1  0  0  0  0
  1 28  1  0  0  0  0
  2 29  1  0  0  0  0
  3 30  1  0  0  0  0
  4 31  1  0  0  0  0
  5 32  1  0  0  0  0
  6 33  1  0  0  0  0
  7 34  1  0  0  0  0
  8 35  1  0  0  0  0
  9 36  1  0  0  0  0
 10 37  1  0  0  0  0
 17 38  1  0  0  0  0
 17 39  1  0  0  0  0
 17 40  1  0  0  0  0
 18 41  1  0  0  0  0
 18 42  1  0  0  0  0
 18 43  1  0  0  0  0
 19 44  1  0  0  0  0
 19 45  1  0  0  0  0
 20 46  1  0  0  0  0
 20 47  1  0  0  0  0
M  END
> <clash_score>
0

> <docking_score>
-8.949317932128906

> <overlap_score>
0.9359611868858337

$$$$
BENZO_353_1
  -OEChem-08232013463D

 48 51  0     0  0  0  0  0  0999 V2000
   14.2752    1.1804   23.9044 C   0  0  0  0  0  0  0  0  0  0  0  0
   13.5041    0.5023   24.8484 C   0  0  0  0  0  0  0  0  0  0  0  0
   13.6543    1.8926   22.8783 C   0  0  0  0  0  0  0  0  0  0  0  0
    3.9160    2.0630   19.5520 C   0  0  0  0  0  0  0  0  0  0  0  0
    4.2750    1.7050   20.8490 C   0  0  0  0  0  0  0  0  0  0  0  0
   12.1121    0.5362   24.7663 C   0  0  0  0  0  0  0  0  0  0  0  0
   12.2623    1.9266   22.7961 C   0  0  0  0  0  0  0  0  0  0  0  0
    4.6890    1.6810   18.4640 C   0  0  0  0  0  0  0  0  0  0  0  0
    5.4210    0.9600   21.0930 C   0  0  0  0  0  0  0  0  0  0  0  0
    9.0720   -1.1280   24.8640 C   0  0  0  0  0  0  0  0  0  0  0  0
    9.7200   -2.2600   22.8630 C   0  0  0  0  0  0  0  0  0  0  0  0
    8.9960   -2.3380   25.5320 C   0  0  0  0  0  0  0  0  0  0  0  0
    9.6730   -3.4710   23.5300 C   0  0  0  0  0  0  0  0  0  0  0  0
   11.4911    1.2484   23.7401 C   0  0  0  0  0  0  0  0  0  0  0  0
    5.8300    0.9190   18.6970 C   0  0  0  0  0  0  0  0  0  0  0  0
    6.1790    0.5730   19.9990 C   0  0  0  0  0  0  0  0  0  0  0  0
    9.3350   -1.0880   23.5010 C   0  0  0  0  0  0  0  0  0  0  0  0
    9.3070   -3.5340   24.8780 C   0  0  0  0  0  0  0  0  0  0  0  0
    9.0420    0.3700   21.5280 C   0  0  0  0  0  0  0  0  0  0  0  0
    8.8720   -4.6805   26.9013 C   0  0  0  0  0  0  0  0  0  0  0  0
    9.9929    1.2851   23.6509 C   0  0  0  0  0  0  0  0  0  0  0  0
    8.1890   -0.7180   20.8700 C   0  0  0  0  0  0  0  0  0  0  0  0
    6.7580    0.3810   17.8350 N   0  0  0  0  0  0  0  0  0  0  0  0
    7.6390   -0.2680   18.5410 N   0  0  0  0  0  0  0  0  0  0  0  0
    7.3170   -0.1610   19.8550 N   0  0  0  0  0  0  0  0  0  0  0  0
    9.4560    0.1560   22.8130 N   0  0  0  0  0  0  0  0  0  0  0  0
    9.2690    1.4140   20.9380 O   0  0  0  0  0  0  0  0  0  0  0  0
    9.2555   -4.7124   25.5274 O   0  0  0  0  0  0  0  0  0  0  0  0
   15.3591    1.1550   23.9693 H   0  0  0  0  0  0  0  0  0  0  0  0
   13.9874   -0.0514   25.6481 H   0  0  0  0  0  0  0  0  0  0  0  0
   14.2543    2.4216   22.1438 H   0  0  0  0  0  0  0  0  0  0  0  0
    3.0136    2.6524   19.3909 H   0  0  0  0  0  0  0  0  0  0  0  0
    3.6477    2.0141   21.6817 H   0  0  0  0  0  0  0  0  0  0  0  0
   11.5194    0.0047   25.5061 H   0  0  0  0  0  0  0  0  0  0  0  0
   11.7872    2.4839   21.9931 H   0  0  0  0  0  0  0  0  0  0  0  0
    4.4041    1.9739   17.4524 H   0  0  0  0  0  0  0  0  0  0  0  0
    5.7107    0.6909   22.1141 H   0  0  0  0  0  0  0  0  0  0  0  0
    8.9221   -0.1995   25.4231 H   0  0  0  0  0  0  0  0  0  0  0  0
   10.0642   -2.2347   21.8253 H   0  0  0  0  0  0  0  0  0  0  0  0
    8.6902   -2.3588   26.5805 H   0  0  0  0  0  0  0  0  0  0  0  0
    9.9254   -4.3921   22.9961 H   0  0  0  0  0  0  0  0  0  0  0  0
    8.8711   -5.6964   27.3038 H   0  0  0  0  0  0  0  0  0  0  0  0
    7.8758   -4.2402   26.9923 H   0  0  0  0  0  0  0  0  0  0  0  0
    9.5894   -4.0716   27.4566 H   0  0  0  0  0  0  0  0  0  0  0  0
    9.5448    1.2080   24.6476 H   0  0  0  0  0  0  0  0  0  0  0  0
    9.6483    2.2271   23.2115 H   0  0  0  0  0  0  0  0  0  0  0  0
    8.8255   -1.4531   20.3835 H   0  0  0  0  0  0  0  0  0  0  0  0
    7.5533   -1.1948   21.6123 H   0  0  0  0  0  0  0  0  0  0  0  0
  1  2  1  0  0  0  0
  1  3  2  0  0  0  0
  2  6  2  0  0  0  0
  3  7  1  0  0  0  0
  4  5  1  0  0  0  0
  4  8  2  0  0  0  0
  5  9  2  0  0  0  0
  6 14  1  0  0  0  0
  7 14  2  0  0  0  0
  8 15  1  0  0  0  0
  9 16  1  0  0  0  0
 10 12  2  0  0  0  0
 10 17  1  0  0  0  0
 11 13  1  0  0  0  0
 11 17  2  0  0  0  0
 12 18  1  0  0  0  0
 13 18  2  0  0  0  0
 14 21  1  0  0  0  0
 15 16  2  0  0  0  0
 15 23  1  0  0  0  0
 16 25  1  0  0  0  0
 17 26  1  0  0  0  0
 18 28  1  0  0  0  0
 19 22  1  0  0  0  0
 19 26  1  0  0  0  0
 19 27  2  0  0  0  0
 20 28  1  0  0  0  0
 21 26  1  0  0  0  0
 22 25  1  0  0  0  0
 23 24  2  0  0  0  0
 24 25  1  0  0  0  0
  1 29  1  0  0  0  0
  2 30  1  0  0  0  0
  3 31  1  0  0  0  0
  4 32  1  0  0  0  0
  5 33  1  0  0  0  0
  6 34  1  0  0  0  0
  7 35  1  0  0  0  0
  8 36  1  0  0  0  0
  9 37  1  0  0  0  0
 10 38  1  0  0  0  0
 11 39  1  0  0  0  0
 12 40  1  0  0  0  0
 13 41  1  0  0  0  0
 20 42  1  0  0  0  0
 20 43  1  0  0  0  0
 20 44  1  0  0  0  0
 21 45  1  0  0  0  0
 21 46  1  0  0  0  0
 22 47  1  0  0  0  0
 22 48  1  0  0  0  0
M  END
> <clash_score>
0

> <docking_score>
-9.188796997070312

> <overlap_score>
0.9594522714614868

$$$$
BENZO_352_1
  -OEChem-08232013463D

 45 48  0     0  0  0  0  0  0999 V2000
    3.9160    2.0630   19.5520 C   0  0  0  0  0  0  0  0  0  0  0  0
    4.2750    1.7050   20.8490 C   0  0  0  0  0  0  0  0  0  0  0  0
    4.6890    1.6810   18.4640 C   0  0  0  0  0  0  0  0  0  0  0  0
    5.4210    0.9600   21.0930 C   0  0  0  0  0  0  0  0  0  0  0  0
    9.0720   -1.1280   24.8640 C   0  0  0  0  0  0  0  0  0  0  0  0
    9.7200   -2.2600   22.8630 C   0  0  0  0  0  0  0  0  0  0  0  0
    8.9960   -2.3380   25.5320 C   0  0  0  0  0  0  0  0  0  0  0  0
    9.6730   -3.4710   23.5300 C   0  0  0  0  0  0  0  0  0  0  0  0
   12.3069    2.4071   23.8887 C   0  0  0  0  0  0  0  0  0  0  0  0
   13.6470    2.0928   23.9439 C   0  0  0  0  0  0  0  0  0  0  0  0
   12.2389    0.0925   23.6871 C   0  0  0  0  0  0  0  0  0  0  0  0
   11.4911    1.2484   23.7401 C   0  0  0  0  0  0  0  0  0  0  0  0
    5.8300    0.9190   18.6970 C   0  0  0  0  0  0  0  0  0  0  0  0
    6.1790    0.5730   19.9990 C   0  0  0  0  0  0  0  0  0  0  0  0
    9.3350   -1.0880   23.5010 C   0  0  0  0  0  0  0  0  0  0  0  0
    9.3070   -3.5340   24.8780 C   0  0  0  0  0  0  0  0  0  0  0  0
    9.0420    0.3700   21.5280 C   0  0  0  0  0  0  0  0  0  0  0  0
    8.8720   -4.6805   26.9013 C   0  0  0  0  0  0  0  0  0  0  0  0
    9.9929    1.2851   23.6509 C   0  0  0  0  0  0  0  0  0  0  0  0
    8.1890   -0.7180   20.8700 C   0  0  0  0  0  0  0  0  0  0  0  0
    6.7580    0.3810   17.8350 N   0  0  0  0  0  0  0  0  0  0  0  0
    7.6390   -0.2680   18.5410 N   0  0  0  0  0  0  0  0  0  0  0  0
    7.3170   -0.1610   19.8550 N   0  0  0  0  0  0  0  0  0  0  0  0
    9.4560    0.1560   22.8130 N   0  0  0  0  0  0  0  0  0  0  0  0
    9.2690    1.4140   20.9380 O   0  0  0  0  0  0  0  0  0  0  0  0
    9.2555   -4.7124   25.5274 O   0  0  0  0  0  0  0  0  0  0  0  0
   13.9173    0.4067   23.8165 S   0  0  0  0  0  0  0  0  0  0  0  0
    3.0136    2.6524   19.3909 H   0  0  0  0  0  0  0  0  0  0  0  0
    3.6477    2.0141   21.6817 H   0  0  0  0  0  0  0  0  0  0  0  0
    4.4041    1.9739   17.4524 H   0  0  0  0  0  0  0  0  0  0  0  0
    5.7107    0.6909   22.1141 H   0  0  0  0  0  0  0  0  0  0  0  0
    8.9221   -0.1995   25.4231 H   0  0  0  0  0  0  0  0  0  0  0  0
   10.0642   -2.2347   21.8253 H   0  0  0  0  0  0  0  0  0  0  0  0
    8.6902   -2.3588   26.5805 H   0  0  0  0  0  0  0  0  0  0  0  0
    9.9254   -4.3921   22.9961 H   0  0  0  0  0  0  0  0  0  0  0  0
   11.9339    3.4215   23.9520 H   0  0  0  0  0  0  0  0  0  0  0  0
   14.4803    2.7726   24.0521 H   0  0  0  0  0  0  0  0  0  0  0  0
   11.8841   -0.9229   23.5774 H   0  0  0  0  0  0  0  0  0  0  0  0
    8.8711   -5.6964   27.3038 H   0  0  0  0  0  0  0  0  0  0  0  0
    7.8758   -4.2402   26.9923 H   0  0  0  0  0  0  0  0  0  0  0  0
    9.5894   -4.0716   27.4566 H   0  0  0  0  0  0  0  0  0  0  0  0
    9.5448    1.2080   24.6476 H   0  0  0  0  0  0  0  0  0  0  0  0
    9.6483    2.2271   23.2115 H   0  0  0  0  0  0  0  0  0  0  0  0
    8.8255   -1.4531   20.3835 H   0  0  0  0  0  0  0  0  0  0  0  0
    7.5533   -1.1948   21.6123 H   0  0  0  0  0  0  0  0  0  0  0  0
  1  2  1  0  0  0  0
  1  3  2  0  0  0  0
  2  4  2  0  0  0  0
  3 13  1  0  0  0  0
  4 14  1  0  0  0  0
  5  7  2  0  0  0  0
  5 15  1  0  0  0  0
  6  8  1  0  0  0  0
  6 15  2  0  0  0  0
  7 16  1  0  0  0  0
  8 16  2  0  0  0  0
  9 10  2  0  0  0  0
  9 12  1  0  0  0  0
 10 27  1  0  0  0  0
 11 12  2  0  0  0  0
 11 27  1  0  0  0  0
 12 19  1  0  0  0  0
 13 14  2  0  0  0  0
 13 21  1  0  0  0  0
 14 23  1  0  0  0  0
 15 24  1  0  0  0  0
 16 26  1  0  0  0  0
 17 20  1  0  0  0  0
 17 24  1  0  0  0  0
 17 25  2  0  0  0  0
 18 26  1  0  0  0  0
 19 24  1  0  0  0  0
 20 23  1  0  0  0  0
 21 22  2  0  0  0  0
 22 23  1  0  0  0  0
  1 28  1  0  0  0  0
  2 29  1  0  0  0  0
  3 30  1  0  0  0  0
  4 31  1  0  0  0  0
  5 32  1  0  0  0  0
  6 33  1  0  0  0  0
  7 34  1  0  0  0  0
  8 35  1  0  0  0  0
  9 36  1  0  0  0  0
 10 37  1  0  0  0  0
 11 38  1  0  0  0  0
 18 39  1  0  0  0  0
 18 40  1  0  0  0  0
 18 41  1  0  0  0  0
 19 42  1  0  0  0  0
 19 43  1  0  0  0  0
 20 44  1  0  0  0  0
 20 45  1  0  0  0  0
M  END
> <clash_score>
0

> <docking_score>
-8.112133026123047

> <overlap_score>
0.9443751573562622

$$$$
BENZO_355_1
  -OEChem-08232013463D

 48 51  0     0  0  0  0  0  0999 V2000
    3.9160    2.0630   19.5520 C   0  0  0  0  0  0  0  0  0  0  0  0
    4.2750    1.7050   20.8490 C   0  0  0  0  0  0  0  0  0  0  0  0
    4.6890    1.6810   18.4640 C   0  0  0  0  0  0  0  0  0  0  0  0
    5.4210    0.9600   21.0930 C   0  0  0  0  0  0  0  0  0  0  0  0
    9.0720   -1.1280   24.8640 C   0  0  0  0  0  0  0  0  0  0  0  0
    9.7200   -2.2600   22.8630 C   0  0  0  0  0  0  0  0  0  0  0  0
    8.9960   -2.3380   25.5320 C   0  0  0  0  0  0  0  0  0  0  0  0
    9.6730   -3.4710   23.5300 C   0  0  0  0  0  0  0  0  0  0  0  0
   12.2851    1.1333   24.8969 C   0  0  0  0  0  0  0  0  0  0  0  0
   12.3954    1.3169   22.7085 C   0  0  0  0  0  0  0  0  0  0  0  0
   11.4911    1.2484   23.7401 C   0  0  0  0  0  0  0  0  0  0  0  0
    5.8300    0.9190   18.6970 C   0  0  0  0  0  0  0  0  0  0  0  0
    6.1790    0.5730   19.9990 C   0  0  0  0  0  0  0  0  0  0  0  0
    9.3350   -1.0880   23.5010 C   0  0  0  0  0  0  0  0  0  0  0  0
    9.3070   -3.5340   24.8780 C   0  0  0  0  0  0  0  0  0  0  0  0
    9.0420    0.3700   21.5280 C   0  0  0  0  0  0  0  0  0  0  0  0
   14.8985    1.2725   22.6038 C   0  0  0  0  0  0  0  0  0  0  0  0
    9.5894   -5.8809   24.7798 C   0  0  0  0  0  0  0  0  0  0  0  0
    9.9929    1.2851   23.6509 C   0  0  0  0  0  0  0  0  0  0  0  0
    8.1890   -0.7180   20.8700 C   0  0  0  0  0  0  0  0  0  0  0  0
   13.5930    1.1286   24.6263 N   0  0  0  0  0  0  0  0  0  0  0  0
    6.7580    0.3810   17.8350 N   0  0  0  0  0  0  0  0  0  0  0  0
    7.6390   -0.2680   18.5410 N   0  0  0  0  0  0  0  0  0  0  0  0
   13.6279    1.2414   23.2876 N   0  0  0  0  0  0  0  0  0  0  0  0
    7.3170   -0.1610   19.8550 N   0  0  0  0  0  0  0  0  0  0  0  0
    9.4560    0.1560   22.8130 N   0  0  0  0  0  0  0  0  0  0  0  0
    9.2690    1.4140   20.9380 O   0  0  0  0  0  0  0  0  0  0  0  0
    9.2555   -4.7124   25.5274 O   0  0  0  0  0  0  0  0  0  0  0  0
    3.0136    2.6524   19.3909 H   0  0  0  0  0  0  0  0  0  0  0  0
    3.6477    2.0141   21.6817 H   0  0  0  0  0  0  0  0  0  0  0  0
    4.4041    1.9739   17.4524 H   0  0  0  0  0  0  0  0  0  0  0  0
    5.7107    0.6909   22.1141 H   0  0  0  0  0  0  0  0  0  0  0  0
    8.9221   -0.1995   25.4231 H   0  0  0  0  0  0  0  0  0  0  0  0
   10.0642   -2.2347   21.8253 H   0  0  0  0  0  0  0  0  0  0  0  0
    8.6902   -2.3588   26.5805 H   0  0  0  0  0  0  0  0  0  0  0  0
    9.9254   -4.3921   22.9961 H   0  0  0  0  0  0  0  0  0  0  0  0
   11.9674    1.0517   25.9268 H   0  0  0  0  0  0  0  0  0  0  0  0
   12.2698    1.4094   21.6382 H   0  0  0  0  0  0  0  0  0  0  0  0
   15.2175    2.3156   22.5321 H   0  0  0  0  0  0  0  0  0  0  0  0
   15.6299    0.6869   23.1677 H   0  0  0  0  0  0  0  0  0  0  0  0
   14.7832    0.8374   21.6071 H   0  0  0  0  0  0  0  0  0  0  0  0
    9.5074   -6.7611   25.4222 H   0  0  0  0  0  0  0  0  0  0  0  0
   10.6088   -5.7902   24.3963 H   0  0  0  0  0  0  0  0  0  0  0  0
    8.8944   -5.9778   23.9424 H   0  0  0  0  0  0  0  0  0  0  0  0
    9.5448    1.2080   24.6476 H   0  0  0  0  0  0  0  0  0  0  0  0
    9.6483    2.2271   23.2115 H   0  0  0  0  0  0  0  0  0  0  0  0
    8.8255   -1.4531   20.3835 H   0  0  0  0  0  0  0  0  0  0  0  0
    7.5533   -1.1948   21.6123 H   0  0  0  0  0  0  0  0  0  0  0  0
  1  2  1  0  0  0  0
  1  3  2  0  0  0  0
  2  4  2  0  0  0  0
  3 12  1  0  0  0  0
  4 13  1  0  0  0  0
  5  7  2  0  0  0  0
  5 14  1  0  0  0  0
  6  8  1  0  0  0  0
  6 14  2  0  0  0  0
  7 15  1  0  0  0  0
  8 15  2  0  0  0  0
  9 11  1  0  0  0  0
  9 21  2  0  0  0  0
 10 11  2  0  0  0  0
 10 24  1  0  0  0  0
 11 19  1  0  0  0  0
 12 13  2  0  0  0  0
 12 22  1  0  0  0  0
 13 25  1  0  0  0  0
 14 26  1  0  0  0  0
 15 28  1  0  0  0  0
 16 20  1  0  0  0  0
 16 26  1  0  0  0  0
 16 27  2  0  0  0  0
 17 24  1  0  0  0  0
 18 28  1  0  0  0  0
 19 26  1  0  0  0  0
 20 25  1  0  0  0  0
 21 24  1  0  0  0  0
 22 23  2  0  0  0  0
 23 25  1  0  0  0  0
  1 29  1  0  0  0  0
  2 30  1  0  0  0  0
  3 31  1  0  0  0  0
  4 32  1  0  0  0  0
  5 33  1  0  0  0  0
  6 34  1  0  0  0  0
  7 35  1  0  0  0  0
  8 36  1  0  0  0  0
  9 37  1  0  0  0  0
 10 38  1  0  0  0  0
 17 39  1  0  0  0  0
 17 40  1  0  0  0  0
 17 41  1  0  0  0  0
 18 42  1  0  0  0  0
 18 43  1  0  0  0  0
 18 44  1  0  0  0  0
 19 45  1  0  0  0  0
 19 46  1  0  0  0  0
 20 47  1  0  0  0  0
 20 48  1  0  0  0  0
M  END
> <clash_score>
0

> <docking_score>
-8.916261672973633

> <overlap_score>
0.9545060992240906

$$$$
BENZO_354_1
  -OEChem-08232013463D

 48 51  0     0  0  0  0  0  0999 V2000
    3.9160    2.0630   19.5520 C   0  0  0  0  0  0  0  0  0  0  0  0
    4.2750    1.7050   20.8490 C   0  0  0  0  0  0  0  0  0  0  0  0
   13.6473    2.1218   23.0883 C   0  0  0  0  0  0  0  0  0  0  0  0
   12.2554    2.1546   23.0050 C   0  0  0  0  0  0  0  0  0  0  0  0
    4.6890    1.6810   18.4640 C   0  0  0  0  0  0  0  0  0  0  0  0
    5.4210    0.9600   21.0930 C   0  0  0  0  0  0  0  0  0  0  0  0
    9.0720   -1.1280   24.8640 C   0  0  0  0  0  0  0  0  0  0  0  0
    9.7200   -2.2600   22.8630 C   0  0  0  0  0  0  0  0  0  0  0  0
    8.9960   -2.3380   25.5320 C   0  0  0  0  0  0  0  0  0  0  0  0
    9.6730   -3.4710   23.5300 C   0  0  0  0  0  0  0  0  0  0  0  0
   14.2751    1.1826   23.9065 C   0  0  0  0  0  0  0  0  0  0  0  0
   12.1189    0.3092   24.5584 C   0  0  0  0  0  0  0  0  0  0  0  0
   11.4911    1.2484   23.7401 C   0  0  0  0  0  0  0  0  0  0  0  0
    5.8300    0.9190   18.6970 C   0  0  0  0  0  0  0  0  0  0  0  0
    6.1790    0.5730   19.9990 C   0  0  0  0  0  0  0  0  0  0  0  0
    9.3350   -1.0880   23.5010 C   0  0  0  0  0  0  0  0  0  0  0  0
    9.3070   -3.5340   24.8780 C   0  0  0  0  0  0  0  0  0  0  0  0
   13.5109    0.2764   24.6416 C   0  0  0  0  0  0  0  0  0  0  0  0
    9.0420    0.3700   21.5280 C   0  0  0  0  0  0  0  0  0  0  0  0
    8.8720   -4.6805   26.9013 C   0  0  0  0  0  0  0  0  0  0  0  0
    9.9929    1.2851   23.6509 C   0  0  0  0  0  0  0  0  0  0  0  0
    8.1890   -0.7180   20.8700 C   0  0  0  0  0  0  0  0  0  0  0  0
    6.7580    0.3810   17.8350 N   0  0  0  0  0  0  0  0  0  0  0  0
    7.6390   -0.2680   18.5410 N   0  0  0  0  0  0  0  0  0  0  0  0
    7.3170   -0.1610   19.8550 N   0  0  0  0  0  0  0  0  0  0  0  0
    9.4560    0.1560   22.8130 N   0  0  0  0  0  0  0  0  0  0  0  0
    9.2690    1.4140   20.9380 O   0  0  0  0  0  0  0  0  0  0  0  0
    9.2555   -4.7124   25.5274 O   0  0  0  0  0  0  0  0  0  0  0  0
   14.2860   -0.8814   25.6519 Cl  0  0  0  0  0  0  0  0  0  0  0  0
    3.0136    2.6524   19.3909 H   0  0  0  0  0  0  0  0  0  0  0  0
    3.6477    2.0141   21.6817 H   0  0  0  0  0  0  0  0  0  0  0  0
   14.2420    2.8277   22.5158 H   0  0  0  0  0  0  0  0  0  0  0  0
   11.7747    2.8899   22.3650 H   0  0  0  0  0  0  0  0  0  0  0  0
    4.4041    1.9739   17.4524 H   0  0  0  0  0  0  0  0  0  0  0  0
    5.7107    0.6909   22.1141 H   0  0  0  0  0  0  0  0  0  0  0  0
    8.9221   -0.1995   25.4231 H   0  0  0  0  0  0  0  0  0  0  0  0
   10.0642   -2.2347   21.8253 H   0  0  0  0  0  0  0  0  0  0  0  0
    8.6902   -2.3588   26.5805 H   0  0  0  0  0  0  0  0  0  0  0  0
    9.9254   -4.3921   22.9961 H   0  0  0  0  0  0  0  0  0  0  0  0
   15.3609    1.1688   23.9618 H   0  0  0  0  0  0  0  0  0  0  0  0
   11.5186   -0.3955   25.1292 H   0  0  0  0  0  0  0  0  0  0  0  0
    8.8711   -5.6964   27.3038 H   0  0  0  0  0  0  0  0  0  0  0  0
    7.8758   -4.2402   26.9923 H   0  0  0  0  0  0  0  0  0  0  0  0
    9.5894   -4.0716   27.4566 H   0  0  0  0  0  0  0  0  0  0  0  0
    9.5448    1.2080   24.6476 H   0  0  0  0  0  0  0  0  0  0  0  0
    9.6483    2.2271   23.2115 H   0  0  0  0  0  0  0  0  0  0  0  0
    8.8255   -1.4531   20.3835 H   0  0  0  0  0  0  0  0  0  0  0  0
    7.5533   -1.1948   21.6123 H   0  0  0  0  0  0  0  0  0  0  0  0
  1  2  1  0  0  0  0
  1  5  2  0  0  0  0
  2  6  2  0  0  0  0
  3  4  2  0  0  0  0
  3 11  1  0  0  0  0
  4 13  1  0  0  0  0
  5 14  1  0  0  0  0
  6 15  1  0  0  0  0
  7  9  2  0  0  0  0
  7 16  1  0  0  0  0
  8 10  1  0  0  0  0
  8 16  2  0  0  0  0
  9 17  1  0  0  0  0
 10 17  2  0  0  0  0
 11 18  2  0  0  0  0
 12 13  2  0  0  0  0
 12 18  1  0  0  0  0
 13 21  1  0  0  0  0
 14 15  2  0  0  0  0
 14 23  1  0  0  0  0
 15 25  1  0  0  0  0
 16 26  1  0  0  0  0
 17 28  1  0  0  0  0
 18 29  1  0  0  0  0
 19 22  1  0  0  0  0
 19 26  1  0  0  0  0
 19 27  2  0  0  0  0
 20 28  1  0  0  0  0
 21 26  1  0  0  0  0
 22 25  1  0  0  0  0
 23 24  2  0  0  0  0
 24 25  1  0  0  0  0
  1 30  1  0  0  0  0
  2 31  1  0  0  0  0
  3 32  1  0  0  0  0
  4 33  1  0  0  0  0
  5 34  1  0  0  0  0
  6 35  1  0  0  0  0
  7 36  1  0  0  0  0
  8 37  1  0  0  0  0
  9 38  1  0  0  0  0
 10 39  1  0  0  0  0
 11 40  1  0  0  0  0
 12 41  1  0  0  0  0
 20 42  1  0  0  0  0
 20 43  1  0  0  0  0
 20 44  1  0  0  0  0
 21 45  1  0  0  0  0
 21 46  1  0  0  0  0
 22 47  1  0  0  0  0
 22 48  1  0  0  0  0
M  END
> <clash_score>
0.673869244874083

> <docking_score>
-7.991172790527344

> <overlap_score>
0.9628577828407288

$$$$
BENZO_357_1
  -OEChem-08232013463D

 58 62  0     0  0  0  0  0  0999 V2000
   14.2740    1.2396   23.9240 C   0  0  0  0  0  0  0  0  0  0  0  0
   13.5000    0.5758   24.8758 C   0  0  0  0  0  0  0  0  0  0  0  0
   13.6566    1.9256   22.8782 C   0  0  0  0  0  0  0  0  0  0  0  0
    3.9160    2.0630   19.5520 C   0  0  0  0  0  0  0  0  0  0  0  0
    4.2750    1.7050   20.8490 C   0  0  0  0  0  0  0  0  0  0  0  0
   12.1085    0.5979   24.7816 C   0  0  0  0  0  0  0  0  0  0  0  0
   12.2651    1.9477   22.7840 C   0  0  0  0  0  0  0  0  0  0  0  0
    4.6890    1.6810   18.4640 C   0  0  0  0  0  0  0  0  0  0  0  0
    5.4210    0.9600   21.0930 C   0  0  0  0  0  0  0  0  0  0  0  0
    8.9960   -2.3380   25.5320 C   0  0  0  0  0  0  0  0  0  0  0  0
    9.6730   -3.4710   23.5300 C   0  0  0  0  0  0  0  0  0  0  0  0
    9.0720   -1.1280   24.8640 C   0  0  0  0  0  0  0  0  0  0  0  0
    9.7200   -2.2600   22.8630 C   0  0  0  0  0  0  0  0  0  0  0  0
   11.4910    1.2839   23.7357 C   0  0  0  0  0  0  0  0  0  0  0  0
    5.8300    0.9190   18.6970 C   0  0  0  0  0  0  0  0  0  0  0  0
    6.1790    0.5730   19.9990 C   0  0  0  0  0  0  0  0  0  0  0  0
    9.3070   -3.5340   24.8780 C   0  0  0  0  0  0  0  0  0  0  0  0
    9.3350   -1.0880   23.5010 C   0  0  0  0  0  0  0  0  0  0  0  0
    8.3597   -5.0073   26.6307 C   0  0  0  0  0  0  0  0  0  0  0  0
    9.0420    0.3700   21.5280 C   0  0  0  0  0  0  0  0  0  0  0  0
    8.4720   -6.3981   27.2296 C   0  0  0  0  0  0  0  0  0  0  0  0
    9.9252   -6.7605   27.4803 C   0  0  0  0  0  0  0  0  0  0  0  0
   10.7833   -6.6094   26.2282 C   0  0  0  0  0  0  0  0  0  0  0  0
   10.0539   -5.9099   25.0823 C   0  0  0  0  0  0  0  0  0  0  0  0
    9.9933    1.3078   23.6337 C   0  0  0  0  0  0  0  0  0  0  0  0
    8.1890   -0.7180   20.8700 C   0  0  0  0  0  0  0  0  0  0  0  0
    6.7580    0.3810   17.8350 N   0  0  0  0  0  0  0  0  0  0  0  0
    7.6390   -0.2680   18.5410 N   0  0  0  0  0  0  0  0  0  0  0  0
    7.3170   -0.1610   19.8550 N   0  0  0  0  0  0  0  0  0  0  0  0
    9.2529   -4.7797   25.5644 N   0  0  0  0  0  0  0  0  0  0  0  0
    9.4560    0.1560   22.8130 N   0  0  0  0  0  0  0  0  0  0  0  0
    7.4954   -4.2356   27.0449 O   0  0  0  0  0  0  0  0  0  0  0  0
    9.2690    1.4140   20.9380 O   0  0  0  0  0  0  0  0  0  0  0  0
   15.3575    1.2234   23.9983 H   0  0  0  0  0  0  0  0  0  0  0  0
   13.9806    0.0425   25.6908 H   0  0  0  0  0  0  0  0  0  0  0  0
   14.2589    2.4435   22.1376 H   0  0  0  0  0  0  0  0  0  0  0  0
    3.0136    2.6524   19.3909 H   0  0  0  0  0  0  0  0  0  0  0  0
    3.6477    2.0141   21.6817 H   0  0  0  0  0  0  0  0  0  0  0  0
   11.5134    0.0776   25.5276 H   0  0  0  0  0  0  0  0  0  0  0  0
   11.7927    2.4847   21.9657 H   0  0  0  0  0  0  0  0  0  0  0  0
    4.4041    1.9739   17.4524 H   0  0  0  0  0  0  0  0  0  0  0  0
    5.7107    0.6909   22.1141 H   0  0  0  0  0  0  0  0  0  0  0  0
    8.6895   -2.3529   26.5807 H   0  0  0  0  0  0  0  0  0  0  0  0
    9.9262   -4.3897   22.9916 H   0  0  0  0  0  0  0  0  0  0  0  0
    8.9224   -0.1998   25.4238 H   0  0  0  0  0  0  0  0  0  0  0  0
   10.0649   -2.2343   21.8258 H   0  0  0  0  0  0  0  0  0  0  0  0
    7.9325   -6.4148   28.1641 H   0  0  0  0  0  0  0  0  0  0  0  0
    8.0254   -7.0920   26.5333 H   0  0  0  0  0  0  0  0  0  0  0  0
   10.3387   -6.1267   28.2923 H   0  0  0  0  0  0  0  0  0  0  0  0
    9.9904   -7.8023   27.8537 H   0  0  0  0  0  0  0  0  0  0  0  0
   11.7037   -6.0404   26.4771 H   0  0  0  0  0  0  0  0  0  0  0  0
   11.1411   -7.6068   25.8918 H   0  0  0  0  0  0  0  0  0  0  0  0
   10.7782   -5.5162   24.3756 H   0  0  0  0  0  0  0  0  0  0  0  0
    9.4042   -6.6189   24.5807 H   0  0  0  0  0  0  0  0  0  0  0  0
    9.5373    1.2250   24.6262 H   0  0  0  0  0  0  0  0  0  0  0  0
    9.6445    2.2476   23.1928 H   0  0  0  0  0  0  0  0  0  0  0  0
    8.8326   -1.4554   20.3912 H   0  0  0  0  0  0  0  0  0  0  0  0
    7.5604   -1.1971   21.6201 H   0  0  0  0  0  0  0  0  0  0  0  0
  1  2  1  0  0  0  0
  1  3  2  0  0  0  0
  2  6  2  0  0  0  0
  3  7  1  0  0  0  0
  4  5  1  0  0  0  0
  4  8  2  0  0  0  0
  5  9  2  0  0  0  0
  6 14  1  0  0  0  0
  7 14  2  0  0  0  0
  8 15  1  0  0  0  0
  9 16  1  0  0  0  0
 10 12  2  0  0  0  0
 10 17  1  0  0  0  0
 11 13  1  0  0  0  0
 11 17  2  0  0  0  0
 12 18  1  0  0  0  0
 13 18  2  0  0  0  0
 14 25  1  0  0  0  0
 15 16  2  0  0  0  0
 15 27  1  0  0  0  0
 16 29  1  0  0  0  0
 17 30  1  0  0  0  0
 18 31  1  0  0  0  0
 19 21  1  0  0  0  0
 19 30  1  0  0  0  0
 19 32  2  0  0  0  0
 20 26  1  0  0  0  0
 20 31  1  0  0  0  0
 20 33  2  0  0  0  0
 21 22  1  0  0  0  0
 22 23  1  0  0  0  0
 23 24  1  0  0  0  0
 24 30  1  0  0  0  0
 25 31  1  0  0  0  0
 26 29  1  0  0  0  0
 27 28  2  0  0  0  0
 28 29  1  0  0  0  0
  1 34  1  0  0  0  0
  2 35  1  0  0  0  0
  3 36  1  0  0  0  0
  4 37  1  0  0  0  0
  5 38  1  0  0  0  0
  6 39  1  0  0  0  0
  7 40  1  0  0  0  0
  8 41  1  0  0  0  0
  9 42  1  0  0  0  0
 10 43  1  0  0  0  0
 11 44  1  0  0  0  0
 12 45  1  0  0  0  0
 13 46  1  0  0  0  0
 21 47  1  0  0  0  0
 21 48  1  0  0  0  0
 22 49  1  0  0  0  0
 22 50  1  0  0  0  0
 23 51  1  0  0  0  0
 23 52  1  0  0  0  0
 24 53  1  0  0  0  0
 24 54  1  0  0  0  0
 25 55  1  0  0  0  0
 25 56  1  0  0  0  0
 26 57  1  0  0  0  0
 26 58  1  0  0  0  0
M  END
> <clash_score>
0.7790751876189459

> <docking_score>
-8.499232292175293

> <overlap_score>
1.001940369606018

$$$$
BENZO_356_1
  -OEChem-08232013463D

 55 59  0     0  0  0  0  0  0999 V2000
    3.9160    2.0630   19.5520 C   0  0  0  0  0  0  0  0  0  0  0  0
    4.2750    1.7050   20.8490 C   0  0  0  0  0  0  0  0  0  0  0  0
    4.6890    1.6810   18.4640 C   0  0  0  0  0  0  0  0  0  0  0  0
    5.4210    0.9600   21.0930 C   0  0  0  0  0  0  0  0  0  0  0  0
    8.9960   -2.3380   25.5320 C   0  0  0  0  0  0  0  0  0  0  0  0
    9.6730   -3.4710   23.5300 C   0  0  0  0  0  0  0  0  0  0  0  0
    9.0720   -1.1280   24.8640 C   0  0  0  0  0  0  0  0  0  0  0  0
    9.7200   -2.2600   22.8630 C   0  0  0  0  0  0  0  0  0  0  0  0
   12.3654    1.3738   22.6143 C   0  0  0  0  0  0  0  0  0  0  0  0
   13.6908    1.3270   22.9866 C   0  0  0  0  0  0  0  0  0  0  0  0
   12.1816    1.1715   24.9225 C   0  0  0  0  0  0  0  0  0  0  0  0
   11.4910    1.2839   23.7357 C   0  0  0  0  0  0  0  0  0  0  0  0
    5.8300    0.9190   18.6970 C   0  0  0  0  0  0  0  0  0  0  0  0
    6.1790    0.5730   19.9990 C   0  0  0  0  0  0  0  0  0  0  0  0
    9.3070   -3.5340   24.8780 C   0  0  0  0  0  0  0  0  0  0  0  0
    9.3350   -1.0880   23.5010 C   0  0  0  0  0  0  0  0  0  0  0  0
    8.3597   -5.0073   26.6307 C   0  0  0  0  0  0  0  0  0  0  0  0
    9.0420    0.3700   21.5280 C   0  0  0  0  0  0  0  0  0  0  0  0
    8.4720   -6.3981   27.2296 C   0  0  0  0  0  0  0  0  0  0  0  0
    9.9252   -6.7605   27.4803 C   0  0  0  0  0  0  0  0  0  0  0  0
   10.7833   -6.6094   26.2282 C   0  0  0  0  0  0  0  0  0  0  0  0
   10.0539   -5.9099   25.0823 C   0  0  0  0  0  0  0  0  0  0  0  0
    9.9933    1.3078   23.6337 C   0  0  0  0  0  0  0  0  0  0  0  0
    8.1890   -0.7180   20.8700 C   0  0  0  0  0  0  0  0  0  0  0  0
    6.7580    0.3810   17.8350 N   0  0  0  0  0  0  0  0  0  0  0  0
    7.6390   -0.2680   18.5410 N   0  0  0  0  0  0  0  0  0  0  0  0
    7.3170   -0.1610   19.8550 N   0  0  0  0  0  0  0  0  0  0  0  0
    9.2529   -4.7797   25.5644 N   0  0  0  0  0  0  0  0  0  0  0  0
    9.4560    0.1560   22.8130 N   0  0  0  0  0  0  0  0  0  0  0  0
    7.4954   -4.2356   27.0449 O   0  0  0  0  0  0  0  0  0  0  0  0
    9.2690    1.4140   20.9380 O   0  0  0  0  0  0  0  0  0  0  0  0
   13.8770    1.1752   24.6821 S   0  0  0  0  0  0  0  0  0  0  0  0
    3.0136    2.6524   19.3909 H   0  0  0  0  0  0  0  0  0  0  0  0
    3.6477    2.0141   21.6817 H   0  0  0  0  0  0  0  0  0  0  0  0
    4.4041    1.9739   17.4524 H   0  0  0  0  0  0  0  0  0  0  0  0
    5.7107    0.6909   22.1141 H   0  0  0  0  0  0  0  0  0  0  0  0
    8.6895   -2.3529   26.5807 H   0  0  0  0  0  0  0  0  0  0  0  0
    9.9262   -4.3897   22.9916 H   0  0  0  0  0  0  0  0  0  0  0  0
    8.9224   -0.1998   25.4238 H   0  0  0  0  0  0  0  0  0  0  0  0
   10.0649   -2.2343   21.8258 H   0  0  0  0  0  0  0  0  0  0  0  0
   12.0428    1.4677   21.5851 H   0  0  0  0  0  0  0  0  0  0  0  0
   14.5587    1.3741   22.3441 H   0  0  0  0  0  0  0  0  0  0  0  0
   11.7757    1.0861   25.9210 H   0  0  0  0  0  0  0  0  0  0  0  0
    7.9325   -6.4148   28.1641 H   0  0  0  0  0  0  0  0  0  0  0  0
    8.0254   -7.0920   26.5333 H   0  0  0  0  0  0  0  0  0  0  0  0
   10.3387   -6.1267   28.2923 H   0  0  0  0  0  0  0  0  0  0  0  0
    9.9904   -7.8023   27.8537 H   0  0  0  0  0  0  0  0  0  0  0  0
   11.7037   -6.0404   26.4771 H   0  0  0  0  0  0  0  0  0  0  0  0
   11.1411   -7.6068   25.8918 H   0  0  0  0  0  0  0  0  0  0  0  0
   10.7782   -5.5162   24.3756 H   0  0  0  0  0  0  0  0  0  0  0  0
    9.4042   -6.6189   24.5807 H   0  0  0  0  0  0  0  0  0  0  0  0
    9.5373    1.2250   24.6262 H   0  0  0  0  0  0  0  0  0  0  0  0
    9.6445    2.2476   23.1928 H   0  0  0  0  0  0  0  0  0  0  0  0
    8.8326   -1.4554   20.3912 H   0  0  0  0  0  0  0  0  0  0  0  0
    7.5604   -1.1971   21.6201 H   0  0  0  0  0  0  0  0  0  0  0  0
  1  2  1  0  0  0  0
  1  3  2  0  0  0  0
  2  4  2  0  0  0  0
  3 13  1  0  0  0  0
  4 14  1  0  0  0  0
  5  7  2  0  0  0  0
  5 15  1  0  0  0  0
  6  8  1  0  0  0  0
  6 15  2  0  0  0  0
  7 16  1  0  0  0  0
  8 16  2  0  0  0  0
  9 10  2  0  0  0  0
  9 12  1  0  0  0  0
 10 32  1  0  0  0  0
 11 12  2  0  0  0  0
 11 32  1  0  0  0  0
 12 23  1  0  0  0  0
 13 14  2  0  0  0  0
 13 25  1  0  0  0  0
 14 27  1  0  0  0  0
 15 28  1  0  0  0  0
 16 29  1  0  0  0  0
 17 19  1  0  0  0  0
 17 28  1  0  0  0  0
 17 30  2  0  0  0  0
 18 24  1  0  0  0  0
 18 29  1  0  0  0  0
 18 31  2  0  0  0  0
 19 20  1  0  0  0  0
 20 21  1  0  0  0  0
 21 22  1  0  0  0  0
 22 28  1  0  0  0  0
 23 29  1  0  0  0  0
 24 27  1  0  0  0  0
 25 26  2  0  0  0  0
 26 27  1  0  0  0  0
  1 33  1  0  0  0  0
  2 34  1  0  0  0  0
  3 35  1  0  0  0  0
  4 36  1  0  0  0  0
  5 37  1  0  0  0  0
  6 38  1  0  0  0  0
  7 39  1  0  0  0  0
  8 40  1  0  0  0  0
  9 41  1  0  0  0  0
 10 42  1  0  0  0  0
 11 43  1  0  0  0  0
 19 44  1  0  0  0  0
 19 45  1  0  0  0  0
 20 46  1  0  0  0  0
 20 47  1  0  0  0  0
 21 48  1  0  0  0  0
 21 49  1  0  0  0  0
 22 50  1  0  0  0  0
 22 51  1  0  0  0  0
 23 52  1  0  0  0  0
 23 53  1  0  0  0  0
 24 54  1  0  0  0  0
 24 55  1  0  0  0  0
M  END
> <clash_score>
0.7790751876189459

> <docking_score>
-8.682780265808105

> <overlap_score>
0.9815323948860168

$$$$
BENZO_359_1
  -OEChem-08232013463D

 58 62  0     0  0  0  0  0  0999 V2000
    3.9160    2.0630   19.5520 C   0  0  0  0  0  0  0  0  0  0  0  0
    4.2750    1.7050   20.8490 C   0  0  0  0  0  0  0  0  0  0  0  0
    4.6890    1.6810   18.4640 C   0  0  0  0  0  0  0  0  0  0  0  0
    5.4210    0.9600   21.0930 C   0  0  0  0  0  0  0  0  0  0  0  0
    8.9960   -2.3380   25.5320 C   0  0  0  0  0  0  0  0  0  0  0  0
    9.6730   -3.4710   23.5300 C   0  0  0  0  0  0  0  0  0  0  0  0
    9.0720   -1.1280   24.8640 C   0  0  0  0  0  0  0  0  0  0  0  0
    9.7200   -2.2600   22.8630 C   0  0  0  0  0  0  0  0  0  0  0  0
   12.2759    1.1736   24.8992 C   0  0  0  0  0  0  0  0  0  0  0  0
   12.4035    1.3621   22.7121 C   0  0  0  0  0  0  0  0  0  0  0  0
   11.4910    1.2839   23.7357 C   0  0  0  0  0  0  0  0  0  0  0  0
    5.8300    0.9190   18.6970 C   0  0  0  0  0  0  0  0  0  0  0  0
    6.1790    0.5730   19.9990 C   0  0  0  0  0  0  0  0  0  0  0  0
    9.3070   -3.5340   24.8780 C   0  0  0  0  0  0  0  0  0  0  0  0
    9.3350   -1.0880   23.5010 C   0  0  0  0  0  0  0  0  0  0  0  0
    8.3597   -5.0073   26.6307 C   0  0  0  0  0  0  0  0  0  0  0  0
    9.0420    0.3700   21.5280 C   0  0  0  0  0  0  0  0  0  0  0  0
    8.4720   -6.3981   27.2296 C   0  0  0  0  0  0  0  0  0  0  0  0
    9.9252   -6.7605   27.4803 C   0  0  0  0  0  0  0  0  0  0  0  0
   10.7833   -6.6094   26.2282 C   0  0  0  0  0  0  0  0  0  0  0  0
   10.0539   -5.9099   25.0823 C   0  0  0  0  0  0  0  0  0  0  0  0
   14.9077    1.3394   22.6290 C   0  0  0  0  0  0  0  0  0  0  0  0
    9.9933    1.3078   23.6337 C   0  0  0  0  0  0  0  0  0  0  0  0
    8.1890   -0.7180   20.8700 C   0  0  0  0  0  0  0  0  0  0  0  0
   13.5861    1.1806   24.6399 N   0  0  0  0  0  0  0  0  0  0  0  0
    6.7580    0.3810   17.8350 N   0  0  0  0  0  0  0  0  0  0  0  0
    7.6390   -0.2680   18.5410 N   0  0  0  0  0  0  0  0  0  0  0  0
   13.6316    1.2961   23.3017 N   0  0  0  0  0  0  0  0  0  0  0  0
    7.3170   -0.1610   19.8550 N   0  0  0  0  0  0  0  0  0  0  0  0
    9.2529   -4.7797   25.5644 N   0  0  0  0  0  0  0  0  0  0  0  0
    9.4560    0.1560   22.8130 N   0  0  0  0  0  0  0  0  0  0  0  0
    7.4954   -4.2356   27.0449 O   0  0  0  0  0  0  0  0  0  0  0  0
    9.2690    1.4140   20.9380 O   0  0  0  0  0  0  0  0  0  0  0  0
    3.0136    2.6524   19.3909 H   0  0  0  0  0  0  0  0  0  0  0  0
    3.6477    2.0141   21.6817 H   0  0  0  0  0  0  0  0  0  0  0  0
    4.4041    1.9739   17.4524 H   0  0  0  0  0  0  0  0  0  0  0  0
    5.7107    0.6909   22.1141 H   0  0  0  0  0  0  0  0  0  0  0  0
    8.6895   -2.3529   26.5807 H   0  0  0  0  0  0  0  0  0  0  0  0
    9.9262   -4.3897   22.9916 H   0  0  0  0  0  0  0  0  0  0  0  0
    8.9224   -0.1998   25.4238 H   0  0  0  0  0  0  0  0  0  0  0  0
   10.0649   -2.2343   21.8258 H   0  0  0  0  0  0  0  0  0  0  0  0
   11.9500    1.0874   25.9261 H   0  0  0  0  0  0  0  0  0  0  0  0
   12.2864    1.4554   21.6410 H   0  0  0  0  0  0  0  0  0  0  0  0
    7.9325   -6.4148   28.1641 H   0  0  0  0  0  0  0  0  0  0  0  0
    8.0254   -7.0920   26.5333 H   0  0  0  0  0  0  0  0  0  0  0  0
   10.3387   -6.1267   28.2923 H   0  0  0  0  0  0  0  0  0  0  0  0
    9.9904   -7.8023   27.8537 H   0  0  0  0  0  0  0  0  0  0  0  0
   11.7037   -6.0404   26.4771 H   0  0  0  0  0  0  0  0  0  0  0  0
   11.1411   -7.6068   25.8918 H   0  0  0  0  0  0  0  0  0  0  0  0
   10.7782   -5.5162   24.3756 H   0  0  0  0  0  0  0  0  0  0  0  0
    9.4042   -6.6189   24.5807 H   0  0  0  0  0  0  0  0  0  0  0  0
   15.2184    2.3854   22.5619 H   0  0  0  0  0  0  0  0  0  0  0  0
   15.6393    0.7591   23.1982 H   0  0  0  0  0  0  0  0  0  0  0  0
   14.8049    0.9052   21.6306 H   0  0  0  0  0  0  0  0  0  0  0  0
    9.5373    1.2250   24.6262 H   0  0  0  0  0  0  0  0  0  0  0  0
    9.6445    2.2476   23.1928 H   0  0  0  0  0  0  0  0  0  0  0  0
    8.8326   -1.4554   20.3912 H   0  0  0  0  0  0  0  0  0  0  0  0
    7.5604   -1.1971   21.6201 H   0  0  0  0  0  0  0  0  0  0  0  0
  1  2  1  0  0  0  0
  1  3  2  0  0  0  0
  2  4  2  0  0  0  0
  3 12  1  0  0  0  0
  4 13  1  0  0  0  0
  5  7  2  0  0  0  0
  5 14  1  0  0  0  0
  6  8  1  0  0  0  0
  6 14  2  0  0  0  0
  7 15  1  0  0  0  0
  8 15  2  0  0  0  0
  9 11  1  0  0  0  0
  9 25  2  0  0  0  0
 10 11  2  0  0  0  0
 10 28  1  0  0  0  0
 11 23  1  0  0  0  0
 12 13  2  0  0  0  0
 12 26  1  0  0  0  0
 13 29  1  0  0  0  0
 14 30  1  0  0  0  0
 15 31  1  0  0  0  0
 16 18  1  0  0  0  0
 16 30  1  0  0  0  0
 16 32  2  0  0  0  0
 17 24  1  0  0  0  0
 17 31  1  0  0  0  0
 17 33  2  0  0  0  0
 18 19  1  0  0  0  0
 19 20  1  0  0  0  0
 20 21  1  0  0  0  0
 21 30  1  0  0  0  0
 22 28  1  0  0  0  0
 23 31  1  0  0  0  0
 24 29  1  0  0  0  0
 25 28  1  0  0  0  0
 26 27  2  0  0  0  0
 27 29  1  0  0  0  0
  1 34  1  0  0  0  0
  2 35  1  0  0  0  0
  3 36  1  0  0  0  0
  4 37  1  0  0  0  0
  5 38  1  0  0  0  0
  6 39  1  0  0  0  0
  7 40  1  0  0  0  0
  8 41  1  0  0  0  0
  9 42  1  0  0  0  0
 10 43  1  0  0  0  0
 18 44  1  0  0  0  0
 18 45  1  0  0  0  0
 19 46  1  0  0  0  0
 19 47  1  0  0  0  0
 20 48  1  0  0  0  0
 20 49  1  0  0  0  0
 21 50  1  0  0  0  0
 21 51  1  0  0  0  0
 22 52  1  0  0  0  0
 22 53  1  0  0  0  0
 22 54  1  0  0  0  0
 23 55  1  0  0  0  0
 23 56  1  0  0  0  0
 24 57  1  0  0  0  0
 24 58  1  0  0  0  0
M  END
> <clash_score>
0.7790751876189459

> <docking_score>
-8.262791633605957

> <overlap_score>
0.9953587055206299

$$$$
BENZO_361_1
  -OEChem-08232013463D

 57 61  0     0  0  0  0  0  0999 V2000
   14.2741    1.2228   23.9189 C   0  0  0  0  0  0  0  0  0  0  0  0
   13.4986    0.5622   24.8717 C   0  0  0  0  0  0  0  0  0  0  0  0
   13.6581    1.9111   22.8736 C   0  0  0  0  0  0  0  0  0  0  0  0
    3.9160    2.0630   19.5520 C   0  0  0  0  0  0  0  0  0  0  0  0
    4.2750    1.7050   20.8490 C   0  0  0  0  0  0  0  0  0  0  0  0
   12.1071    0.5898   24.7792 C   0  0  0  0  0  0  0  0  0  0  0  0
   12.2666    1.9386   22.7811 C   0  0  0  0  0  0  0  0  0  0  0  0
    4.6890    1.6810   18.4640 C   0  0  0  0  0  0  0  0  0  0  0  0
    5.4210    0.9600   21.0930 C   0  0  0  0  0  0  0  0  0  0  0  0
    8.9960   -2.3380   25.5320 C   0  0  0  0  0  0  0  0  0  0  0  0
    9.6730   -3.4710   23.5300 C   0  0  0  0  0  0  0  0  0  0  0  0
    9.0720   -1.1280   24.8640 C   0  0  0  0  0  0  0  0  0  0  0  0
    9.7200   -2.2600   22.8630 C   0  0  0  0  0  0  0  0  0  0  0  0
   11.4910    1.2780   23.7339 C   0  0  0  0  0  0  0  0  0  0  0  0
    5.8300    0.9190   18.6970 C   0  0  0  0  0  0  0  0  0  0  0  0
    6.1790    0.5730   19.9990 C   0  0  0  0  0  0  0  0  0  0  0  0
    9.3070   -3.5340   24.8780 C   0  0  0  0  0  0  0  0  0  0  0  0
    9.3350   -1.0880   23.5010 C   0  0  0  0  0  0  0  0  0  0  0  0
    9.0420    0.3700   21.5280 C   0  0  0  0  0  0  0  0  0  0  0  0
   10.0771   -5.0255   26.7193 C   0  0  0  0  0  0  0  0  0  0  0  0
    8.0927   -5.6195   25.4071 C   0  0  0  0  0  0  0  0  0  0  0  0
    9.1933   -4.9427   27.9592 C   0  0  0  0  0  0  0  0  0  0  0  0
    7.2756   -5.5290   26.6967 C   0  0  0  0  0  0  0  0  0  0  0  0
    9.9933    1.3078   23.6336 C   0  0  0  0  0  0  0  0  0  0  0  0
    8.1890   -0.7180   20.8700 C   0  0  0  0  0  0  0  0  0  0  0  0
    6.7580    0.3810   17.8350 N   0  0  0  0  0  0  0  0  0  0  0  0
    7.6390   -0.2680   18.5410 N   0  0  0  0  0  0  0  0  0  0  0  0
    7.3170   -0.1610   19.8550 N   0  0  0  0  0  0  0  0  0  0  0  0
    9.2563   -4.7368   25.5413 N   0  0  0  0  0  0  0  0  0  0  0  0
    9.4560    0.1560   22.8130 N   0  0  0  0  0  0  0  0  0  0  0  0
    9.2690    1.4140   20.9380 O   0  0  0  0  0  0  0  0  0  0  0  0
    8.0883   -5.8459   27.8325 O   0  0  0  0  0  0  0  0  0  0  0  0
   15.3576    1.2024   23.9918 H   0  0  0  0  0  0  0  0  0  0  0  0
   13.9781    0.0272   25.6862 H   0  0  0  0  0  0  0  0  0  0  0  0
   14.2615    2.4264   22.1323 H   0  0  0  0  0  0  0  0  0  0  0  0
    3.0136    2.6524   19.3909 H   0  0  0  0  0  0  0  0  0  0  0  0
    3.6477    2.0141   21.6817 H   0  0  0  0  0  0  0  0  0  0  0  0
   11.5109    0.0720   25.5260 H   0  0  0  0  0  0  0  0  0  0  0  0
   11.7953    2.4773   21.9633 H   0  0  0  0  0  0  0  0  0  0  0  0
    4.4042    1.9739   17.4524 H   0  0  0  0  0  0  0  0  0  0  0  0
    5.7107    0.6909   22.1141 H   0  0  0  0  0  0  0  0  0  0  0  0
    8.6905   -2.3533   26.5810 H   0  0  0  0  0  0  0  0  0  0  0  0
    9.9266   -4.3896   22.9917 H   0  0  0  0  0  0  0  0  0  0  0  0
    8.9233   -0.1992   25.4232 H   0  0  0  0  0  0  0  0  0  0  0  0
   10.0650   -2.2330   21.8256 H   0  0  0  0  0  0  0  0  0  0  0  0
   10.8985   -4.3115   26.8085 H   0  0  0  0  0  0  0  0  0  0  0  0
   10.4915   -6.0334   26.6323 H   0  0  0  0  0  0  0  0  0  0  0  0
    8.4327   -6.6456   25.2620 H   0  0  0  0  0  0  0  0  0  0  0  0
    7.4725   -5.3241   24.5619 H   0  0  0  0  0  0  0  0  0  0  0  0
    9.7636   -5.2398   28.8419 H   0  0  0  0  0  0  0  0  0  0  0  0
    8.8236   -3.9268   28.1248 H   0  0  0  0  0  0  0  0  0  0  0  0
    6.8339   -4.5337   26.8232 H   0  0  0  0  0  0  0  0  0  0  0  0
    6.4550   -6.2521   26.6643 H   0  0  0  0  0  0  0  0  0  0  0  0
    9.5381    1.2265   24.6268 H   0  0  0  0  0  0  0  0  0  0  0  0
    9.6476    2.2491   23.1936 H   0  0  0  0  0  0  0  0  0  0  0  0
    8.8326   -1.4554   20.3912 H   0  0  0  0  0  0  0  0  0  0  0  0
    7.5604   -1.1971   21.6201 H   0  0  0  0  0  0  0  0  0  0  0  0
  1  2  1  0  0  0  0
  1  3  2  0  0  0  0
  2  6  2  0  0  0  0
  3  7  1  0  0  0  0
  4  5  1  0  0  0  0
  4  8  2  0  0  0  0
  5  9  2  0  0  0  0
  6 14  1  0  0  0  0
  7 14  2  0  0  0  0
  8 15  1  0  0  0  0
  9 16  1  0  0  0  0
 10 12  2  0  0  0  0
 10 17  1  0  0  0  0
 11 13  1  0  0  0  0
 11 17  2  0  0  0  0
 12 18  1  0  0  0  0
 13 18  2  0  0  0  0
 14 24  1  0  0  0  0
 15 16  2  0  0  0  0
 15 26  1  0  0  0  0
 16 28  1  0  0  0  0
 17 29  1  0  0  0  0
 18 30  1  0  0  0  0
 19 25  1  0  0  0  0
 19 30  1  0  0  0  0
 19 31  2  0  0  0  0
 20 22  1  0  0  0  0
 20 29  1  0  0  0  0
 21 23  1  0  0  0  0
 21 29  1  0  0  0  0
 22 32  1  0  0  0  0
 23 32  1  0  0  0  0
 24 30  1  0  0  0  0
 25 28  1  0  0  0  0
 26 27  2  0  0  0  0
 27 28  1  0  0  0  0
  1 33  1  0  0  0  0
  2 34  1  0  0  0  0
  3 35  1  0  0  0  0
  4 36  1  0  0  0  0
  5 37  1  0  0  0  0
  6 38  1  0  0  0  0
  7 39  1  0  0  0  0
  8 40  1  0  0  0  0
  9 41  1  0  0  0  0
 10 42  1  0  0  0  0
 11 43  1  0  0  0  0
 12 44  1  0  0  0  0
 13 45  1  0  0  0  0
 20 46  1  0  0  0  0
 20 47  1  0  0  0  0
 21 48  1  0  0  0  0
 21 49  1  0  0  0  0
 22 50  1  0  0  0  0
 22 51  1  0  0  0  0
 23 52  1  0  0  0  0
 23 53  1  0  0  0  0
 24 54  1  0  0  0  0
 24 55  1  0  0  0  0
 25 56  1  0  0  0  0
 25 57  1  0  0  0  0
M  END
> <clash_score>
0

> <docking_score>
-9.496529579162598

> <overlap_score>
0.9880815744400024

$$$$
BENZO_358_1
  -OEChem-08232013463D

 58 62  0     0  0  0  0  0  0999 V2000
    3.9160    2.0630   19.5520 C   0  0  0  0  0  0  0  0  0  0  0  0
    4.2750    1.7050   20.8490 C   0  0  0  0  0  0  0  0  0  0  0  0
   13.6451    2.1770   23.1041 C   0  0  0  0  0  0  0  0  0  0  0  0
   12.2537    2.1980   23.0089 C   0  0  0  0  0  0  0  0  0  0  0  0
    4.6890    1.6810   18.4640 C   0  0  0  0  0  0  0  0  0  0  0  0
    5.4210    0.9600   21.0930 C   0  0  0  0  0  0  0  0  0  0  0  0
    8.9960   -2.3380   25.5320 C   0  0  0  0  0  0  0  0  0  0  0  0
    9.6730   -3.4710   23.5300 C   0  0  0  0  0  0  0  0  0  0  0  0
    9.0720   -1.1280   24.8640 C   0  0  0  0  0  0  0  0  0  0  0  0
    9.7200   -2.2600   22.8630 C   0  0  0  0  0  0  0  0  0  0  0  0
   14.2739    1.2418   23.9262 C   0  0  0  0  0  0  0  0  0  0  0  0
   12.1198    0.3487   24.5578 C   0  0  0  0  0  0  0  0  0  0  0  0
   11.4910    1.2839   23.7357 C   0  0  0  0  0  0  0  0  0  0  0  0
    5.8300    0.9190   18.6970 C   0  0  0  0  0  0  0  0  0  0  0  0
    6.1790    0.5730   19.9990 C   0  0  0  0  0  0  0  0  0  0  0  0
    9.3070   -3.5340   24.8780 C   0  0  0  0  0  0  0  0  0  0  0  0
    9.3350   -1.0880   23.5010 C   0  0  0  0  0  0  0  0  0  0  0  0
   13.5112    0.3277   24.6530 C   0  0  0  0  0  0  0  0  0  0  0  0
    8.3597   -5.0073   26.6307 C   0  0  0  0  0  0  0  0  0  0  0  0
    9.0420    0.3700   21.5280 C   0  0  0  0  0  0  0  0  0  0  0  0
    8.4720   -6.3981   27.2296 C   0  0  0  0  0  0  0  0  0  0  0  0
    9.9252   -6.7605   27.4803 C   0  0  0  0  0  0  0  0  0  0  0  0
   10.7833   -6.6094   26.2282 C   0  0  0  0  0  0  0  0  0  0  0  0
   10.0539   -5.9099   25.0823 C   0  0  0  0  0  0  0  0  0  0  0  0
    9.9933    1.3078   23.6337 C   0  0  0  0  0  0  0  0  0  0  0  0
    8.1890   -0.7180   20.8700 C   0  0  0  0  0  0  0  0  0  0  0  0
    6.7580    0.3810   17.8350 N   0  0  0  0  0  0  0  0  0  0  0  0
    7.6390   -0.2680   18.5410 N   0  0  0  0  0  0  0  0  0  0  0  0
    7.3170   -0.1610   19.8550 N   0  0  0  0  0  0  0  0  0  0  0  0
    9.2529   -4.7797   25.5644 N   0  0  0  0  0  0  0  0  0  0  0  0
    9.4560    0.1560   22.8130 N   0  0  0  0  0  0  0  0  0  0  0  0
    7.4954   -4.2356   27.0449 O   0  0  0  0  0  0  0  0  0  0  0  0
    9.2690    1.4140   20.9380 O   0  0  0  0  0  0  0  0  0  0  0  0
   14.2875   -0.8251   25.6680 Cl  0  0  0  0  0  0  0  0  0  0  0  0
    3.0136    2.6524   19.3909 H   0  0  0  0  0  0  0  0  0  0  0  0
    3.6477    2.0141   21.6817 H   0  0  0  0  0  0  0  0  0  0  0  0
   14.2387    2.8891   22.5380 H   0  0  0  0  0  0  0  0  0  0  0  0
   11.7722    2.9302   22.3659 H   0  0  0  0  0  0  0  0  0  0  0  0
    4.4041    1.9739   17.4524 H   0  0  0  0  0  0  0  0  0  0  0  0
    5.7107    0.6909   22.1141 H   0  0  0  0  0  0  0  0  0  0  0  0
    8.6895   -2.3529   26.5807 H   0  0  0  0  0  0  0  0  0  0  0  0
    9.9262   -4.3897   22.9916 H   0  0  0  0  0  0  0  0  0  0  0  0
    8.9224   -0.1998   25.4238 H   0  0  0  0  0  0  0  0  0  0  0  0
   10.0649   -2.2343   21.8258 H   0  0  0  0  0  0  0  0  0  0  0  0
   15.3592    1.2373   23.9909 H   0  0  0  0  0  0  0  0  0  0  0  0
   11.5207   -0.3623   25.1221 H   0  0  0  0  0  0  0  0  0  0  0  0
    7.9325   -6.4148   28.1641 H   0  0  0  0  0  0  0  0  0  0  0  0
    8.0254   -7.0920   26.5333 H   0  0  0  0  0  0  0  0  0  0  0  0
   10.3387   -6.1267   28.2923 H   0  0  0  0  0  0  0  0  0  0  0  0
    9.9904   -7.8023   27.8537 H   0  0  0  0  0  0  0  0  0  0  0  0
   11.7037   -6.0404   26.4771 H   0  0  0  0  0  0  0  0  0  0  0  0
   11.1411   -7.6068   25.8918 H   0  0  0  0  0  0  0  0  0  0  0  0
   10.7782   -5.5162   24.3756 H   0  0  0  0  0  0  0  0  0  0  0  0
    9.4042   -6.6189   24.5807 H   0  0  0  0  0  0  0  0  0  0  0  0
    9.5373    1.2250   24.6262 H   0  0  0  0  0  0  0  0  0  0  0  0
    9.6445    2.2476   23.1928 H   0  0  0  0  0  0  0  0  0  0  0  0
    8.8326   -1.4554   20.3912 H   0  0  0  0  0  0  0  0  0  0  0  0
    7.5604   -1.1971   21.6201 H   0  0  0  0  0  0  0  0  0  0  0  0
  1  2  1  0  0  0  0
  1  5  2  0  0  0  0
  2  6  2  0  0  0  0
  3  4  2  0  0  0  0
  3 11  1  0  0  0  0
  4 13  1  0  0  0  0
  5 14  1  0  0  0  0
  6 15  1  0  0  0  0
  7  9  2  0  0  0  0
  7 16  1  0  0  0  0
  8 10  1  0  0  0  0
  8 16  2  0  0  0  0
  9 17  1  0  0  0  0
 10 17  2  0  0  0  0
 11 18  2  0  0  0  0
 12 13  2  0  0  0  0
 12 18  1  0  0  0  0
 13 25  1  0  0  0  0
 14 15  2  0  0  0  0
 14 27  1  0  0  0  0
 15 29  1  0  0  0  0
 16 30  1  0  0  0  0
 17 31  1  0  0  0  0
 18 34  1  0  0  0  0
 19 21  1  0  0  0  0
 19 30  1  0  0  0  0
 19 32  2  0  0  0  0
 20 26  1  0  0  0  0
 20 31  1  0  0  0  0
 20 33  2  0  0  0  0
 21 22  1  0  0  0  0
 22 23  1  0  0  0  0
 23 24  1  0  0  0  0
 24 30  1  0  0  0  0
 25 31  1  0  0  0  0
 26 29  1  0  0  0  0
 27 28  2  0  0  0  0
 28 29  1  0  0  0  0
  1 35  1  0  0  0  0
  2 36  1  0  0  0  0
  3 37  1  0  0  0  0
  4 38  1  0  0  0  0
  5 39  1  0  0  0  0
  6 40  1  0  0  0  0
  7 41  1  0  0  0  0
  8 42  1  0  0  0  0
  9 43  1  0  0  0  0
 10 44  1  0  0  0  0
 11 45  1  0  0  0  0
 12 46  1  0  0  0  0
 21 47  1  0  0  0  0
 21 48  1  0  0  0  0
 22 49  1  0  0  0  0
 22 50  1  0  0  0  0
 23 51  1  0  0  0  0
 23 52  1  0  0  0  0
 24 53  1  0  0  0  0
 24 54  1  0  0  0  0
 25 55  1  0  0  0  0
 25 56  1  0  0  0  0
 26 57  1  0  0  0  0
 26 58  1  0  0  0  0
M  END
> <clash_score>
1.4367518133274908

> <docking_score>
-7.321369171142578

> <overlap_score>
1.0055636167526245

$$$$
BENZO_360_1
  -OEChem-08232013463D

 54 58  0     0  0  0  0  0  0999 V2000
    3.9160    2.0630   19.5520 C   0  0  0  0  0  0  0  0  0  0  0  0
    4.2750    1.7050   20.8490 C   0  0  0  0  0  0  0  0  0  0  0  0
    4.6890    1.6810   18.4640 C   0  0  0  0  0  0  0  0  0  0  0  0
    5.4210    0.9600   21.0930 C   0  0  0  0  0  0  0  0  0  0  0  0
    8.9960   -2.3380   25.5320 C   0  0  0  0  0  0  0  0  0  0  0  0
    9.6730   -3.4710   23.5300 C   0  0  0  0  0  0  0  0  0  0  0  0
    9.0720   -1.1280   24.8640 C   0  0  0  0  0  0  0  0  0  0  0  0
    9.7200   -2.2600   22.8630 C   0  0  0  0  0  0  0  0  0  0  0  0
   12.3002    2.4402   23.8911 C   0  0  0  0  0  0  0  0  0  0  0  0
   13.6413    2.1322   23.9556 C   0  0  0  0  0  0  0  0  0  0  0  0
   12.2447    0.1258   23.6841 C   0  0  0  0  0  0  0  0  0  0  0  0
   11.4910    1.2780   23.7339 C   0  0  0  0  0  0  0  0  0  0  0  0
    5.8300    0.9190   18.6970 C   0  0  0  0  0  0  0  0  0  0  0  0
    6.1790    0.5730   19.9990 C   0  0  0  0  0  0  0  0  0  0  0  0
    9.3070   -3.5340   24.8780 C   0  0  0  0  0  0  0  0  0  0  0  0
    9.3350   -1.0880   23.5010 C   0  0  0  0  0  0  0  0  0  0  0  0
    9.0420    0.3700   21.5280 C   0  0  0  0  0  0  0  0  0  0  0  0
   10.0771   -5.0255   26.7193 C   0  0  0  0  0  0  0  0  0  0  0  0
    8.0927   -5.6195   25.4071 C   0  0  0  0  0  0  0  0  0  0  0  0
    9.1933   -4.9427   27.9592 C   0  0  0  0  0  0  0  0  0  0  0  0
    7.2756   -5.5290   26.6967 C   0  0  0  0  0  0  0  0  0  0  0  0
    9.9933    1.3078   23.6336 C   0  0  0  0  0  0  0  0  0  0  0  0
    8.1890   -0.7180   20.8700 C   0  0  0  0  0  0  0  0  0  0  0  0
    6.7580    0.3810   17.8350 N   0  0  0  0  0  0  0  0  0  0  0  0
    7.6390   -0.2680   18.5410 N   0  0  0  0  0  0  0  0  0  0  0  0
    7.3170   -0.1610   19.8550 N   0  0  0  0  0  0  0  0  0  0  0  0
    9.2563   -4.7368   25.5413 N   0  0  0  0  0  0  0  0  0  0  0  0
    9.4560    0.1560   22.8130 N   0  0  0  0  0  0  0  0  0  0  0  0
    9.2690    1.4140   20.9380 O   0  0  0  0  0  0  0  0  0  0  0  0
    8.0883   -5.8459   27.8325 O   0  0  0  0  0  0  0  0  0  0  0  0
   13.9205    0.4476   23.8267 S   0  0  0  0  0  0  0  0  0  0  0  0
    3.0136    2.6524   19.3909 H   0  0  0  0  0  0  0  0  0  0  0  0
    3.6477    2.0141   21.6817 H   0  0  0  0  0  0  0  0  0  0  0  0
    4.4042    1.9739   17.4524 H   0  0  0  0  0  0  0  0  0  0  0  0
    5.7107    0.6909   22.1141 H   0  0  0  0  0  0  0  0  0  0  0  0
    8.6905   -2.3533   26.5810 H   0  0  0  0  0  0  0  0  0  0  0  0
    9.9266   -4.3896   22.9917 H   0  0  0  0  0  0  0  0  0  0  0  0
    8.9233   -0.1992   25.4232 H   0  0  0  0  0  0  0  0  0  0  0  0
   10.0650   -2.2330   21.8256 H   0  0  0  0  0  0  0  0  0  0  0  0
   11.9219    3.4528   23.9537 H   0  0  0  0  0  0  0  0  0  0  0  0
   14.4705    2.8157   24.0715 H   0  0  0  0  0  0  0  0  0  0  0  0
   11.8955   -0.8911   23.5696 H   0  0  0  0  0  0  0  0  0  0  0  0
   10.8985   -4.3115   26.8085 H   0  0  0  0  0  0  0  0  0  0  0  0
   10.4915   -6.0334   26.6323 H   0  0  0  0  0  0  0  0  0  0  0  0
    8.4327   -6.6456   25.2620 H   0  0  0  0  0  0  0  0  0  0  0  0
    7.4725   -5.3241   24.5619 H   0  0  0  0  0  0  0  0  0  0  0  0
    9.7636   -5.2398   28.8419 H   0  0  0  0  0  0  0  0  0  0  0  0
    8.8236   -3.9268   28.1248 H   0  0  0  0  0  0  0  0  0  0  0  0
    6.8339   -4.5337   26.8232 H   0  0  0  0  0  0  0  0  0  0  0  0
    6.4550   -6.2521   26.6643 H   0  0  0  0  0  0  0  0  0  0  0  0
    9.5381    1.2265   24.6268 H   0  0  0  0  0  0  0  0  0  0  0  0
    9.6476    2.2491   23.1936 H   0  0  0  0  0  0  0  0  0  0  0  0
    8.8326   -1.4554   20.3912 H   0  0  0  0  0  0  0  0  0  0  0  0
    7.5604   -1.1971   21.6201 H   0  0  0  0  0  0  0  0  0  0  0  0
  1  2  1  0  0  0  0
  1  3  2  0  0  0  0
  2  4  2  0  0  0  0
  3 13  1  0  0  0  0
  4 14  1  0  0  0  0
  5  7  2  0  0  0  0
  5 15  1  0  0  0  0
  6  8  1  0  0  0  0
  6 15  2  0  0  0  0
  7 16  1  0  0  0  0
  8 16  2  0  0  0  0
  9 10  2  0  0  0  0
  9 12  1  0  0  0  0
 10 31  1  0  0  0  0
 11 12  2  0  0  0  0
 11 31  1  0  0  0  0
 12 22  1  0  0  0  0
 13 14  2  0  0  0  0
 13 24  1  0  0  0  0
 14 26  1  0  0  0  0
 15 27  1  0  0  0  0
 16 28  1  0  0  0  0
 17 23  1  0  0  0  0
 17 28  1  0  0  0  0
 17 29  2  0  0  0  0
 18 20  1  0  0  0  0
 18 27  1  0  0  0  0
 19 21  1  0  0  0  0
 19 27  1  0  0  0  0
 20 30  1  0  0  0  0
 21 30  1  0  0  0  0
 22 28  1  0  0  0  0
 23 26  1  0  0  0  0
 24 25  2  0  0  0  0
 25 26  1  0  0  0  0
  1 32  1  0  0  0  0
  2 33  1  0  0  0  0
  3 34  1  0  0  0  0
  4 35  1  0  0  0  0
  5 36  1  0  0  0  0
  6 37  1  0  0  0  0
  7 38  1  0  0  0  0
  8 39  1  0  0  0  0
  9 40  1  0  0  0  0
 10 41  1  0  0  0  0
 11 42  1  0  0  0  0
 18 43  1  0  0  0  0
 18 44  1  0  0  0  0
 19 45  1  0  0  0  0
 19 46  1  0  0  0  0
 20 47  1  0  0  0  0
 20 48  1  0  0  0  0
 21 49  1  0  0  0  0
 21 50  1  0  0  0  0
 22 51  1  0  0  0  0
 22 52  1  0  0  0  0
 23 53  1  0  0  0  0
 23 54  1  0  0  0  0
M  END
> <clash_score>
0

> <docking_score>
-8.454792022705078

> <overlap_score>
0.9735226035118103

$$$$
BENZO_362_1
  -OEChem-08232013463D

 57 61  0     0  0  0  0  0  0999 V2000
    3.9160    2.0630   19.5520 C   0  0  0  0  0  0  0  0  0  0  0  0
    4.2750    1.7050   20.8490 C   0  0  0  0  0  0  0  0  0  0  0  0
   13.6478    2.1629   23.1000 C   0  0  0  0  0  0  0  0  0  0  0  0
   12.2564    2.1894   23.0065 C   0  0  0  0  0  0  0  0  0  0  0  0
    4.6890    1.6810   18.4640 C   0  0  0  0  0  0  0  0  0  0  0  0
    5.4210    0.9600   21.0930 C   0  0  0  0  0  0  0  0  0  0  0  0
    8.9960   -2.3380   25.5320 C   0  0  0  0  0  0  0  0  0  0  0  0
    9.6730   -3.4710   23.5300 C   0  0  0  0  0  0  0  0  0  0  0  0
    9.0720   -1.1280   24.8640 C   0  0  0  0  0  0  0  0  0  0  0  0
    9.7200   -2.2600   22.8630 C   0  0  0  0  0  0  0  0  0  0  0  0
   14.2740    1.2250   23.9210 C   0  0  0  0  0  0  0  0  0  0  0  0
   12.1171    0.3401   24.5550 C   0  0  0  0  0  0  0  0  0  0  0  0
   11.4910    1.2780   23.7339 C   0  0  0  0  0  0  0  0  0  0  0  0
    5.8300    0.9190   18.6970 C   0  0  0  0  0  0  0  0  0  0  0  0
    6.1790    0.5730   19.9990 C   0  0  0  0  0  0  0  0  0  0  0  0
    9.3070   -3.5340   24.8780 C   0  0  0  0  0  0  0  0  0  0  0  0
    9.3350   -1.0880   23.5010 C   0  0  0  0  0  0  0  0  0  0  0  0
   13.5086    0.3136   24.6485 C   0  0  0  0  0  0  0  0  0  0  0  0
    9.0420    0.3700   21.5280 C   0  0  0  0  0  0  0  0  0  0  0  0
   10.0771   -5.0255   26.7193 C   0  0  0  0  0  0  0  0  0  0  0  0
    8.0927   -5.6195   25.4071 C   0  0  0  0  0  0  0  0  0  0  0  0
    9.1933   -4.9427   27.9592 C   0  0  0  0  0  0  0  0  0  0  0  0
    7.2756   -5.5290   26.6967 C   0  0  0  0  0  0  0  0  0  0  0  0
    9.9933    1.3078   23.6336 C   0  0  0  0  0  0  0  0  0  0  0  0
    8.1890   -0.7180   20.8700 C   0  0  0  0  0  0  0  0  0  0  0  0
    6.7580    0.3810   17.8350 N   0  0  0  0  0  0  0  0  0  0  0  0
    7.6390   -0.2680   18.5410 N   0  0  0  0  0  0  0  0  0  0  0  0
    7.3170   -0.1610   19.8550 N   0  0  0  0  0  0  0  0  0  0  0  0
    9.2563   -4.7368   25.5413 N   0  0  0  0  0  0  0  0  0  0  0  0
    9.4560    0.1560   22.8130 N   0  0  0  0  0  0  0  0  0  0  0  0
    9.2690    1.4140   20.9380 O   0  0  0  0  0  0  0  0  0  0  0  0
    8.0883   -5.8459   27.8325 O   0  0  0  0  0  0  0  0  0  0  0  0
   14.2816   -0.8425   25.6621 Cl  0  0  0  0  0  0  0  0  0  0  0  0
    3.0136    2.6524   19.3909 H   0  0  0  0  0  0  0  0  0  0  0  0
    3.6477    2.0141   21.6817 H   0  0  0  0  0  0  0  0  0  0  0  0
   14.2435    2.8729   22.5335 H   0  0  0  0  0  0  0  0  0  0  0  0
   11.7770    2.9237   22.3644 H   0  0  0  0  0  0  0  0  0  0  0  0
    4.4042    1.9739   17.4524 H   0  0  0  0  0  0  0  0  0  0  0  0
    5.7107    0.6909   22.1141 H   0  0  0  0  0  0  0  0  0  0  0  0
    8.6905   -2.3533   26.5810 H   0  0  0  0  0  0  0  0  0  0  0  0
    9.9266   -4.3896   22.9917 H   0  0  0  0  0  0  0  0  0  0  0  0
    8.9233   -0.1992   25.4232 H   0  0  0  0  0  0  0  0  0  0  0  0
   10.0650   -2.2330   21.8256 H   0  0  0  0  0  0  0  0  0  0  0  0
   15.3593    1.2162   23.9844 H   0  0  0  0  0  0  0  0  0  0  0  0
   11.5159   -0.3687   25.1197 H   0  0  0  0  0  0  0  0  0  0  0  0
   10.8985   -4.3115   26.8085 H   0  0  0  0  0  0  0  0  0  0  0  0
   10.4915   -6.0334   26.6323 H   0  0  0  0  0  0  0  0  0  0  0  0
    8.4327   -6.6456   25.2620 H   0  0  0  0  0  0  0  0  0  0  0  0
    7.4725   -5.3241   24.5619 H   0  0  0  0  0  0  0  0  0  0  0  0
    9.7636   -5.2398   28.8419 H   0  0  0  0  0  0  0  0  0  0  0  0
    8.8236   -3.9268   28.1248 H   0  0  0  0  0  0  0  0  0  0  0  0
    6.8339   -4.5337   26.8232 H   0  0  0  0  0  0  0  0  0  0  0  0
    6.4550   -6.2521   26.6643 H   0  0  0  0  0  0  0  0  0  0  0  0
    9.5381    1.2265   24.6268 H   0  0  0  0  0  0  0  0  0  0  0  0
    9.6476    2.2491   23.1936 H   0  0  0  0  0  0  0  0  0  0  0  0
    8.8326   -1.4554   20.3912 H   0  0  0  0  0  0  0  0  0  0  0  0
    7.5604   -1.1971   21.6201 H   0  0  0  0  0  0  0  0  0  0  0  0
  1  2  1  0  0  0  0
  1  5  2  0  0  0  0
  2  6  2  0  0  0  0
  3  4  2  0  0  0  0
  3 11  1  0  0  0  0
  4 13  1  0  0  0  0
  5 14  1  0  0  0  0
  6 15  1  0  0  0  0
  7  9  2  0  0  0  0
  7 16  1  0  0  0  0
  8 10  1  0  0  0  0
  8 16  2  0  0  0  0
  9 17  1  0  0  0  0
 10 17  2  0  0  0  0
 11 18  2  0  0  0  0
 12 13  2  0  0  0  0
 12 18  1  0  0  0  0
 13 24  1  0  0  0  0
 14 15  2  0  0  0  0
 14 26  1  0  0  0  0
 15 28  1  0  0  0  0
 16 29  1  0  0  0  0
 17 30  1  0  0  0  0
 18 33  1  0  0  0  0
 19 25  1  0  0  0  0
 19 30  1  0  0  0  0
 19 31  2  0  0  0  0
 20 22  1  0  0  0  0
 20 29  1  0  0  0  0
 21 23  1  0  0  0  0
 21 29  1  0  0  0  0
 22 32  1  0  0  0  0
 23 32  1  0  0  0  0
 24 30  1  0  0  0  0
 25 28  1  0  0  0  0
 26 27  2  0  0  0  0
 27 28  1  0  0  0  0
  1 34  1  0  0  0  0
  2 35  1  0  0  0  0
  3 36  1  0  0  0  0
  4 37  1  0  0  0  0
  5 38  1  0  0  0  0
  6 39  1  0  0  0  0
  7 40  1  0  0  0  0
  8 41  1  0  0  0  0
  9 42  1  0  0  0  0
 10 43  1  0  0  0  0
 11 44  1  0  0  0  0
 12 45  1  0  0  0  0
 20 46  1  0  0  0  0
 20 47  1  0  0  0  0
 21 48  1  0  0  0  0
 21 49  1  0  0  0  0
 22 50  1  0  0  0  0
 22 51  1  0  0  0  0
 23 52  1  0  0  0  0
 23 53  1  0  0  0  0
 24 54  1  0  0  0  0
 24 55  1  0  0  0  0
 25 56  1  0  0  0  0
 25 57  1  0  0  0  0
M  END
> <clash_score>
0.6631332256877756

> <docking_score>
-8.313140869140625

> <overlap_score>
0.9917993545532227

$$$$
BENZO_365_1
  -OEChem-08232013463D

 53 56  0     0  0  0  0  0  0999 V2000
   14.2757    1.2195   23.9089 C   0  0  0  0  0  0  0  0  0  0  0  0
   13.5099    0.5331   24.8512 C   0  0  0  0  0  0  0  0  0  0  0  0
   13.6494    1.9272   22.8829 C   0  0  0  0  0  0  0  0  0  0  0  0
    3.9160    2.0630   19.5520 C   0  0  0  0  0  0  0  0  0  0  0  0
    4.2750    1.7050   20.8490 C   0  0  0  0  0  0  0  0  0  0  0  0
   12.1177    0.5544   24.7676 C   0  0  0  0  0  0  0  0  0  0  0  0
   12.2572    1.9484   22.7993 C   0  0  0  0  0  0  0  0  0  0  0  0
    4.6890    1.6810   18.4640 C   0  0  0  0  0  0  0  0  0  0  0  0
    5.4210    0.9600   21.0930 C   0  0  0  0  0  0  0  0  0  0  0  0
    9.0720   -1.1280   24.8640 C   0  0  0  0  0  0  0  0  0  0  0  0
    9.7200   -2.2600   22.8630 C   0  0  0  0  0  0  0  0  0  0  0  0
    8.9960   -2.3380   25.5320 C   0  0  0  0  0  0  0  0  0  0  0  0
    9.6730   -3.4710   23.5300 C   0  0  0  0  0  0  0  0  0  0  0  0
    7.6390   -0.2680   18.5410 C   0  0  0  0  0  0  0  0  0  0  0  0
   11.4913    1.2620   23.7417 C   0  0  0  0  0  0  0  0  0  0  0  0
    5.8300    0.9190   18.6970 C   0  0  0  0  0  0  0  0  0  0  0  0
    6.1790    0.5730   19.9990 C   0  0  0  0  0  0  0  0  0  0  0  0
    9.3350   -1.0880   23.5010 C   0  0  0  0  0  0  0  0  0  0  0  0
    9.3070   -3.5340   24.8780 C   0  0  0  0  0  0  0  0  0  0  0  0
    9.0420    0.3700   21.5280 C   0  0  0  0  0  0  0  0  0  0  0  0
    8.0128   -5.2151   26.1416 C   0  0  0  0  0  0  0  0  0  0  0  0
   10.4372   -5.5860   25.6589 C   0  0  0  0  0  0  0  0  0  0  0  0
    9.9928    1.2851   23.6509 C   0  0  0  0  0  0  0  0  0  0  0  0
    8.1890   -0.7180   20.8700 C   0  0  0  0  0  0  0  0  0  0  0  0
    6.7580    0.3810   17.8350 N   0  0  0  0  0  0  0  0  0  0  0  0
    7.3170   -0.1610   19.8550 N   0  0  0  0  0  0  0  0  0  0  0  0
    9.4560    0.1560   22.8130 N   0  0  0  0  0  0  0  0  0  0  0  0
    9.2543   -4.7552   25.5519 N   0  0  0  0  0  0  0  0  0  0  0  0
    9.2690    1.4140   20.9380 O   0  0  0  0  0  0  0  0  0  0  0  0
   15.3597    1.2039   23.9749 H   0  0  0  0  0  0  0  0  0  0  0  0
   13.9974   -0.0171   25.6508 H   0  0  0  0  0  0  0  0  0  0  0  0
   14.2453    2.4626   22.1497 H   0  0  0  0  0  0  0  0  0  0  0  0
    3.0133    2.6526   19.3911 H   0  0  0  0  0  0  0  0  0  0  0  0
    3.6478    2.0143   21.6818 H   0  0  0  0  0  0  0  0  0  0  0  0
   11.5291    0.0165   25.5062 H   0  0  0  0  0  0  0  0  0  0  0  0
   11.7778    2.5024   21.9965 H   0  0  0  0  0  0  0  0  0  0  0  0
    4.4036    1.9735   17.4543 H   0  0  0  0  0  0  0  0  0  0  0  0
    5.7089    0.6922   22.1131 H   0  0  0  0  0  0  0  0  0  0  0  0
    8.9217   -0.1995   25.4232 H   0  0  0  0  0  0  0  0  0  0  0  0
   10.0643   -2.2341   21.8254 H   0  0  0  0  0  0  0  0  0  0  0  0
    8.6893   -2.3540   26.5808 H   0  0  0  0  0  0  0  0  0  0  0  0
    9.9257   -4.3898   22.9921 H   0  0  0  0  0  0  0  0  0  0  0  0
    8.4865   -0.8061   18.1803 H   0  0  0  0  0  0  0  0  0  0  0  0
    8.1744   -6.1904   26.6238 H   0  0  0  0  0  0  0  0  0  0  0  0
    7.6718   -4.4870   26.8924 H   0  0  0  0  0  0  0  0  0  0  0  0
    7.2494   -5.3166   25.3561 H   0  0  0  0  0  0  0  0  0  0  0  0
   10.1946   -6.4995   26.2216 H   0  0  0  0  0  0  0  0  0  0  0  0
   10.7865   -5.8578   24.6518 H   0  0  0  0  0  0  0  0  0  0  0  0
   11.2285   -5.0312   26.1842 H   0  0  0  0  0  0  0  0  0  0  0  0
    9.5445    1.2076   24.6474 H   0  0  0  0  0  0  0  0  0  0  0  0
    9.6404    2.2225   23.2078 H   0  0  0  0  0  0  0  0  0  0  0  0
    8.8262   -1.4533   20.3842 H   0  0  0  0  0  0  0  0  0  0  0  0
    7.5540   -1.1950   21.6130 H   0  0  0  0  0  0  0  0  0  0  0  0
  1  2  1  0  0  0  0
  1  3  2  0  0  0  0
  2  6  2  0  0  0  0
  3  7  1  0  0  0  0
  4  5  1  0  0  0  0
  4  8  2  0  0  0  0
  5  9  2  0  0  0  0
  6 15  1  0  0  0  0
  7 15  2  0  0  0  0
  8 16  1  0  0  0  0
  9 17  1  0  0  0  0
 10 12  2  0  0  0  0
 10 18  1  0  0  0  0
 11 13  1  0  0  0  0
 11 18  2  0  0  0  0
 12 19  1  0  0  0  0
 13 19  2  0  0  0  0
 14 25  2  0  0  0  0
 14 26  1  0  0  0  0
 15 23  1  0  0  0  0
 16 17  2  0  0  0  0
 16 25  1  0  0  0  0
 17 26  1  0  0  0  0
 18 27  1  0  0  0  0
 19 28  1  0  0  0  0
 20 24  1  0  0  0  0
 20 27  1  0  0  0  0
 20 29  2  0  0  0  0
 21 28  1  0  0  0  0
 22 28  1  0  0  0  0
 23 27  1  0  0  0  0
 24 26  1  0  0  0  0
  1 30  1  0  0  0  0
  2 31  1  0  0  0  0
  3 32  1  0  0  0  0
  4 33  1  0  0  0  0
  5 34  1  0  0  0  0
  6 35  1  0  0  0  0
  7 36  1  0  0  0  0
  8 37  1  0  0  0  0
  9 38  1  0  0  0  0
 10 39  1  0  0  0  0
 11 40  1  0  0  0  0
 12 41  1  0  0  0  0
 13 42  1  0  0  0  0
 14 43  1  0  0  0  0
 21 44  1  0  0  0  0
 21 45  1  0  0  0  0
 21 46  1  0  0  0  0
 22 47  1  0  0  0  0
 22 48  1  0  0  0  0
 22 49  1  0  0  0  0
 23 50  1  0  0  0  0
 23 51  1  0  0  0  0
 24 52  1  0  0  0  0
 24 53  1  0  0  0  0
M  END
> <clash_score>
0

> <docking_score>
-10.352197647094727

> <overlap_score>
0.9760582447052002

$$$$
BENZO_363_1
  -OEChem-08232013463D

 57 61  0     0  0  0  0  0  0999 V2000
    3.9160    2.0630   19.5520 C   0  0  0  0  0  0  0  0  0  0  0  0
    4.2750    1.7050   20.8490 C   0  0  0  0  0  0  0  0  0  0  0  0
    4.6890    1.6810   18.4640 C   0  0  0  0  0  0  0  0  0  0  0  0
    5.4210    0.9600   21.0930 C   0  0  0  0  0  0  0  0  0  0  0  0
    8.9960   -2.3380   25.5320 C   0  0  0  0  0  0  0  0  0  0  0  0
    9.6730   -3.4710   23.5300 C   0  0  0  0  0  0  0  0  0  0  0  0
    9.0720   -1.1280   24.8640 C   0  0  0  0  0  0  0  0  0  0  0  0
    9.7200   -2.2600   22.8630 C   0  0  0  0  0  0  0  0  0  0  0  0
   12.2768    1.1643   24.8964 C   0  0  0  0  0  0  0  0  0  0  0  0
   12.4026    1.3530   22.7093 C   0  0  0  0  0  0  0  0  0  0  0  0
   11.4910    1.2780   23.7339 C   0  0  0  0  0  0  0  0  0  0  0  0
    5.8300    0.9190   18.6970 C   0  0  0  0  0  0  0  0  0  0  0  0
    6.1790    0.5730   19.9990 C   0  0  0  0  0  0  0  0  0  0  0  0
    9.3070   -3.5340   24.8780 C   0  0  0  0  0  0  0  0  0  0  0  0
    9.3350   -1.0880   23.5010 C   0  0  0  0  0  0  0  0  0  0  0  0
    9.0420    0.3700   21.5280 C   0  0  0  0  0  0  0  0  0  0  0  0
    9.5175   -4.8597   26.9771 C   0  0  0  0  0  0  0  0  0  0  0  0
    8.5165   -5.8725   24.9808 C   0  0  0  0  0  0  0  0  0  0  0  0
    8.1868   -5.0439   27.6987 C   0  0  0  0  0  0  0  0  0  0  0  0
    7.2200   -6.0347   25.7755 C   0  0  0  0  0  0  0  0  0  0  0  0
   14.9066    1.3206   22.6231 C   0  0  0  0  0  0  0  0  0  0  0  0
    9.9933    1.3078   23.6336 C   0  0  0  0  0  0  0  0  0  0  0  0
    8.1890   -0.7180   20.8700 C   0  0  0  0  0  0  0  0  0  0  0  0
   13.5868    1.1662   24.6355 N   0  0  0  0  0  0  0  0  0  0  0  0
    6.7580    0.3810   17.8350 N   0  0  0  0  0  0  0  0  0  0  0  0
    7.6390   -0.2680   18.5410 N   0  0  0  0  0  0  0  0  0  0  0  0
   13.6311    1.2821   23.2974 N   0  0  0  0  0  0  0  0  0  0  0  0
    7.3170   -0.1610   19.8550 N   0  0  0  0  0  0  0  0  0  0  0  0
    9.2563   -4.7368   25.5413 N   0  0  0  0  0  0  0  0  0  0  0  0
    9.4560    0.1560   22.8130 N   0  0  0  0  0  0  0  0  0  0  0  0
    9.2690    1.4140   20.9380 O   0  0  0  0  0  0  0  0  0  0  0  0
    7.4994   -6.1853   27.1719 O   0  0  0  0  0  0  0  0  0  0  0  0
    3.0136    2.6524   19.3909 H   0  0  0  0  0  0  0  0  0  0  0  0
    3.6477    2.0141   21.6817 H   0  0  0  0  0  0  0  0  0  0  0  0
    4.4042    1.9739   17.4524 H   0  0  0  0  0  0  0  0  0  0  0  0
    5.7107    0.6909   22.1141 H   0  0  0  0  0  0  0  0  0  0  0  0
    8.6905   -2.3533   26.5810 H   0  0  0  0  0  0  0  0  0  0  0  0
    9.9266   -4.3896   22.9917 H   0  0  0  0  0  0  0  0  0  0  0  0
    8.9233   -0.1992   25.4232 H   0  0  0  0  0  0  0  0  0  0  0  0
   10.0650   -2.2330   21.8256 H   0  0  0  0  0  0  0  0  0  0  0  0
   11.9519    1.0790   25.9237 H   0  0  0  0  0  0  0  0  0  0  0  0
   12.2846    1.4472   21.6383 H   0  0  0  0  0  0  0  0  0  0  0  0
   10.0205   -3.9698   27.3609 H   0  0  0  0  0  0  0  0  0  0  0  0
   10.1535   -5.7310   27.1549 H   0  0  0  0  0  0  0  0  0  0  0  0
    9.1181   -6.7773   25.0755 H   0  0  0  0  0  0  0  0  0  0  0  0
    8.2812   -5.7064   23.9305 H   0  0  0  0  0  0  0  0  0  0  0  0
    8.3629   -5.2252   28.7611 H   0  0  0  0  0  0  0  0  0  0  0  0
    7.5530   -4.1570   27.6103 H   0  0  0  0  0  0  0  0  0  0  0  0
    6.5459   -5.1839   25.6221 H   0  0  0  0  0  0  0  0  0  0  0  0
    6.6948   -6.9354   25.4436 H   0  0  0  0  0  0  0  0  0  0  0  0
   15.2212    2.3654   22.5560 H   0  0  0  0  0  0  0  0  0  0  0  0
   15.6366    0.7373   23.1913 H   0  0  0  0  0  0  0  0  0  0  0  0
   14.8009    0.8871   21.6247 H   0  0  0  0  0  0  0  0  0  0  0  0
    9.5381    1.2265   24.6268 H   0  0  0  0  0  0  0  0  0  0  0  0
    9.6476    2.2491   23.1936 H   0  0  0  0  0  0  0  0  0  0  0  0
    8.8326   -1.4554   20.3912 H   0  0  0  0  0  0  0  0  0  0  0  0
    7.5604   -1.1971   21.6201 H   0  0  0  0  0  0  0  0  0  0  0  0
  1  2  1  0  0  0  0
  1  3  2  0  0  0  0
  2  4  2  0  0  0  0
  3 12  1  0  0  0  0
  4 13  1  0  0  0  0
  5  7  2  0  0  0  0
  5 14  1  0  0  0  0
  6  8  1  0  0  0  0
  6 14  2  0  0  0  0
  7 15  1  0  0  0  0
  8 15  2  0  0  0  0
  9 11  1  0  0  0  0
  9 24  2  0  0  0  0
 10 11  2  0  0  0  0
 10 27  1  0  0  0  0
 11 22  1  0  0  0  0
 12 13  2  0  0  0  0
 12 25  1  0  0  0  0
 13 28  1  0  0  0  0
 14 29  1  0  0  0  0
 15 30  1  0  0  0  0
 16 23  1  0  0  0  0
 16 30  1  0  0  0  0
 16 31  2  0  0  0  0
 17 19  1  0  0  0  0
 17 29  1  0  0  0  0
 18 20  1  0  0  0  0
 18 29  1  0  0  0  0
 19 32  1  0  0  0  0
 20 32  1  0  0  0  0
 21 27  1  0  0  0  0
 22 30  1  0  0  0  0
 23 28  1  0  0  0  0
 24 27  1  0  0  0  0
 25 26  2  0  0  0  0
 26 28  1  0  0  0  0
  1 33  1  0  0  0  0
  2 34  1  0  0  0  0
  3 35  1  0  0  0  0
  4 36  1  0  0  0  0
  5 37  1  0  0  0  0
  6 38  1  0  0  0  0
  7 39  1  0  0  0  0
  8 40  1  0  0  0  0
  9 41  1  0  0  0  0
 10 42  1  0  0  0  0
 17 43  1  0  0  0  0
 17 44  1  0  0  0  0
 18 45  1  0  0  0  0
 18 46  1  0  0  0  0
 19 47  1  0  0  0  0
 19 48  1  0  0  0  0
 20 49  1  0  0  0  0
 20 50  1  0  0  0  0
 21 51  1  0  0  0  0
 21 52  1  0  0  0  0
 21 53  1  0  0  0  0
 22 54  1  0  0  0  0
 22 55  1  0  0  0  0
 23 56  1  0  0  0  0
 23 57  1  0  0  0  0
M  END
> <clash_score>
0

> <docking_score>
-9.213172912597656

> <overlap_score>
0.985168993473053

$$$$
BENZO_364_1
  -OEChem-08232013463D

 50 53  0     0  0  0  0  0  0999 V2000
    3.9160    2.0630   19.5520 C   0  0  0  0  0  0  0  0  0  0  0  0
    4.2750    1.7050   20.8490 C   0  0  0  0  0  0  0  0  0  0  0  0
    4.6890    1.6810   18.4640 C   0  0  0  0  0  0  0  0  0  0  0  0
    5.4210    0.9600   21.0930 C   0  0  0  0  0  0  0  0  0  0  0  0
    9.0720   -1.1280   24.8640 C   0  0  0  0  0  0  0  0  0  0  0  0
    9.7200   -2.2600   22.8630 C   0  0  0  0  0  0  0  0  0  0  0  0
    8.9960   -2.3380   25.5320 C   0  0  0  0  0  0  0  0  0  0  0  0
    9.6730   -3.4710   23.5300 C   0  0  0  0  0  0  0  0  0  0  0  0
   12.3570    1.3462   22.6131 C   0  0  0  0  0  0  0  0  0  0  0  0
   13.6853    1.3017   22.9755 C   0  0  0  0  0  0  0  0  0  0  0  0
   12.1910    1.1562   24.9237 C   0  0  0  0  0  0  0  0  0  0  0  0
    7.6390   -0.2680   18.5410 C   0  0  0  0  0  0  0  0  0  0  0  0
   11.4913    1.2620   23.7417 C   0  0  0  0  0  0  0  0  0  0  0  0
    5.8300    0.9190   18.6970 C   0  0  0  0  0  0  0  0  0  0  0  0
    6.1790    0.5730   19.9990 C   0  0  0  0  0  0  0  0  0  0  0  0
    9.3350   -1.0880   23.5010 C   0  0  0  0  0  0  0  0  0  0  0  0
    9.3070   -3.5340   24.8780 C   0  0  0  0  0  0  0  0  0  0  0  0
    9.0420    0.3700   21.5280 C   0  0  0  0  0  0  0  0  0  0  0  0
    8.8742   -4.8064   26.9496 C   0  0  0  0  0  0  0  0  0  0  0  0
    9.5655   -5.9897   24.8591 C   0  0  0  0  0  0  0  0  0  0  0  0
    9.9928    1.2851   23.6509 C   0  0  0  0  0  0  0  0  0  0  0  0
    8.1890   -0.7180   20.8700 C   0  0  0  0  0  0  0  0  0  0  0  0
    6.7580    0.3810   17.8350 N   0  0  0  0  0  0  0  0  0  0  0  0
    7.3170   -0.1610   19.8550 N   0  0  0  0  0  0  0  0  0  0  0  0
    9.4560    0.1560   22.8130 N   0  0  0  0  0  0  0  0  0  0  0  0
    9.2543   -4.7552   25.5519 N   0  0  0  0  0  0  0  0  0  0  0  0
    9.2690    1.4140   20.9380 O   0  0  0  0  0  0  0  0  0  0  0  0
   13.8845    1.1590   24.6702 S   0  0  0  0  0  0  0  0  0  0  0  0
    3.0133    2.6526   19.3911 H   0  0  0  0  0  0  0  0  0  0  0  0
    3.6478    2.0143   21.6818 H   0  0  0  0  0  0  0  0  0  0  0  0
    4.4036    1.9735   17.4543 H   0  0  0  0  0  0  0  0  0  0  0  0
    5.7089    0.6922   22.1131 H   0  0  0  0  0  0  0  0  0  0  0  0
    8.9217   -0.1995   25.4232 H   0  0  0  0  0  0  0  0  0  0  0  0
   10.0643   -2.2341   21.8254 H   0  0  0  0  0  0  0  0  0  0  0  0
    8.6893   -2.3540   26.5808 H   0  0  0  0  0  0  0  0  0  0  0  0
    9.9257   -4.3898   22.9921 H   0  0  0  0  0  0  0  0  0  0  0  0
   12.0265    1.4345   21.5859 H   0  0  0  0  0  0  0  0  0  0  0  0
   14.5482    1.3455   22.3261 H   0  0  0  0  0  0  0  0  0  0  0  0
   11.7927    1.0761   25.9257 H   0  0  0  0  0  0  0  0  0  0  0  0
    8.4865   -0.8061   18.1803 H   0  0  0  0  0  0  0  0  0  0  0  0
    8.8922   -5.8499   27.2971 H   0  0  0  0  0  0  0  0  0  0  0  0
    9.5819   -4.2098   27.5440 H   0  0  0  0  0  0  0  0  0  0  0  0
    7.8599   -4.3978   27.0688 H   0  0  0  0  0  0  0  0  0  0  0  0
    9.4683   -6.8360   25.5551 H   0  0  0  0  0  0  0  0  0  0  0  0
    8.8685   -6.1243   24.0189 H   0  0  0  0  0  0  0  0  0  0  0  0
   10.5961   -5.9459   24.4772 H   0  0  0  0  0  0  0  0  0  0  0  0
    9.5445    1.2076   24.6474 H   0  0  0  0  0  0  0  0  0  0  0  0
    9.6404    2.2225   23.2078 H   0  0  0  0  0  0  0  0  0  0  0  0
    8.8262   -1.4533   20.3842 H   0  0  0  0  0  0  0  0  0  0  0  0
    7.5540   -1.1950   21.6130 H   0  0  0  0  0  0  0  0  0  0  0  0
  1  2  1  0  0  0  0
  1  3  2  0  0  0  0
  2  4  2  0  0  0  0
  3 14  1  0  0  0  0
  4 15  1  0  0  0  0
  5  7  2  0  0  0  0
  5 16  1  0  0  0  0
  6  8  1  0  0  0  0
  6 16  2  0  0  0  0
  7 17  1  0  0  0  0
  8 17  2  0  0  0  0
  9 10  2  0  0  0  0
  9 13  1  0  0  0  0
 10 28  1  0  0  0  0
 11 13  2  0  0  0  0
 11 28  1  0  0  0  0
 12 23  2  0  0  0  0
 12 24  1  0  0  0  0
 13 21  1  0  0  0  0
 14 15  2  0  0  0  0
 14 23  1  0  0  0  0
 15 24  1  0  0  0  0
 16 25  1  0  0  0  0
 17 26  1  0  0  0  0
 18 22  1  0  0  0  0
 18 25  1  0  0  0  0
 18 27  2  0  0  0  0
 19 26  1  0  0  0  0
 20 26  1  0  0  0  0
 21 25  1  0  0  0  0
 22 24  1  0  0  0  0
  1 29  1  0  0  0  0
  2 30  1  0  0  0  0
  3 31  1  0  0  0  0
  4 32  1  0  0  0  0
  5 33  1  0  0  0  0
  6 34  1  0  0  0  0
  7 35  1  0  0  0  0
  8 36  1  0  0  0  0
  9 37  1  0  0  0  0
 10 38  1  0  0  0  0
 11 39  1  0  0  0  0
 12 40  1  0  0  0  0
 19 41  1  0  0  0  0
 19 42  1  0  0  0  0
 19 43  1  0  0  0  0
 20 44  1  0  0  0  0
 20 45  1  0  0  0  0
 20 46  1  0  0  0  0
 21 47  1  0  0  0  0
 21 48  1  0  0  0  0
 22 49  1  0  0  0  0
 22 50  1  0  0  0  0
M  END
> <clash_score>
0

> <docking_score>
-10.213751792907715

> <overlap_score>
0.9610845446586609

$$$$
BENZO_367_1
  -OEChem-08232013463D

 53 56  0     0  0  0  0  0  0999 V2000
    3.9160    2.0630   19.5520 C   0  0  0  0  0  0  0  0  0  0  0  0
    4.2750    1.7050   20.8490 C   0  0  0  0  0  0  0  0  0  0  0  0
    4.6890    1.6810   18.4640 C   0  0  0  0  0  0  0  0  0  0  0  0
    5.4210    0.9600   21.0930 C   0  0  0  0  0  0  0  0  0  0  0  0
    9.0720   -1.1280   24.8640 C   0  0  0  0  0  0  0  0  0  0  0  0
    9.7200   -2.2600   22.8630 C   0  0  0  0  0  0  0  0  0  0  0  0
    8.9960   -2.3380   25.5320 C   0  0  0  0  0  0  0  0  0  0  0  0
    9.6730   -3.4710   23.5300 C   0  0  0  0  0  0  0  0  0  0  0  0
   12.4099    2.0961   23.0766 C   0  0  0  0  0  0  0  0  0  0  0  0
   12.2737    0.4222   24.4959 C   0  0  0  0  0  0  0  0  0  0  0  0
    7.6390   -0.2680   18.5410 C   0  0  0  0  0  0  0  0  0  0  0  0
   11.4913    1.2620   23.7417 C   0  0  0  0  0  0  0  0  0  0  0  0
    5.8300    0.9190   18.6970 C   0  0  0  0  0  0  0  0  0  0  0  0
    6.1790    0.5730   19.9990 C   0  0  0  0  0  0  0  0  0  0  0  0
    9.3350   -1.0880   23.5010 C   0  0  0  0  0  0  0  0  0  0  0  0
    9.3070   -3.5340   24.8780 C   0  0  0  0  0  0  0  0  0  0  0  0
    9.0420    0.3700   21.5280 C   0  0  0  0  0  0  0  0  0  0  0  0
   14.7487    0.1935   24.8140 C   0  0  0  0  0  0  0  0  0  0  0  0
    8.0128   -5.2151   26.1416 C   0  0  0  0  0  0  0  0  0  0  0  0
   10.4372   -5.5860   25.6589 C   0  0  0  0  0  0  0  0  0  0  0  0
    9.9928    1.2851   23.6509 C   0  0  0  0  0  0  0  0  0  0  0  0
    8.1890   -0.7180   20.8700 C   0  0  0  0  0  0  0  0  0  0  0  0
   13.6789    1.8120   23.3817 N   0  0  0  0  0  0  0  0  0  0  0  0
    6.7580    0.3810   17.8350 N   0  0  0  0  0  0  0  0  0  0  0  0
   13.5632    0.7901   24.2468 N   0  0  0  0  0  0  0  0  0  0  0  0
    7.3170   -0.1610   19.8550 N   0  0  0  0  0  0  0  0  0  0  0  0
    9.4560    0.1560   22.8130 N   0  0  0  0  0  0  0  0  0  0  0  0
    9.2543   -4.7552   25.5519 N   0  0  0  0  0  0  0  0  0  0  0  0
    9.2690    1.4140   20.9380 O   0  0  0  0  0  0  0  0  0  0  0  0
    3.0133    2.6526   19.3911 H   0  0  0  0  0  0  0  0  0  0  0  0
    3.6478    2.0143   21.6818 H   0  0  0  0  0  0  0  0  0  0  0  0
    4.4036    1.9735   17.4543 H   0  0  0  0  0  0  0  0  0  0  0  0
    5.7089    0.6922   22.1131 H   0  0  0  0  0  0  0  0  0  0  0  0
    8.9217   -0.1995   25.4232 H   0  0  0  0  0  0  0  0  0  0  0  0
   10.0643   -2.2341   21.8254 H   0  0  0  0  0  0  0  0  0  0  0  0
    8.6893   -2.3540   26.5808 H   0  0  0  0  0  0  0  0  0  0  0  0
    9.9257   -4.3898   22.9921 H   0  0  0  0  0  0  0  0  0  0  0  0
   12.2100    2.9003   22.3827 H   0  0  0  0  0  0  0  0  0  0  0  0
   12.0288   -0.3850   25.1729 H   0  0  0  0  0  0  0  0  0  0  0  0
    8.4865   -0.8061   18.1803 H   0  0  0  0  0  0  0  0  0  0  0  0
   15.0651   -0.6197   24.1556 H   0  0  0  0  0  0  0  0  0  0  0  0
   15.5348    0.9496   24.8928 H   0  0  0  0  0  0  0  0  0  0  0  0
   14.5184   -0.1890   25.8123 H   0  0  0  0  0  0  0  0  0  0  0  0
    8.1744   -6.1904   26.6238 H   0  0  0  0  0  0  0  0  0  0  0  0
    7.6718   -4.4870   26.8924 H   0  0  0  0  0  0  0  0  0  0  0  0
    7.2494   -5.3166   25.3561 H   0  0  0  0  0  0  0  0  0  0  0  0
   10.1946   -6.4995   26.2216 H   0  0  0  0  0  0  0  0  0  0  0  0
   10.7865   -5.8578   24.6518 H   0  0  0  0  0  0  0  0  0  0  0  0
   11.2285   -5.0312   26.1842 H   0  0  0  0  0  0  0  0  0  0  0  0
    9.5445    1.2076   24.6474 H   0  0  0  0  0  0  0  0  0  0  0  0
    9.6404    2.2225   23.2078 H   0  0  0  0  0  0  0  0  0  0  0  0
    8.8262   -1.4533   20.3842 H   0  0  0  0  0  0  0  0  0  0  0  0
    7.5540   -1.1950   21.6130 H   0  0  0  0  0  0  0  0  0  0  0  0
  1  2  1  0  0  0  0
  1  3  2  0  0  0  0
  2  4  2  0  0  0  0
  3 13  1  0  0  0  0
  4 14  1  0  0  0  0
  5  7  2  0  0  0  0
  5 15  1  0  0  0  0
  6  8  1  0  0  0  0
  6 15  2  0  0  0  0
  7 16  1  0  0  0  0
  8 16  2  0  0  0  0
  9 12  1  0  0  0  0
  9 23  2  0  0  0  0
 10 12  2  0  0  0  0
 10 25  1  0  0  0  0
 11 24  2  0  0  0  0
 11 26  1  0  0  0  0
 12 21  1  0  0  0  0
 13 14  2  0  0  0  0
 13 24  1  0  0  0  0
 14 26  1  0  0  0  0
 15 27  1  0  0  0  0
 16 28  1  0  0  0  0
 17 22  1  0  0  0  0
 17 27  1  0  0  0  0
 17 29  2  0  0  0  0
 18 25  1  0  0  0  0
 19 28  1  0  0  0  0
 20 28  1  0  0  0  0
 21 27  1  0  0  0  0
 22 26  1  0  0  0  0
 23 25  1  0  0  0  0
  1 30  1  0  0  0  0
  2 31  1  0  0  0  0
  3 32  1  0  0  0  0
  4 33  1  0  0  0  0
  5 34  1  0  0  0  0
  6 35  1  0  0  0  0
  7 36  1  0  0  0  0
  8 37  1  0  0  0  0
  9 38  1  0  0  0  0
 10 39  1  0  0  0  0
 11 40  1  0  0  0  0
 18 41  1  0  0  0  0
 18 42  1  0  0  0  0
 18 43  1  0  0  0  0
 19 44  1  0  0  0  0
 19 45  1  0  0  0  0
 19 46  1  0  0  0  0
 20 47  1  0  0  0  0
 20 48  1  0  0  0  0
 20 49  1  0  0  0  0
 21 50  1  0  0  0  0
 21 51  1  0  0  0  0
 22 52  1  0  0  0  0
 22 53  1  0  0  0  0
M  END
> <clash_score>
0

> <docking_score>
-9.878268241882324

> <overlap_score>
0.974835216999054

$$$$
BENZO_366_1
  -OEChem-08232013463D

 53 56  0     0  0  0  0  0  0999 V2000
    3.9160    2.0630   19.5520 C   0  0  0  0  0  0  0  0  0  0  0  0
    4.2750    1.7050   20.8490 C   0  0  0  0  0  0  0  0  0  0  0  0
   13.6403    2.1523   23.0888 C   0  0  0  0  0  0  0  0  0  0  0  0
   12.2482    2.1724   23.0041 C   0  0  0  0  0  0  0  0  0  0  0  0
    4.6890    1.6810   18.4640 C   0  0  0  0  0  0  0  0  0  0  0  0
    5.4210    0.9600   21.0930 C   0  0  0  0  0  0  0  0  0  0  0  0
    9.0720   -1.1280   24.8640 C   0  0  0  0  0  0  0  0  0  0  0  0
    9.7200   -2.2600   22.8630 C   0  0  0  0  0  0  0  0  0  0  0  0
    8.9960   -2.3380   25.5320 C   0  0  0  0  0  0  0  0  0  0  0  0
    9.6730   -3.4710   23.5300 C   0  0  0  0  0  0  0  0  0  0  0  0
   14.2756    1.2216   23.9110 C   0  0  0  0  0  0  0  0  0  0  0  0
   12.1266    0.3314   24.5639 C   0  0  0  0  0  0  0  0  0  0  0  0
    7.6390   -0.2680   18.5410 C   0  0  0  0  0  0  0  0  0  0  0  0
   11.4913    1.2620   23.7417 C   0  0  0  0  0  0  0  0  0  0  0  0
    5.8300    0.9190   18.6970 C   0  0  0  0  0  0  0  0  0  0  0  0
    6.1790    0.5730   19.9990 C   0  0  0  0  0  0  0  0  0  0  0  0
    9.3350   -1.0880   23.5010 C   0  0  0  0  0  0  0  0  0  0  0  0
    9.3070   -3.5340   24.8780 C   0  0  0  0  0  0  0  0  0  0  0  0
   13.5188    0.3113   24.6486 C   0  0  0  0  0  0  0  0  0  0  0  0
    9.0420    0.3700   21.5280 C   0  0  0  0  0  0  0  0  0  0  0  0
    8.0128   -5.2151   26.1416 C   0  0  0  0  0  0  0  0  0  0  0  0
   10.4372   -5.5860   25.6589 C   0  0  0  0  0  0  0  0  0  0  0  0
    9.9928    1.2851   23.6509 C   0  0  0  0  0  0  0  0  0  0  0  0
    8.1890   -0.7180   20.8700 C   0  0  0  0  0  0  0  0  0  0  0  0
    6.7580    0.3810   17.8350 N   0  0  0  0  0  0  0  0  0  0  0  0
    7.3170   -0.1610   19.8550 N   0  0  0  0  0  0  0  0  0  0  0  0
    9.4560    0.1560   22.8130 N   0  0  0  0  0  0  0  0  0  0  0  0
    9.2543   -4.7552   25.5519 N   0  0  0  0  0  0  0  0  0  0  0  0
    9.2690    1.4140   20.9380 O   0  0  0  0  0  0  0  0  0  0  0  0
   14.3031   -0.8359   25.6637 Cl  0  0  0  0  0  0  0  0  0  0  0  0
    3.0133    2.6526   19.3911 H   0  0  0  0  0  0  0  0  0  0  0  0
    3.6478    2.0143   21.6818 H   0  0  0  0  0  0  0  0  0  0  0  0
   14.2293    2.8615   22.5144 H   0  0  0  0  0  0  0  0  0  0  0  0
   11.7616    2.9011   22.3610 H   0  0  0  0  0  0  0  0  0  0  0  0
    4.4036    1.9735   17.4543 H   0  0  0  0  0  0  0  0  0  0  0  0
    5.7089    0.6922   22.1131 H   0  0  0  0  0  0  0  0  0  0  0  0
    8.9217   -0.1995   25.4232 H   0  0  0  0  0  0  0  0  0  0  0  0
   10.0643   -2.2341   21.8254 H   0  0  0  0  0  0  0  0  0  0  0  0
    8.6893   -2.3540   26.5808 H   0  0  0  0  0  0  0  0  0  0  0  0
    9.9257   -4.3898   22.9921 H   0  0  0  0  0  0  0  0  0  0  0  0
   15.3614    1.2177   23.9674 H   0  0  0  0  0  0  0  0  0  0  0  0
   11.5321   -0.3766   25.1366 H   0  0  0  0  0  0  0  0  0  0  0  0
    8.4865   -0.8061   18.1803 H   0  0  0  0  0  0  0  0  0  0  0  0
    8.1744   -6.1904   26.6238 H   0  0  0  0  0  0  0  0  0  0  0  0
    7.6718   -4.4870   26.8924 H   0  0  0  0  0  0  0  0  0  0  0  0
    7.2494   -5.3166   25.3561 H   0  0  0  0  0  0  0  0  0  0  0  0
   10.1946   -6.4995   26.2216 H   0  0  0  0  0  0  0  0  0  0  0  0
   10.7865   -5.8578   24.6518 H   0  0  0  0  0  0  0  0  0  0  0  0
   11.2285   -5.0312   26.1842 H   0  0  0  0  0  0  0  0  0  0  0  0
    9.5445    1.2076   24.6474 H   0  0  0  0  0  0  0  0  0  0  0  0
    9.6404    2.2225   23.2078 H   0  0  0  0  0  0  0  0  0  0  0  0
    8.8262   -1.4533   20.3842 H   0  0  0  0  0  0  0  0  0  0  0  0
    7.5540   -1.1950   21.6130 H   0  0  0  0  0  0  0  0  0  0  0  0
  1  2  1  0  0  0  0
  1  5  2  0  0  0  0
  2  6  2  0  0  0  0
  3  4  2  0  0  0  0
  3 11  1  0  0  0  0
  4 14  1  0  0  0  0
  5 15  1  0  0  0  0
  6 16  1  0  0  0  0
  7  9  2  0  0  0  0
  7 17  1  0  0  0  0
  8 10  1  0  0  0  0
  8 17  2  0  0  0  0
  9 18  1  0  0  0  0
 10 18  2  0  0  0  0
 11 19  2  0  0  0  0
 12 14  2  0  0  0  0
 12 19  1  0  0  0  0
 13 25  2  0  0  0  0
 13 26  1  0  0  0  0
 14 23  1  0  0  0  0
 15 16  2  0  0  0  0
 15 25  1  0  0  0  0
 16 26  1  0  0  0  0
 17 27  1  0  0  0  0
 18 28  1  0  0  0  0
 19 30  1  0  0  0  0
 20 24  1  0  0  0  0
 20 27  1  0  0  0  0
 20 29  2  0  0  0  0
 21 28  1  0  0  0  0
 22 28  1  0  0  0  0
 23 27  1  0  0  0  0
 24 26  1  0  0  0  0
  1 31  1  0  0  0  0
  2 32  1  0  0  0  0
  3 33  1  0  0  0  0
  4 34  1  0  0  0  0
  5 35  1  0  0  0  0
  6 36  1  0  0  0  0
  7 37  1  0  0  0  0
  8 38  1  0  0  0  0
  9 39  1  0  0  0  0
 10 40  1  0  0  0  0
 11 41  1  0  0  0  0
 12 42  1  0  0  0  0
 13 43  1  0  0  0  0
 21 44  1  0  0  0  0
 21 45  1  0  0  0  0
 21 46  1  0  0  0  0
 22 47  1  0  0  0  0
 22 48  1  0  0  0  0
 22 49  1  0  0  0  0
 23 50  1  0  0  0  0
 23 51  1  0  0  0  0
 24 52  1  0  0  0  0
 24 53  1  0  0  0  0
M  END
> <clash_score>
0.6602018655781879

> <docking_score>
-9.173709869384766

> <overlap_score>
0.9792982339859009

$$$$
BENZO_369_1
  -OEChem-08232013463D

 55 58  0     0  0  0  0  0  0999 V2000
   14.2757    1.2195   23.9089 C   0  0  0  0  0  0  0  0  0  0  0  0
   13.5099    0.5331   24.8512 C   0  0  0  0  0  0  0  0  0  0  0  0
   13.6494    1.9272   22.8829 C   0  0  0  0  0  0  0  0  0  0  0  0
    3.9160    2.0630   19.5520 C   0  0  0  0  0  0  0  0  0  0  0  0
    4.2750    1.7050   20.8490 C   0  0  0  0  0  0  0  0  0  0  0  0
   12.1177    0.5544   24.7676 C   0  0  0  0  0  0  0  0  0  0  0  0
   12.2572    1.9484   22.7993 C   0  0  0  0  0  0  0  0  0  0  0  0
    4.6890    1.6810   18.4640 C   0  0  0  0  0  0  0  0  0  0  0  0
    5.4210    0.9600   21.0930 C   0  0  0  0  0  0  0  0  0  0  0  0
    8.9960   -2.3380   25.5320 C   0  0  0  0  0  0  0  0  0  0  0  0
    9.6730   -3.4710   23.5300 C   0  0  0  0  0  0  0  0  0  0  0  0
    9.0720   -1.1280   24.8640 C   0  0  0  0  0  0  0  0  0  0  0  0
    9.7200   -2.2600   22.8630 C   0  0  0  0  0  0  0  0  0  0  0  0
    7.6390   -0.2680   18.5410 C   0  0  0  0  0  0  0  0  0  0  0  0
   11.4913    1.2620   23.7417 C   0  0  0  0  0  0  0  0  0  0  0  0
    5.8300    0.9190   18.6970 C   0  0  0  0  0  0  0  0  0  0  0  0
    6.1790    0.5730   19.9990 C   0  0  0  0  0  0  0  0  0  0  0  0
    9.3070   -3.5340   24.8780 C   0  0  0  0  0  0  0  0  0  0  0  0
    9.3350   -1.0880   23.5010 C   0  0  0  0  0  0  0  0  0  0  0  0
    9.5333   -6.0236   25.0413 C   0  0  0  0  0  0  0  0  0  0  0  0
    9.0420    0.3700   21.5280 C   0  0  0  0  0  0  0  0  0  0  0  0
   10.6330   -7.3747   26.8774 C   0  0  0  0  0  0  0  0  0  0  0  0
    9.9928    1.2851   23.6509 C   0  0  0  0  0  0  0  0  0  0  0  0
    9.3523   -7.0865   26.1148 C   0  0  0  0  0  0  0  0  0  0  0  0
    8.1890   -0.7180   20.8700 C   0  0  0  0  0  0  0  0  0  0  0  0
    6.7580    0.3810   17.8350 N   0  0  0  0  0  0  0  0  0  0  0  0
    7.3170   -0.1610   19.8550 N   0  0  0  0  0  0  0  0  0  0  0  0
    9.2546   -4.7422   25.5438 N   0  0  0  0  0  0  0  0  0  0  0  0
    9.4560    0.1560   22.8130 N   0  0  0  0  0  0  0  0  0  0  0  0
    9.8805   -6.3052   23.8991 O   0  0  0  0  0  0  0  0  0  0  0  0
    9.2690    1.4140   20.9380 O   0  0  0  0  0  0  0  0  0  0  0  0
   15.3597    1.2039   23.9749 H   0  0  0  0  0  0  0  0  0  0  0  0
   13.9974   -0.0171   25.6508 H   0  0  0  0  0  0  0  0  0  0  0  0
   14.2453    2.4626   22.1497 H   0  0  0  0  0  0  0  0  0  0  0  0
    3.0133    2.6526   19.3911 H   0  0  0  0  0  0  0  0  0  0  0  0
    3.6478    2.0143   21.6818 H   0  0  0  0  0  0  0  0  0  0  0  0
   11.5291    0.0165   25.5062 H   0  0  0  0  0  0  0  0  0  0  0  0
   11.7778    2.5024   21.9965 H   0  0  0  0  0  0  0  0  0  0  0  0
    4.4036    1.9735   17.4543 H   0  0  0  0  0  0  0  0  0  0  0  0
    5.7089    0.6922   22.1131 H   0  0  0  0  0  0  0  0  0  0  0  0
    8.6895   -2.3529   26.5807 H   0  0  0  0  0  0  0  0  0  0  0  0
    9.9262   -4.3897   22.9916 H   0  0  0  0  0  0  0  0  0  0  0  0
    8.9224   -0.1998   25.4238 H   0  0  0  0  0  0  0  0  0  0  0  0
   10.0649   -2.2343   21.8258 H   0  0  0  0  0  0  0  0  0  0  0  0
    8.4865   -0.8061   18.1803 H   0  0  0  0  0  0  0  0  0  0  0  0
   11.4241   -7.7171   26.2022 H   0  0  0  0  0  0  0  0  0  0  0  0
   10.4629   -8.1531   27.6275 H   0  0  0  0  0  0  0  0  0  0  0  0
   10.9950   -6.4780   27.3910 H   0  0  0  0  0  0  0  0  0  0  0  0
    9.5445    1.2076   24.6474 H   0  0  0  0  0  0  0  0  0  0  0  0
    9.6404    2.2225   23.2078 H   0  0  0  0  0  0  0  0  0  0  0  0
    8.5795   -6.7463   26.8137 H   0  0  0  0  0  0  0  0  0  0  0  0
    8.9965   -8.0064   25.6366 H   0  0  0  0  0  0  0  0  0  0  0  0
    8.8262   -1.4533   20.3842 H   0  0  0  0  0  0  0  0  0  0  0  0
    7.5540   -1.1950   21.6130 H   0  0  0  0  0  0  0  0  0  0  0  0
    8.9776   -4.7057   26.5317 H   0  0  0  0  0  0  0  0  0  0  0  0
  1  2  1  0  0  0  0
  1  3  2  0  0  0  0
  2  6  2  0  0  0  0
  3  7  1  0  0  0  0
  4  5  1  0  0  0  0
  4  8  2  0  0  0  0
  5  9  2  0  0  0  0
  6 15  1  0  0  0  0
  7 15  2  0  0  0  0
  8 16  1  0  0  0  0
  9 17  1  0  0  0  0
 10 12  2  0  0  0  0
 10 18  1  0  0  0  0
 11 13  1  0  0  0  0
 11 18  2  0  0  0  0
 12 19  1  0  0  0  0
 13 19  2  0  0  0  0
 14 26  2  0  0  0  0
 14 27  1  0  0  0  0
 15 23  1  0  0  0  0
 16 17  2  0  0  0  0
 16 26  1  0  0  0  0
 17 27  1  0  0  0  0
 18 28  1  0  0  0  0
 19 29  1  0  0  0  0
 20 24  1  0  0  0  0
 20 28  1  0  0  0  0
 20 30  2  0  0  0  0
 21 25  1  0  0  0  0
 21 29  1  0  0  0  0
 21 31  2  0  0  0  0
 22 24  1  0  0  0  0
 23 29  1  0  0  0  0
 25 27  1  0  0  0  0
  1 32  1  0  0  0  0
  2 33  1  0  0  0  0
  3 34  1  0  0  0  0
  4 35  1  0  0  0  0
  5 36  1  0  0  0  0
  6 37  1  0  0  0  0
  7 38  1  0  0  0  0
  8 39  1  0  0  0  0
  9 40  1  0  0  0  0
 10 41  1  0  0  0  0
 11 42  1  0  0  0  0
 12 43  1  0  0  0  0
 13 44  1  0  0  0  0
 14 45  1  0  0  0  0
 22 46  1  0  0  0  0
 22 47  1  0  0  0  0
 22 48  1  0  0  0  0
 23 49  1  0  0  0  0
 23 50  1  0  0  0  0
 24 51  1  0  0  0  0
 24 52  1  0  0  0  0
 25 53  1  0  0  0  0
 25 54  1  0  0  0  0
 28 55  1  0  0  0  0
M  END
> <clash_score>
1.498603890647447

> <docking_score>
-7.157885551452637

> <overlap_score>
0.9782829284667969

$$$$
BENZO_368_1
  -OEChem-08232013463D

 52 55  0     0  0  0  0  0  0999 V2000
    3.9160    2.0630   19.5520 C   0  0  0  0  0  0  0  0  0  0  0  0
    4.2750    1.7050   20.8490 C   0  0  0  0  0  0  0  0  0  0  0  0
    4.6890    1.6810   18.4640 C   0  0  0  0  0  0  0  0  0  0  0  0
    5.4210    0.9600   21.0930 C   0  0  0  0  0  0  0  0  0  0  0  0
    8.9960   -2.3380   25.5320 C   0  0  0  0  0  0  0  0  0  0  0  0
    9.6730   -3.4710   23.5300 C   0  0  0  0  0  0  0  0  0  0  0  0
    9.0720   -1.1280   24.8640 C   0  0  0  0  0  0  0  0  0  0  0  0
    9.7200   -2.2600   22.8630 C   0  0  0  0  0  0  0  0  0  0  0  0
   12.2966    2.4285   23.8870 C   0  0  0  0  0  0  0  0  0  0  0  0
   13.6394    2.1264   23.9445 C   0  0  0  0  0  0  0  0  0  0  0  0
   12.2494    0.1127   23.6934 C   0  0  0  0  0  0  0  0  0  0  0  0
    7.6390   -0.2680   18.5410 C   0  0  0  0  0  0  0  0  0  0  0  0
   11.4913    1.2620   23.7417 C   0  0  0  0  0  0  0  0  0  0  0  0
    5.8300    0.9190   18.6970 C   0  0  0  0  0  0  0  0  0  0  0  0
    6.1790    0.5730   19.9990 C   0  0  0  0  0  0  0  0  0  0  0  0
    9.3070   -3.5340   24.8780 C   0  0  0  0  0  0  0  0  0  0  0  0
    9.3350   -1.0880   23.5010 C   0  0  0  0  0  0  0  0  0  0  0  0
    9.5333   -6.0236   25.0413 C   0  0  0  0  0  0  0  0  0  0  0  0
    9.0420    0.3700   21.5280 C   0  0  0  0  0  0  0  0  0  0  0  0
   10.6330   -7.3747   26.8774 C   0  0  0  0  0  0  0  0  0  0  0  0
    9.9928    1.2851   23.6509 C   0  0  0  0  0  0  0  0  0  0  0  0
    9.3523   -7.0865   26.1148 C   0  0  0  0  0  0  0  0  0  0  0  0
    8.1890   -0.7180   20.8700 C   0  0  0  0  0  0  0  0  0  0  0  0
    6.7580    0.3810   17.8350 N   0  0  0  0  0  0  0  0  0  0  0  0
    7.3170   -0.1610   19.8550 N   0  0  0  0  0  0  0  0  0  0  0  0
    9.2546   -4.7422   25.5438 N   0  0  0  0  0  0  0  0  0  0  0  0
    9.4560    0.1560   22.8130 N   0  0  0  0  0  0  0  0  0  0  0  0
    9.8805   -6.3052   23.8991 O   0  0  0  0  0  0  0  0  0  0  0  0
    9.2690    1.4140   20.9380 O   0  0  0  0  0  0  0  0  0  0  0  0
   13.9248    0.4423   23.8234 S   0  0  0  0  0  0  0  0  0  0  0  0
    3.0133    2.6526   19.3911 H   0  0  0  0  0  0  0  0  0  0  0  0
    3.6478    2.0143   21.6818 H   0  0  0  0  0  0  0  0  0  0  0  0
    4.4036    1.9735   17.4543 H   0  0  0  0  0  0  0  0  0  0  0  0
    5.7089    0.6922   22.1131 H   0  0  0  0  0  0  0  0  0  0  0  0
    8.6895   -2.3529   26.5807 H   0  0  0  0  0  0  0  0  0  0  0  0
    9.9262   -4.3897   22.9916 H   0  0  0  0  0  0  0  0  0  0  0  0
    8.9224   -0.1998   25.4238 H   0  0  0  0  0  0  0  0  0  0  0  0
   10.0649   -2.2343   21.8258 H   0  0  0  0  0  0  0  0  0  0  0  0
   11.9145    3.4398   23.9463 H   0  0  0  0  0  0  0  0  0  0  0  0
   14.4664    2.8140   24.0511 H   0  0  0  0  0  0  0  0  0  0  0  0
   11.9038   -0.9062   23.5870 H   0  0  0  0  0  0  0  0  0  0  0  0
    8.4865   -0.8061   18.1803 H   0  0  0  0  0  0  0  0  0  0  0  0
   11.4241   -7.7171   26.2022 H   0  0  0  0  0  0  0  0  0  0  0  0
   10.4629   -8.1531   27.6275 H   0  0  0  0  0  0  0  0  0  0  0  0
   10.9950   -6.4780   27.3910 H   0  0  0  0  0  0  0  0  0  0  0  0
    9.5445    1.2076   24.6474 H   0  0  0  0  0  0  0  0  0  0  0  0
    9.6404    2.2225   23.2078 H   0  0  0  0  0  0  0  0  0  0  0  0
    8.5795   -6.7463   26.8137 H   0  0  0  0  0  0  0  0  0  0  0  0
    8.9965   -8.0064   25.6366 H   0  0  0  0  0  0  0  0  0  0  0  0
    8.8262   -1.4533   20.3842 H   0  0  0  0  0  0  0  0  0  0  0  0
    7.5540   -1.1950   21.6130 H   0  0  0  0  0  0  0  0  0  0  0  0
    8.9776   -4.7057   26.5317 H   0  0  0  0  0  0  0  0  0  0  0  0
  1  2  1  0  0  0  0
  1  3  2  0  0  0  0
  2  4  2  0  0  0  0
  3 14  1  0  0  0  0
  4 15  1  0  0  0  0
  5  7  2  0  0  0  0
  5 16  1  0  0  0  0
  6  8  1  0  0  0  0
  6 16  2  0  0  0  0
  7 17  1  0  0  0  0
  8 17  2  0  0  0  0
  9 10  2  0  0  0  0
  9 13  1  0  0  0  0
 10 30  1  0  0  0  0
 11 13  2  0  0  0  0
 11 30  1  0  0  0  0
 12 24  2  0  0  0  0
 12 25  1  0  0  0  0
 13 21  1  0  0  0  0
 14 15  2  0  0  0  0
 14 24  1  0  0  0  0
 15 25  1  0  0  0  0
 16 26  1  0  0  0  0
 17 27  1  0  0  0  0
 18 22  1  0  0  0  0
 18 26  1  0  0  0  0
 18 28  2  0  0  0  0
 19 23  1  0  0  0  0
 19 27  1  0  0  0  0
 19 29  2  0  0  0  0
 20 22  1  0  0  0  0
 21 27  1  0  0  0  0
 23 25  1  0  0  0  0
  1 31  1  0  0  0  0
  2 32  1  0  0  0  0
  3 33  1  0  0  0  0
  4 34  1  0  0  0  0
  5 35  1  0  0  0  0
  6 36  1  0  0  0  0
  7 37  1  0  0  0  0
  8 38  1  0  0  0  0
  9 39  1  0  0  0  0
 10 40  1  0  0  0  0
 11 41  1  0  0  0  0
 12 42  1  0  0  0  0
 20 43  1  0  0  0  0
 20 44  1  0  0  0  0
 20 45  1  0  0  0  0
 21 46  1  0  0  0  0
 21 47  1  0  0  0  0
 22 48  1  0  0  0  0
 22 49  1  0  0  0  0
 23 50  1  0  0  0  0
 23 51  1  0  0  0  0
 26 52  1  0  0  0  0
M  END
> <clash_score>
1.498603890647447

> <docking_score>
-6.1185760498046875

> <overlap_score>
0.9632582068443298

$$$$
BENZO_373_1
  -OEChem-08232013463D

 60 64  0     0  0  0  0  0  0999 V2000
   14.2762    1.3533   23.8952 C   0  0  0  0  0  0  0  0  0  0  0  0
   13.5269    0.6624   24.8474 C   0  0  0  0  0  0  0  0  0  0  0  0
   13.6334    2.0295   22.8583 C   0  0  0  0  0  0  0  0  0  0  0  0
    3.9160    2.0630   19.5520 C   0  0  0  0  0  0  0  0  0  0  0  0
    4.2750    1.7050   20.8490 C   0  0  0  0  0  0  0  0  0  0  0  0
   12.1346    0.6475   24.7626 C   0  0  0  0  0  0  0  0  0  0  0  0
   12.2412    2.0146   22.7735 C   0  0  0  0  0  0  0  0  0  0  0  0
    4.6890    1.6810   18.4640 C   0  0  0  0  0  0  0  0  0  0  0  0
    5.4210    0.9600   21.0930 C   0  0  0  0  0  0  0  0  0  0  0  0
    8.9960   -2.3380   25.5320 C   0  0  0  0  0  0  0  0  0  0  0  0
    9.6730   -3.4710   23.5300 C   0  0  0  0  0  0  0  0  0  0  0  0
    9.0720   -1.1280   24.8640 C   0  0  0  0  0  0  0  0  0  0  0  0
    9.7200   -2.2600   22.8630 C   0  0  0  0  0  0  0  0  0  0  0  0
    7.6390   -0.2680   18.5410 C   0  0  0  0  0  0  0  0  0  0  0  0
   11.4918    1.3236   23.7257 C   0  0  0  0  0  0  0  0  0  0  0  0
    5.8300    0.9190   18.6970 C   0  0  0  0  0  0  0  0  0  0  0  0
    6.1790    0.5730   19.9990 C   0  0  0  0  0  0  0  0  0  0  0  0
    9.3070   -3.5340   24.8780 C   0  0  0  0  0  0  0  0  0  0  0  0
    9.3350   -1.0880   23.5010 C   0  0  0  0  0  0  0  0  0  0  0  0
    9.0420    0.3700   21.5280 C   0  0  0  0  0  0  0  0  0  0  0  0
    7.3635   -6.1361   27.1888 C   0  0  0  0  0  0  0  0  0  0  0  0
    8.1961   -4.9735   27.7341 C   0  0  0  0  0  0  0  0  0  0  0  0
    7.1942   -6.0394   25.6709 C   0  0  0  0  0  0  0  0  0  0  0  0
    9.5196   -4.8490   26.9797 C   0  0  0  0  0  0  0  0  0  0  0  0
    8.5442   -5.8838   24.9639 C   0  0  0  0  0  0  0  0  0  0  0  0
    9.9933    1.3078   23.6337 C   0  0  0  0  0  0  0  0  0  0  0  0
    8.1890   -0.7180   20.8700 C   0  0  0  0  0  0  0  0  0  0  0  0
    6.7580    0.3810   17.8350 N   0  0  0  0  0  0  0  0  0  0  0  0
    7.3170   -0.1610   19.8550 N   0  0  0  0  0  0  0  0  0  0  0  0
    9.2562   -4.7384   25.5422 N   0  0  0  0  0  0  0  0  0  0  0  0
    9.4560    0.1560   22.8130 N   0  0  0  0  0  0  0  0  0  0  0  0
    9.2690    1.4140   20.9380 O   0  0  0  0  0  0  0  0  0  0  0  0
   15.3602    1.3659   23.9622 H   0  0  0  0  0  0  0  0  0  0  0  0
   14.0272    0.1367   25.6555 H   0  0  0  0  0  0  0  0  0  0  0  0
   14.2164    2.5685   22.1174 H   0  0  0  0  0  0  0  0  0  0  0  0
    3.0133    2.6526   19.3911 H   0  0  0  0  0  0  0  0  0  0  0  0
    3.6478    2.0143   21.6818 H   0  0  0  0  0  0  0  0  0  0  0  0
   11.5589    0.1063   25.5089 H   0  0  0  0  0  0  0  0  0  0  0  0
   11.7489    2.5442   21.9621 H   0  0  0  0  0  0  0  0  0  0  0  0
    4.4036    1.9735   17.4543 H   0  0  0  0  0  0  0  0  0  0  0  0
    5.7089    0.6922   22.1131 H   0  0  0  0  0  0  0  0  0  0  0  0
    8.6905   -2.3533   26.5810 H   0  0  0  0  0  0  0  0  0  0  0  0
    9.9266   -4.3896   22.9917 H   0  0  0  0  0  0  0  0  0  0  0  0
    8.9233   -0.1992   25.4231 H   0  0  0  0  0  0  0  0  0  0  0  0
   10.0650   -2.2330   21.8256 H   0  0  0  0  0  0  0  0  0  0  0  0
    8.4865   -0.8061   18.1803 H   0  0  0  0  0  0  0  0  0  0  0  0
    7.8482   -7.0901   27.4469 H   0  0  0  0  0  0  0  0  0  0  0  0
    6.3760   -6.1438   27.6724 H   0  0  0  0  0  0  0  0  0  0  0  0
    7.6307   -4.0424   27.6403 H   0  0  0  0  0  0  0  0  0  0  0  0
    8.3915   -5.1310   28.7968 H   0  0  0  0  0  0  0  0  0  0  0  0
    6.6888   -6.9376   25.3010 H   0  0  0  0  0  0  0  0  0  0  0  0
    6.5515   -5.1859   25.4257 H   0  0  0  0  0  0  0  0  0  0  0  0
   10.0492   -3.9640   27.3414 H   0  0  0  0  0  0  0  0  0  0  0  0
   10.1431   -5.7254   27.1778 H   0  0  0  0  0  0  0  0  0  0  0  0
    9.1338   -6.7931   25.0868 H   0  0  0  0  0  0  0  0  0  0  0  0
    8.3656   -5.7264   23.8998 H   0  0  0  0  0  0  0  0  0  0  0  0
    9.5459    1.2392   24.6313 H   0  0  0  0  0  0  0  0  0  0  0  0
    9.6182    2.2271   23.1715 H   0  0  0  0  0  0  0  0  0  0  0  0
    8.8326   -1.4554   20.3912 H   0  0  0  0  0  0  0  0  0  0  0  0
    7.5604   -1.1971   21.6201 H   0  0  0  0  0  0  0  0  0  0  0  0
  1  2  1  0  0  0  0
  1  3  2  0  0  0  0
  2  6  2  0  0  0  0
  3  7  1  0  0  0  0
  4  5  1  0  0  0  0
  4  8  2  0  0  0  0
  5  9  2  0  0  0  0
  6 15  1  0  0  0  0
  7 15  2  0  0  0  0
  8 16  1  0  0  0  0
  9 17  1  0  0  0  0
 10 12  2  0  0  0  0
 10 18  1  0  0  0  0
 11 13  1  0  0  0  0
 11 18  2  0  0  0  0
 12 19  1  0  0  0  0
 13 19  2  0  0  0  0
 14 28  2  0  0  0  0
 14 29  1  0  0  0  0
 15 26  1  0  0  0  0
 16 17  2  0  0  0  0
 16 28  1  0  0  0  0
 17 29  1  0  0  0  0
 18 30  1  0  0  0  0
 19 31  1  0  0  0  0
 20 27  1  0  0  0  0
 20 31  1  0  0  0  0
 20 32  2  0  0  0  0
 21 22  1  0  0  0  0
 21 23  1  0  0  0  0
 22 24  1  0  0  0  0
 23 25  1  0  0  0  0
 24 30  1  0  0  0  0
 25 30  1  0  0  0  0
 26 31  1  0  0  0  0
 27 29  1  0  0  0  0
  1 33  1  0  0  0  0
  2 34  1  0  0  0  0
  3 35  1  0  0  0  0
  4 36  1  0  0  0  0
  5 37  1  0  0  0  0
  6 38  1  0  0  0  0
  7 39  1  0  0  0  0
  8 40  1  0  0  0  0
  9 41  1  0  0  0  0
 10 42  1  0  0  0  0
 11 43  1  0  0  0  0
 12 44  1  0  0  0  0
 13 45  1  0  0  0  0
 14 46  1  0  0  0  0
 21 47  1  0  0  0  0
 21 48  1  0  0  0  0
 22 49  1  0  0  0  0
 22 50  1  0  0  0  0
 23 51  1  0  0  0  0
 23 52  1  0  0  0  0
 24 53  1  0  0  0  0
 24 54  1  0  0  0  0
 25 55  1  0  0  0  0
 25 56  1  0  0  0  0
 26 57  1  0  0  0  0
 26 58  1  0  0  0  0
 27 59  1  0  0  0  0
 27 60  1  0  0  0  0
M  END
> <clash_score>
0

> <docking_score>
-9.397454261779785

> <overlap_score>
0.9928334355354309

$$$$
BENZO_371_1
  -OEChem-08232013463D

 55 58  0     0  0  0  0  0  0999 V2000
    3.9160    2.0630   19.5520 C   0  0  0  0  0  0  0  0  0  0  0  0
    4.2750    1.7050   20.8490 C   0  0  0  0  0  0  0  0  0  0  0  0
    4.6890    1.6810   18.4640 C   0  0  0  0  0  0  0  0  0  0  0  0
    5.4210    0.9600   21.0930 C   0  0  0  0  0  0  0  0  0  0  0  0
    8.9960   -2.3380   25.5320 C   0  0  0  0  0  0  0  0  0  0  0  0
    9.6730   -3.4710   23.5300 C   0  0  0  0  0  0  0  0  0  0  0  0
    9.0720   -1.1280   24.8640 C   0  0  0  0  0  0  0  0  0  0  0  0
    9.7200   -2.2600   22.8630 C   0  0  0  0  0  0  0  0  0  0  0  0
   12.2851    1.1582   24.8997 C   0  0  0  0  0  0  0  0  0  0  0  0
   12.3959    1.3350   22.7107 C   0  0  0  0  0  0  0  0  0  0  0  0
    7.6390   -0.2680   18.5410 C   0  0  0  0  0  0  0  0  0  0  0  0
   11.4913    1.2620   23.7417 C   0  0  0  0  0  0  0  0  0  0  0  0
    5.8300    0.9190   18.6970 C   0  0  0  0  0  0  0  0  0  0  0  0
    6.1790    0.5730   19.9990 C   0  0  0  0  0  0  0  0  0  0  0  0
    9.3070   -3.5340   24.8780 C   0  0  0  0  0  0  0  0  0  0  0  0
    9.3350   -1.0880   23.5010 C   0  0  0  0  0  0  0  0  0  0  0  0
    9.5333   -6.0236   25.0413 C   0  0  0  0  0  0  0  0  0  0  0  0
    9.0420    0.3700   21.5280 C   0  0  0  0  0  0  0  0  0  0  0  0
   10.6330   -7.3747   26.8774 C   0  0  0  0  0  0  0  0  0  0  0  0
   14.8995    1.3124   22.6085 C   0  0  0  0  0  0  0  0  0  0  0  0
    9.9928    1.2851   23.6509 C   0  0  0  0  0  0  0  0  0  0  0  0
    9.3523   -7.0865   26.1148 C   0  0  0  0  0  0  0  0  0  0  0  0
    8.1890   -0.7180   20.8700 C   0  0  0  0  0  0  0  0  0  0  0  0
   13.5933    1.1641   24.6303 N   0  0  0  0  0  0  0  0  0  0  0  0
    6.7580    0.3810   17.8350 N   0  0  0  0  0  0  0  0  0  0  0  0
   13.6285    1.2725   23.2912 N   0  0  0  0  0  0  0  0  0  0  0  0
    7.3170   -0.1610   19.8550 N   0  0  0  0  0  0  0  0  0  0  0  0
    9.2546   -4.7422   25.5438 N   0  0  0  0  0  0  0  0  0  0  0  0
    9.4560    0.1560   22.8130 N   0  0  0  0  0  0  0  0  0  0  0  0
    9.8805   -6.3052   23.8991 O   0  0  0  0  0  0  0  0  0  0  0  0
    9.2690    1.4140   20.9380 O   0  0  0  0  0  0  0  0  0  0  0  0
    3.0133    2.6526   19.3911 H   0  0  0  0  0  0  0  0  0  0  0  0
    3.6478    2.0143   21.6818 H   0  0  0  0  0  0  0  0  0  0  0  0
    4.4036    1.9735   17.4543 H   0  0  0  0  0  0  0  0  0  0  0  0
    5.7089    0.6922   22.1131 H   0  0  0  0  0  0  0  0  0  0  0  0
    8.6895   -2.3529   26.5807 H   0  0  0  0  0  0  0  0  0  0  0  0
    9.9262   -4.3897   22.9916 H   0  0  0  0  0  0  0  0  0  0  0  0
    8.9224   -0.1998   25.4238 H   0  0  0  0  0  0  0  0  0  0  0  0
   10.0649   -2.2343   21.8258 H   0  0  0  0  0  0  0  0  0  0  0  0
   11.9671    1.0774   25.9295 H   0  0  0  0  0  0  0  0  0  0  0  0
   12.2706    1.4226   21.6400 H   0  0  0  0  0  0  0  0  0  0  0  0
    8.4865   -0.8061   18.1803 H   0  0  0  0  0  0  0  0  0  0  0  0
   11.4241   -7.7171   26.2022 H   0  0  0  0  0  0  0  0  0  0  0  0
   10.4629   -8.1531   27.6275 H   0  0  0  0  0  0  0  0  0  0  0  0
   10.9950   -6.4780   27.3910 H   0  0  0  0  0  0  0  0  0  0  0  0
   15.2093    2.3581   22.5334 H   0  0  0  0  0  0  0  0  0  0  0  0
   15.6355    0.7354   23.1752 H   0  0  0  0  0  0  0  0  0  0  0  0
   14.7890    0.8729   21.6133 H   0  0  0  0  0  0  0  0  0  0  0  0
    9.5445    1.2076   24.6474 H   0  0  0  0  0  0  0  0  0  0  0  0
    9.6404    2.2225   23.2078 H   0  0  0  0  0  0  0  0  0  0  0  0
    8.5795   -6.7463   26.8137 H   0  0  0  0  0  0  0  0  0  0  0  0
    8.9965   -8.0064   25.6366 H   0  0  0  0  0  0  0  0  0  0  0  0
    8.8262   -1.4533   20.3842 H   0  0  0  0  0  0  0  0  0  0  0  0
    7.5540   -1.1950   21.6130 H   0  0  0  0  0  0  0  0  0  0  0  0
    8.9776   -4.7057   26.5317 H   0  0  0  0  0  0  0  0  0  0  0  0
  1  2  1  0  0  0  0
  1  3  2  0  0  0  0
  2  4  2  0  0  0  0
  3 13  1  0  0  0  0
  4 14  1  0  0  0  0
  5  7  2  0  0  0  0
  5 15  1  0  0  0  0
  6  8  1  0  0  0  0
  6 15  2  0  0  0  0
  7 16  1  0  0  0  0
  8 16  2  0  0  0  0
  9 12  1  0  0  0  0
  9 24  2  0  0  0  0
 10 12  2  0  0  0  0
 10 26  1  0  0  0  0
 11 25  2  0  0  0  0
 11 27  1  0  0  0  0
 12 21  1  0  0  0  0
 13 14  2  0  0  0  0
 13 25  1  0  0  0  0
 14 27  1  0  0  0  0
 15 28  1  0  0  0  0
 16 29  1  0  0  0  0
 17 22  1  0  0  0  0
 17 28  1  0  0  0  0
 17 30  2  0  0  0  0
 18 23  1  0  0  0  0
 18 29  1  0  0  0  0
 18 31  2  0  0  0  0
 19 22  1  0  0  0  0
 20 26  1  0  0  0  0
 21 29  1  0  0  0  0
 23 27  1  0  0  0  0
 24 26  1  0  0  0  0
  1 32  1  0  0  0  0
  2 33  1  0  0  0  0
  3 34  1  0  0  0  0
  4 35  1  0  0  0  0
  5 36  1  0  0  0  0
  6 37  1  0  0  0  0
  7 38  1  0  0  0  0
  8 39  1  0  0  0  0
  9 40  1  0  0  0  0
 10 41  1  0  0  0  0
 11 42  1  0  0  0  0
 19 43  1  0  0  0  0
 19 44  1  0  0  0  0
 19 45  1  0  0  0  0
 20 46  1  0  0  0  0
 20 47  1  0  0  0  0
 20 48  1  0  0  0  0
 21 49  1  0  0  0  0
 21 50  1  0  0  0  0
 22 51  1  0  0  0  0
 22 52  1  0  0  0  0
 23 53  1  0  0  0  0
 23 54  1  0  0  0  0
 28 55  1  0  0  0  0
M  END
> <clash_score>
1.498603890647447

> <docking_score>
-6.941702842712402

> <overlap_score>
0.9709724187850952

$$$$
BENZO_372_1
  -OEChem-08232013463D

 57 61  0     0  0  0  0  0  0999 V2000
    3.9160    2.0630   19.5520 C   0  0  0  0  0  0  0  0  0  0  0  0
    4.2750    1.7050   20.8490 C   0  0  0  0  0  0  0  0  0  0  0  0
    4.6890    1.6810   18.4640 C   0  0  0  0  0  0  0  0  0  0  0  0
    5.4210    0.9600   21.0930 C   0  0  0  0  0  0  0  0  0  0  0  0
    8.9960   -2.3380   25.5320 C   0  0  0  0  0  0  0  0  0  0  0  0
    9.6730   -3.4710   23.5300 C   0  0  0  0  0  0  0  0  0  0  0  0
    9.0720   -1.1280   24.8640 C   0  0  0  0  0  0  0  0  0  0  0  0
    9.7200   -2.2600   22.8630 C   0  0  0  0  0  0  0  0  0  0  0  0
   12.3563    1.4065   22.5961 C   0  0  0  0  0  0  0  0  0  0  0  0
   13.6849    1.4022   22.9600 C   0  0  0  0  0  0  0  0  0  0  0  0
   12.1926    1.2589   24.9100 C   0  0  0  0  0  0  0  0  0  0  0  0
    7.6390   -0.2680   18.5410 C   0  0  0  0  0  0  0  0  0  0  0  0
   11.4918    1.3236   23.7257 C   0  0  0  0  0  0  0  0  0  0  0  0
    5.8300    0.9190   18.6970 C   0  0  0  0  0  0  0  0  0  0  0  0
    6.1790    0.5730   19.9990 C   0  0  0  0  0  0  0  0  0  0  0  0
    9.3070   -3.5340   24.8780 C   0  0  0  0  0  0  0  0  0  0  0  0
    9.3350   -1.0880   23.5010 C   0  0  0  0  0  0  0  0  0  0  0  0
    9.0420    0.3700   21.5280 C   0  0  0  0  0  0  0  0  0  0  0  0
    7.2235   -6.6199   26.3009 C   0  0  0  0  0  0  0  0  0  0  0  0
    7.4293   -5.3101   27.0652 C   0  0  0  0  0  0  0  0  0  0  0  0
    7.7217   -6.5099   24.8580 C   0  0  0  0  0  0  0  0  0  0  0  0
    8.8782   -4.8357   26.9548 C   0  0  0  0  0  0  0  0  0  0  0  0
    9.1652   -6.0007   24.7995 C   0  0  0  0  0  0  0  0  0  0  0  0
    9.9933    1.3078   23.6337 C   0  0  0  0  0  0  0  0  0  0  0  0
    8.1890   -0.7180   20.8700 C   0  0  0  0  0  0  0  0  0  0  0  0
    6.7580    0.3810   17.8350 N   0  0  0  0  0  0  0  0  0  0  0  0
    7.3170   -0.1610   19.8550 N   0  0  0  0  0  0  0  0  0  0  0  0
    9.2562   -4.7384   25.5422 N   0  0  0  0  0  0  0  0  0  0  0  0
    9.4560    0.1560   22.8130 N   0  0  0  0  0  0  0  0  0  0  0  0
    9.2690    1.4140   20.9380 O   0  0  0  0  0  0  0  0  0  0  0  0
   13.8858    1.2985   24.6574 S   0  0  0  0  0  0  0  0  0  0  0  0
    3.0133    2.6526   19.3911 H   0  0  0  0  0  0  0  0  0  0  0  0
    3.6478    2.0143   21.6818 H   0  0  0  0  0  0  0  0  0  0  0  0
    4.4036    1.9735   17.4543 H   0  0  0  0  0  0  0  0  0  0  0  0
    5.7089    0.6922   22.1131 H   0  0  0  0  0  0  0  0  0  0  0  0
    8.6905   -2.3533   26.5810 H   0  0  0  0  0  0  0  0  0  0  0  0
    9.9266   -4.3896   22.9917 H   0  0  0  0  0  0  0  0  0  0  0  0
    8.9233   -0.1992   25.4231 H   0  0  0  0  0  0  0  0  0  0  0  0
   10.0650   -2.2330   21.8256 H   0  0  0  0  0  0  0  0  0  0  0  0
   12.0248    1.4659   21.5671 H   0  0  0  0  0  0  0  0  0  0  0  0
   14.5472    1.4542   22.3104 H   0  0  0  0  0  0  0  0  0  0  0  0
   11.7954    1.1891   25.9131 H   0  0  0  0  0  0  0  0  0  0  0  0
    8.4865   -0.8061   18.1803 H   0  0  0  0  0  0  0  0  0  0  0  0
    7.7559   -7.4347   26.8149 H   0  0  0  0  0  0  0  0  0  0  0  0
    6.1572   -6.8883   26.3055 H   0  0  0  0  0  0  0  0  0  0  0  0
    6.7602   -4.5435   26.6651 H   0  0  0  0  0  0  0  0  0  0  0  0
    7.1684   -5.4551   28.1155 H   0  0  0  0  0  0  0  0  0  0  0  0
    7.6595   -7.4899   24.3736 H   0  0  0  0  0  0  0  0  0  0  0  0
    7.0706   -5.8317   24.2943 H   0  0  0  0  0  0  0  0  0  0  0  0
    8.9681   -3.8621   27.4435 H   0  0  0  0  0  0  0  0  0  0  0  0
    9.5387   -5.5390   27.4697 H   0  0  0  0  0  0  0  0  0  0  0  0
    9.8374   -6.7413   25.2344 H   0  0  0  0  0  0  0  0  0  0  0  0
    9.4414   -5.8515   23.7552 H   0  0  0  0  0  0  0  0  0  0  0  0
    9.5459    1.2392   24.6313 H   0  0  0  0  0  0  0  0  0  0  0  0
    9.6182    2.2271   23.1715 H   0  0  0  0  0  0  0  0  0  0  0  0
    8.8326   -1.4554   20.3912 H   0  0  0  0  0  0  0  0  0  0  0  0
    7.5604   -1.1971   21.6201 H   0  0  0  0  0  0  0  0  0  0  0  0
  1  2  1  0  0  0  0
  1  3  2  0  0  0  0
  2  4  2  0  0  0  0
  3 14  1  0  0  0  0
  4 15  1  0  0  0  0
  5  7  2  0  0  0  0
  5 16  1  0  0  0  0
  6  8  1  0  0  0  0
  6 16  2  0  0  0  0
  7 17  1  0  0  0  0
  8 17  2  0  0  0  0
  9 10  2  0  0  0  0
  9 13  1  0  0  0  0
 10 31  1  0  0  0  0
 11 13  2  0  0  0  0
 11 31  1  0  0  0  0
 12 26  2  0  0  0  0
 12 27  1  0  0  0  0
 13 24  1  0  0  0  0
 14 15  2  0  0  0  0
 14 26  1  0  0  0  0
 15 27  1  0  0  0  0
 16 28  1  0  0  0  0
 17 29  1  0  0  0  0
 18 25  1  0  0  0  0
 18 29  1  0  0  0  0
 18 30  2  0  0  0  0
 19 20  1  0  0  0  0
 19 21  1  0  0  0  0
 20 22  1  0  0  0  0
 21 23  1  0  0  0  0
 22 28  1  0  0  0  0
 23 28  1  0  0  0  0
 24 29  1  0  0  0  0
 25 27  1  0  0  0  0
  1 32  1  0  0  0  0
  2 33  1  0  0  0  0
  3 34  1  0  0  0  0
  4 35  1  0  0  0  0
  5 36  1  0  0  0  0
  6 37  1  0  0  0  0
  7 38  1  0  0  0  0
  8 39  1  0  0  0  0
  9 40  1  0  0  0  0
 10 41  1  0  0  0  0
 11 42  1  0  0  0  0
 12 43  1  0  0  0  0
 19 44  1  0  0  0  0
 19 45  1  0  0  0  0
 20 46  1  0  0  0  0
 20 47  1  0  0  0  0
 21 48  1  0  0  0  0
 21 49  1  0  0  0  0
 22 50  1  0  0  0  0
 22 51  1  0  0  0  0
 23 52  1  0  0  0  0
 23 53  1  0  0  0  0
 24 54  1  0  0  0  0
 24 55  1  0  0  0  0
 25 56  1  0  0  0  0
 25 57  1  0  0  0  0
M  END
> <clash_score>
0

> <docking_score>
-9.335593223571777

> <overlap_score>
0.9770368933677673

$$$$
BENZO_370_1
  -OEChem-08232013463D

 55 58  0     0  0  0  0  0  0999 V2000
    3.9160    2.0630   19.5520 C   0  0  0  0  0  0  0  0  0  0  0  0
    4.2750    1.7050   20.8490 C   0  0  0  0  0  0  0  0  0  0  0  0
   13.6403    2.1523   23.0888 C   0  0  0  0  0  0  0  0  0  0  0  0
   12.2482    2.1724   23.0041 C   0  0  0  0  0  0  0  0  0  0  0  0
    4.6890    1.6810   18.4640 C   0  0  0  0  0  0  0  0  0  0  0  0
    5.4210    0.9600   21.0930 C   0  0  0  0  0  0  0  0  0  0  0  0
    8.9960   -2.3380   25.5320 C   0  0  0  0  0  0  0  0  0  0  0  0
    9.6730   -3.4710   23.5300 C   0  0  0  0  0  0  0  0  0  0  0  0
    9.0720   -1.1280   24.8640 C   0  0  0  0  0  0  0  0  0  0  0  0
    9.7200   -2.2600   22.8630 C   0  0  0  0  0  0  0  0  0  0  0  0
   14.2756    1.2216   23.9110 C   0  0  0  0  0  0  0  0  0  0  0  0
   12.1266    0.3314   24.5639 C   0  0  0  0  0  0  0  0  0  0  0  0
    7.6390   -0.2680   18.5410 C   0  0  0  0  0  0  0  0  0  0  0  0
   11.4913    1.2620   23.7417 C   0  0  0  0  0  0  0  0  0  0  0  0
    5.8300    0.9190   18.6970 C   0  0  0  0  0  0  0  0  0  0  0  0
    6.1790    0.5730   19.9990 C   0  0  0  0  0  0  0  0  0  0  0  0
    9.3070   -3.5340   24.8780 C   0  0  0  0  0  0  0  0  0  0  0  0
    9.3350   -1.0880   23.5010 C   0  0  0  0  0  0  0  0  0  0  0  0
   13.5188    0.3113   24.6486 C   0  0  0  0  0  0  0  0  0  0  0  0
    9.5333   -6.0236   25.0413 C   0  0  0  0  0  0  0  0  0  0  0  0
    9.0420    0.3700   21.5280 C   0  0  0  0  0  0  0  0  0  0  0  0
   10.6330   -7.3747   26.8774 C   0  0  0  0  0  0  0  0  0  0  0  0
    9.9928    1.2851   23.6509 C   0  0  0  0  0  0  0  0  0  0  0  0
    9.3523   -7.0865   26.1148 C   0  0  0  0  0  0  0  0  0  0  0  0
    8.1890   -0.7180   20.8700 C   0  0  0  0  0  0  0  0  0  0  0  0
    6.7580    0.3810   17.8350 N   0  0  0  0  0  0  0  0  0  0  0  0
    7.3170   -0.1610   19.8550 N   0  0  0  0  0  0  0  0  0  0  0  0
    9.2546   -4.7422   25.5438 N   0  0  0  0  0  0  0  0  0  0  0  0
    9.4560    0.1560   22.8130 N   0  0  0  0  0  0  0  0  0  0  0  0
    9.8805   -6.3052   23.8991 O   0  0  0  0  0  0  0  0  0  0  0  0
    9.2690    1.4140   20.9380 O   0  0  0  0  0  0  0  0  0  0  0  0
   14.3031   -0.8359   25.6637 Cl  0  0  0  0  0  0  0  0  0  0  0  0
    3.0133    2.6526   19.3911 H   0  0  0  0  0  0  0  0  0  0  0  0
    3.6478    2.0143   21.6818 H   0  0  0  0  0  0  0  0  0  0  0  0
   14.2293    2.8615   22.5144 H   0  0  0  0  0  0  0  0  0  0  0  0
   11.7616    2.9011   22.3610 H   0  0  0  0  0  0  0  0  0  0  0  0
    4.4036    1.9735   17.4543 H   0  0  0  0  0  0  0  0  0  0  0  0
    5.7089    0.6922   22.1131 H   0  0  0  0  0  0  0  0  0  0  0  0
    8.6895   -2.3529   26.5807 H   0  0  0  0  0  0  0  0  0  0  0  0
    9.9262   -4.3897   22.9916 H   0  0  0  0  0  0  0  0  0  0  0  0
    8.9224   -0.1998   25.4238 H   0  0  0  0  0  0  0  0  0  0  0  0
   10.0649   -2.2343   21.8258 H   0  0  0  0  0  0  0  0  0  0  0  0
   15.3614    1.2177   23.9674 H   0  0  0  0  0  0  0  0  0  0  0  0
   11.5321   -0.3766   25.1366 H   0  0  0  0  0  0  0  0  0  0  0  0
    8.4865   -0.8061   18.1803 H   0  0  0  0  0  0  0  0  0  0  0  0
   11.4241   -7.7171   26.2022 H   0  0  0  0  0  0  0  0  0  0  0  0
   10.4629   -8.1531   27.6275 H   0  0  0  0  0  0  0  0  0  0  0  0
   10.9950   -6.4780   27.3910 H   0  0  0  0  0  0  0  0  0  0  0  0
    9.5445    1.2076   24.6474 H   0  0  0  0  0  0  0  0  0  0  0  0
    9.6404    2.2225   23.2078 H   0  0  0  0  0  0  0  0  0  0  0  0
    8.5795   -6.7463   26.8137 H   0  0  0  0  0  0  0  0  0  0  0  0
    8.9965   -8.0064   25.6366 H   0  0  0  0  0  0  0  0  0  0  0  0
    8.8262   -1.4533   20.3842 H   0  0  0  0  0  0  0  0  0  0  0  0
    7.5540   -1.1950   21.6130 H   0  0  0  0  0  0  0  0  0  0  0  0
    8.9776   -4.7057   26.5317 H   0  0  0  0  0  0  0  0  0  0  0  0
  1  2  1  0  0  0  0
  1  5  2  0  0  0  0
  2  6  2  0  0  0  0
  3  4  2  0  0  0  0
  3 11  1  0  0  0  0
  4 14  1  0  0  0  0
  5 15  1  0  0  0  0
  6 16  1  0  0  0  0
  7  9  2  0  0  0  0
  7 17  1  0  0  0  0
  8 10  1  0  0  0  0
  8 17  2  0  0  0  0
  9 18  1  0  0  0  0
 10 18  2  0  0  0  0
 11 19  2  0  0  0  0
 12 14  2  0  0  0  0
 12 19  1  0  0  0  0
 13 26  2  0  0  0  0
 13 27  1  0  0  0  0
 14 23  1  0  0  0  0
 15 16  2  0  0  0  0
 15 26  1  0  0  0  0
 16 27  1  0  0  0  0
 17 28  1  0  0  0  0
 18 29  1  0  0  0  0
 19 32  1  0  0  0  0
 20 24  1  0  0  0  0
 20 28  1  0  0  0  0
 20 30  2  0  0  0  0
 21 25  1  0  0  0  0
 21 29  1  0  0  0  0
 21 31  2  0  0  0  0
 22 24  1  0  0  0  0
 23 29  1  0  0  0  0
 25 27  1  0  0  0  0
  1 33  1  0  0  0  0
  2 34  1  0  0  0  0
  3 35  1  0  0  0  0
  4 36  1  0  0  0  0
  5 37  1  0  0  0  0
  6 38  1  0  0  0  0
  7 39  1  0  0  0  0
  8 40  1  0  0  0  0
  9 41  1  0  0  0  0
 10 42  1  0  0  0  0
 11 43  1  0  0  0  0
 12 44  1  0  0  0  0
 13 45  1  0  0  0  0
 22 46  1  0  0  0  0
 22 47  1  0  0  0  0
 22 48  1  0  0  0  0
 23 49  1  0  0  0  0
 23 50  1  0  0  0  0
 24 51  1  0  0  0  0
 24 52  1  0  0  0  0
 25 53  1  0  0  0  0
 25 54  1  0  0  0  0
 28 55  1  0  0  0  0
M  END
> <clash_score>
2.158805756225635

> <docking_score>
-5.979398250579834

> <overlap_score>
0.9815089702606201

$$$$
BENZO_377_1
  -OEChem-08232013463D

 48 51  0     0  0  0  0  0  0999 V2000
   14.2757    1.2195   23.9089 C   0  0  0  0  0  0  0  0  0  0  0  0
   13.5099    0.5331   24.8512 C   0  0  0  0  0  0  0  0  0  0  0  0
   13.6494    1.9272   22.8829 C   0  0  0  0  0  0  0  0  0  0  0  0
    3.9160    2.0630   19.5520 C   0  0  0  0  0  0  0  0  0  0  0  0
    4.2750    1.7050   20.8490 C   0  0  0  0  0  0  0  0  0  0  0  0
   12.1177    0.5544   24.7676 C   0  0  0  0  0  0  0  0  0  0  0  0
   12.2572    1.9484   22.7993 C   0  0  0  0  0  0  0  0  0  0  0  0
    8.9960   -2.3380   25.5320 C   0  0  0  0  0  0  0  0  0  0  0  0
    9.6730   -3.4710   23.5300 C   0  0  0  0  0  0  0  0  0  0  0  0
    4.6890    1.6810   18.4640 C   0  0  0  0  0  0  0  0  0  0  0  0
    5.4210    0.9600   21.0930 C   0  0  0  0  0  0  0  0  0  0  0  0
    9.0720   -1.1280   24.8640 C   0  0  0  0  0  0  0  0  0  0  0  0
    9.7200   -2.2600   22.8630 C   0  0  0  0  0  0  0  0  0  0  0  0
    7.6390   -0.2680   18.5410 C   0  0  0  0  0  0  0  0  0  0  0  0
    9.3070   -3.5340   24.8780 C   0  0  0  0  0  0  0  0  0  0  0  0
   11.4913    1.2620   23.7417 C   0  0  0  0  0  0  0  0  0  0  0  0
    5.8300    0.9190   18.6970 C   0  0  0  0  0  0  0  0  0  0  0  0
    6.1790    0.5730   19.9990 C   0  0  0  0  0  0  0  0  0  0  0  0
    9.3350   -1.0880   23.5010 C   0  0  0  0  0  0  0  0  0  0  0  0
    9.0420    0.3700   21.5280 C   0  0  0  0  0  0  0  0  0  0  0  0
    9.2505   -4.8264   25.5904 C   0  0  0  0  0  0  0  0  0  0  0  0
    9.9928    1.2851   23.6509 C   0  0  0  0  0  0  0  0  0  0  0  0
    8.1890   -0.7180   20.8700 C   0  0  0  0  0  0  0  0  0  0  0  0
    6.7580    0.3810   17.8350 N   0  0  0  0  0  0  0  0  0  0  0  0
    7.3170   -0.1610   19.8550 N   0  0  0  0  0  0  0  0  0  0  0  0
    9.4560    0.1560   22.8130 N   0  0  0  0  0  0  0  0  0  0  0  0
    9.2690    1.4140   20.9380 O   0  0  0  0  0  0  0  0  0  0  0  0
   15.3597    1.2039   23.9749 H   0  0  0  0  0  0  0  0  0  0  0  0
   13.9974   -0.0171   25.6508 H   0  0  0  0  0  0  0  0  0  0  0  0
   14.2453    2.4626   22.1497 H   0  0  0  0  0  0  0  0  0  0  0  0
    3.0133    2.6526   19.3911 H   0  0  0  0  0  0  0  0  0  0  0  0
    3.6478    2.0143   21.6818 H   0  0  0  0  0  0  0  0  0  0  0  0
   11.5291    0.0165   25.5062 H   0  0  0  0  0  0  0  0  0  0  0  0
   11.7778    2.5024   21.9965 H   0  0  0  0  0  0  0  0  0  0  0  0
    8.6919   -2.3557   26.5813 H   0  0  0  0  0  0  0  0  0  0  0  0
    9.9267   -4.3907   22.9939 H   0  0  0  0  0  0  0  0  0  0  0  0
    4.4036    1.9735   17.4543 H   0  0  0  0  0  0  0  0  0  0  0  0
    5.7089    0.6922   22.1131 H   0  0  0  0  0  0  0  0  0  0  0  0
    8.9217   -0.1995   25.4231 H   0  0  0  0  0  0  0  0  0  0  0  0
   10.0653   -2.2339   21.8256 H   0  0  0  0  0  0  0  0  0  0  0  0
    8.4865   -0.8061   18.1803 H   0  0  0  0  0  0  0  0  0  0  0  0
    8.2503   -5.2678   25.5020 H   0  0  0  0  0  0  0  0  0  0  0  0
    9.9817   -5.5374   25.1845 H   0  0  0  0  0  0  0  0  0  0  0  0
    9.4841   -4.7043   26.6562 H   0  0  0  0  0  0  0  0  0  0  0  0
    9.5445    1.2076   24.6474 H   0  0  0  0  0  0  0  0  0  0  0  0
    9.6404    2.2225   23.2078 H   0  0  0  0  0  0  0  0  0  0  0  0
    8.8262   -1.4533   20.3842 H   0  0  0  0  0  0  0  0  0  0  0  0
    7.5540   -1.1950   21.6130 H   0  0  0  0  0  0  0  0  0  0  0  0
  1  2  1  0  0  0  0
  1  3  2  0  0  0  0
  2  6  2  0  0  0  0
  3  7  1  0  0  0  0
  4  5  1  0  0  0  0
  4 10  2  0  0  0  0
  5 11  2  0  0  0  0
  6 16  1  0  0  0  0
  7 16  2  0  0  0  0
  8 12  2  0  0  0  0
  8 15  1  0  0  0  0
  9 13  1  0  0  0  0
  9 15  2  0  0  0  0
 10 17  1  0  0  0  0
 11 18  1  0  0  0  0
 12 19  1  0  0  0  0
 13 19  2  0  0  0  0
 14 24  2  0  0  0  0
 14 25  1  0  0  0  0
 15 21  1  0  0  0  0
 16 22  1  0  0  0  0
 17 18  2  0  0  0  0
 17 24  1  0  0  0  0
 18 25  1  0  0  0  0
 19 26  1  0  0  0  0
 20 23  1  0  0  0  0
 20 26  1  0  0  0  0
 20 27  2  0  0  0  0
 22 26  1  0  0  0  0
 23 25  1  0  0  0  0
  1 28  1  0  0  0  0
  2 29  1  0  0  0  0
  3 30  1  0  0  0  0
  4 31  1  0  0  0  0
  5 32  1  0  0  0  0
  6 33  1  0  0  0  0
  7 34  1  0  0  0  0
  8 35  1  0  0  0  0
  9 36  1  0  0  0  0
 10 37  1  0  0  0  0
 11 38  1  0  0  0  0
 12 39  1  0  0  0  0
 13 40  1  0  0  0  0
 14 41  1  0  0  0  0
 21 42  1  0  0  0  0
 21 43  1  0  0  0  0
 21 44  1  0  0  0  0
 22 45  1  0  0  0  0
 22 46  1  0  0  0  0
 23 47  1  0  0  0  0
 23 48  1  0  0  0  0
M  END
> <clash_score>
0

> <docking_score>
-9.692996978759766

> <overlap_score>
0.9374892711639404

$$$$
BENZO_376_1
  -OEChem-08232013463D

 45 48  0     0  0  0  0  0  0999 V2000
    3.9160    2.0630   19.5520 C   0  0  0  0  0  0  0  0  0  0  0  0
    4.2750    1.7050   20.8490 C   0  0  0  0  0  0  0  0  0  0  0  0
    8.9960   -2.3380   25.5320 C   0  0  0  0  0  0  0  0  0  0  0  0
    9.6730   -3.4710   23.5300 C   0  0  0  0  0  0  0  0  0  0  0  0
    4.6890    1.6810   18.4640 C   0  0  0  0  0  0  0  0  0  0  0  0
    5.4210    0.9600   21.0930 C   0  0  0  0  0  0  0  0  0  0  0  0
    9.0720   -1.1280   24.8640 C   0  0  0  0  0  0  0  0  0  0  0  0
    9.7200   -2.2600   22.8630 C   0  0  0  0  0  0  0  0  0  0  0  0
   12.2966    2.4285   23.8870 C   0  0  0  0  0  0  0  0  0  0  0  0
   13.6394    2.1264   23.9445 C   0  0  0  0  0  0  0  0  0  0  0  0
   12.2494    0.1127   23.6934 C   0  0  0  0  0  0  0  0  0  0  0  0
    7.6390   -0.2680   18.5410 C   0  0  0  0  0  0  0  0  0  0  0  0
    9.3070   -3.5340   24.8780 C   0  0  0  0  0  0  0  0  0  0  0  0
   11.4913    1.2620   23.7417 C   0  0  0  0  0  0  0  0  0  0  0  0
    5.8300    0.9190   18.6970 C   0  0  0  0  0  0  0  0  0  0  0  0
    6.1790    0.5730   19.9990 C   0  0  0  0  0  0  0  0  0  0  0  0
    9.3350   -1.0880   23.5010 C   0  0  0  0  0  0  0  0  0  0  0  0
    9.0420    0.3700   21.5280 C   0  0  0  0  0  0  0  0  0  0  0  0
    9.2505   -4.8264   25.5904 C   0  0  0  0  0  0  0  0  0  0  0  0
    9.9928    1.2851   23.6509 C   0  0  0  0  0  0  0  0  0  0  0  0
    8.1890   -0.7180   20.8700 C   0  0  0  0  0  0  0  0  0  0  0  0
    6.7580    0.3810   17.8350 N   0  0  0  0  0  0  0  0  0  0  0  0
    7.3170   -0.1610   19.8550 N   0  0  0  0  0  0  0  0  0  0  0  0
    9.4560    0.1560   22.8130 N   0  0  0  0  0  0  0  0  0  0  0  0
    9.2690    1.4140   20.9380 O   0  0  0  0  0  0  0  0  0  0  0  0
   13.9248    0.4423   23.8234 S   0  0  0  0  0  0  0  0  0  0  0  0
    3.0133    2.6526   19.3911 H   0  0  0  0  0  0  0  0  0  0  0  0
    3.6478    2.0143   21.6818 H   0  0  0  0  0  0  0  0  0  0  0  0
    8.6919   -2.3557   26.5813 H   0  0  0  0  0  0  0  0  0  0  0  0
    9.9267   -4.3907   22.9939 H   0  0  0  0  0  0  0  0  0  0  0  0
    4.4036    1.9735   17.4543 H   0  0  0  0  0  0  0  0  0  0  0  0
    5.7089    0.6922   22.1131 H   0  0  0  0  0  0  0  0  0  0  0  0
    8.9217   -0.1995   25.4231 H   0  0  0  0  0  0  0  0  0  0  0  0
   10.0653   -2.2339   21.8256 H   0  0  0  0  0  0  0  0  0  0  0  0
   11.9145    3.4398   23.9463 H   0  0  0  0  0  0  0  0  0  0  0  0
   14.4664    2.8140   24.0511 H   0  0  0  0  0  0  0  0  0  0  0  0
   11.9038   -0.9062   23.5870 H   0  0  0  0  0  0  0  0  0  0  0  0
    8.4865   -0.8061   18.1803 H   0  0  0  0  0  0  0  0  0  0  0  0
    8.2503   -5.2678   25.5020 H   0  0  0  0  0  0  0  0  0  0  0  0
    9.9817   -5.5374   25.1845 H   0  0  0  0  0  0  0  0  0  0  0  0
    9.4841   -4.7043   26.6562 H   0  0  0  0  0  0  0  0  0  0  0  0
    9.5445    1.2076   24.6474 H   0  0  0  0  0  0  0  0  0  0  0  0
    9.6404    2.2225   23.2078 H   0  0  0  0  0  0  0  0  0  0  0  0
    8.8262   -1.4533   20.3842 H   0  0  0  0  0  0  0  0  0  0  0  0
    7.5540   -1.1950   21.6130 H   0  0  0  0  0  0  0  0  0  0  0  0
  1  2  1  0  0  0  0
  1  5  2  0  0  0  0
  2  6  2  0  0  0  0
  3  7  2  0  0  0  0
  3 13  1  0  0  0  0
  4  8  1  0  0  0  0
  4 13  2  0  0  0  0
  5 15  1  0  0  0  0
  6 16  1  0  0  0  0
  7 17  1  0  0  0  0
  8 17  2  0  0  0  0
  9 10  2  0  0  0  0
  9 14  1  0  0  0  0
 10 26  1  0  0  0  0
 11 14  2  0  0  0  0
 11 26  1  0  0  0  0
 12 22  2  0  0  0  0
 12 23  1  0  0  0  0
 13 19  1  0  0  0  0
 14 20  1  0  0  0  0
 15 16  2  0  0  0  0
 15 22  1  0  0  0  0
 16 23  1  0  0  0  0
 17 24  1  0  0  0  0
 18 21  1  0  0  0  0
 18 24  1  0  0  0  0
 18 25  2  0  0  0  0
 20 24  1  0  0  0  0
 21 23  1  0  0  0  0
  1 27  1  0  0  0  0
  2 28  1  0  0  0  0
  3 29  1  0  0  0  0
  4 30  1  0  0  0  0
  5 31  1  0  0  0  0
  6 32  1  0  0  0  0
  7 33  1  0  0  0  0
  8 34  1  0  0  0  0
  9 35  1  0  0  0  0
 10 36  1  0  0  0  0
 11 37  1  0  0  0  0
 12 38  1  0  0  0  0
 19 39  1  0  0  0  0
 19 40  1  0  0  0  0
 19 41  1  0  0  0  0
 20 42  1  0  0  0  0
 20 43  1  0  0  0  0
 21 44  1  0  0  0  0
 21 45  1  0  0  0  0
M  END
> <clash_score>
0

> <docking_score>
-8.653688430786133

> <overlap_score>
0.9222690463066101

$$$$
BENZO_374_1
  -OEChem-08232013463D

 60 64  0     0  0  0  0  0  0999 V2000
    3.9160    2.0630   19.5520 C   0  0  0  0  0  0  0  0  0  0  0  0
    4.2750    1.7050   20.8490 C   0  0  0  0  0  0  0  0  0  0  0  0
   13.5399    0.4378   24.6515 C   0  0  0  0  0  0  0  0  0  0  0  0
   12.1478    0.4245   24.5664 C   0  0  0  0  0  0  0  0  0  0  0  0
    4.6890    1.6810   18.4640 C   0  0  0  0  0  0  0  0  0  0  0  0
    5.4210    0.9600   21.0930 C   0  0  0  0  0  0  0  0  0  0  0  0
    8.9960   -2.3380   25.5320 C   0  0  0  0  0  0  0  0  0  0  0  0
    9.6730   -3.4710   23.5300 C   0  0  0  0  0  0  0  0  0  0  0  0
    9.0720   -1.1280   24.8640 C   0  0  0  0  0  0  0  0  0  0  0  0
    9.7200   -2.2600   22.8630 C   0  0  0  0  0  0  0  0  0  0  0  0
   14.2762    1.3505   23.8959 C   0  0  0  0  0  0  0  0  0  0  0  0
   12.2280    2.2362   22.9700 C   0  0  0  0  0  0  0  0  0  0  0  0
    7.6390   -0.2680   18.5410 C   0  0  0  0  0  0  0  0  0  0  0  0
   11.4918    1.3236   23.7257 C   0  0  0  0  0  0  0  0  0  0  0  0
    5.8300    0.9190   18.6970 C   0  0  0  0  0  0  0  0  0  0  0  0
    6.1790    0.5730   19.9990 C   0  0  0  0  0  0  0  0  0  0  0  0
    9.3070   -3.5340   24.8780 C   0  0  0  0  0  0  0  0  0  0  0  0
    9.3350   -1.0880   23.5010 C   0  0  0  0  0  0  0  0  0  0  0  0
   13.6202    2.2496   23.0552 C   0  0  0  0  0  0  0  0  0  0  0  0
    9.0420    0.3700   21.5280 C   0  0  0  0  0  0  0  0  0  0  0  0
    7.3635   -6.1361   27.1888 C   0  0  0  0  0  0  0  0  0  0  0  0
    8.1961   -4.9735   27.7341 C   0  0  0  0  0  0  0  0  0  0  0  0
    7.1942   -6.0394   25.6709 C   0  0  0  0  0  0  0  0  0  0  0  0
    9.5196   -4.8490   26.9797 C   0  0  0  0  0  0  0  0  0  0  0  0
    8.5442   -5.8838   24.9639 C   0  0  0  0  0  0  0  0  0  0  0  0
    9.9933    1.3078   23.6337 C   0  0  0  0  0  0  0  0  0  0  0  0
    8.1890   -0.7180   20.8700 C   0  0  0  0  0  0  0  0  0  0  0  0
    6.7580    0.3810   17.8350 N   0  0  0  0  0  0  0  0  0  0  0  0
    7.3170   -0.1610   19.8550 N   0  0  0  0  0  0  0  0  0  0  0  0
    9.2562   -4.7384   25.5422 N   0  0  0  0  0  0  0  0  0  0  0  0
    9.4560    0.1560   22.8130 N   0  0  0  0  0  0  0  0  0  0  0  0
    9.2690    1.4140   20.9380 O   0  0  0  0  0  0  0  0  0  0  0  0
   14.5291    3.3745   22.1224 Cl  0  0  0  0  0  0  0  0  0  0  0  0
    3.0133    2.6526   19.3911 H   0  0  0  0  0  0  0  0  0  0  0  0
    3.6478    2.0143   21.6818 H   0  0  0  0  0  0  0  0  0  0  0  0
   14.0504   -0.2626   25.3062 H   0  0  0  0  0  0  0  0  0  0  0  0
   11.5822   -0.2901   25.1587 H   0  0  0  0  0  0  0  0  0  0  0  0
    4.4036    1.9735   17.4543 H   0  0  0  0  0  0  0  0  0  0  0  0
    5.7089    0.6922   22.1131 H   0  0  0  0  0  0  0  0  0  0  0  0
    8.6905   -2.3533   26.5810 H   0  0  0  0  0  0  0  0  0  0  0  0
    9.9266   -4.3896   22.9917 H   0  0  0  0  0  0  0  0  0  0  0  0
    8.9233   -0.1992   25.4231 H   0  0  0  0  0  0  0  0  0  0  0  0
   10.0650   -2.2330   21.8256 H   0  0  0  0  0  0  0  0  0  0  0  0
   15.3607    1.3493   23.9721 H   0  0  0  0  0  0  0  0  0  0  0  0
   11.7118    2.9356   22.3164 H   0  0  0  0  0  0  0  0  0  0  0  0
    8.4865   -0.8061   18.1803 H   0  0  0  0  0  0  0  0  0  0  0  0
    7.8482   -7.0901   27.4469 H   0  0  0  0  0  0  0  0  0  0  0  0
    6.3760   -6.1438   27.6724 H   0  0  0  0  0  0  0  0  0  0  0  0
    7.6307   -4.0424   27.6403 H   0  0  0  0  0  0  0  0  0  0  0  0
    8.3915   -5.1310   28.7968 H   0  0  0  0  0  0  0  0  0  0  0  0
    6.6888   -6.9376   25.3010 H   0  0  0  0  0  0  0  0  0  0  0  0
    6.5515   -5.1859   25.4257 H   0  0  0  0  0  0  0  0  0  0  0  0
   10.0492   -3.9640   27.3414 H   0  0  0  0  0  0  0  0  0  0  0  0
   10.1431   -5.7254   27.1778 H   0  0  0  0  0  0  0  0  0  0  0  0
    9.1338   -6.7931   25.0868 H   0  0  0  0  0  0  0  0  0  0  0  0
    8.3656   -5.7264   23.8998 H   0  0  0  0  0  0  0  0  0  0  0  0
    9.5459    1.2392   24.6313 H   0  0  0  0  0  0  0  0  0  0  0  0
    9.6182    2.2271   23.1715 H   0  0  0  0  0  0  0  0  0  0  0  0
    8.8326   -1.4554   20.3912 H   0  0  0  0  0  0  0  0  0  0  0  0
    7.5604   -1.1971   21.6201 H   0  0  0  0  0  0  0  0  0  0  0  0
  1  2  1  0  0  0  0
  1  5  2  0  0  0  0
  2  6  2  0  0  0  0
  3  4  2  0  0  0  0
  3 11  1  0  0  0  0
  4 14  1  0  0  0  0
  5 15  1  0  0  0  0
  6 16  1  0  0  0  0
  7  9  2  0  0  0  0
  7 17  1  0  0  0  0
  8 10  1  0  0  0  0
  8 17  2  0  0  0  0
  9 18  1  0  0  0  0
 10 18  2  0  0  0  0
 11 19  2  0  0  0  0
 12 14  2  0  0  0  0
 12 19  1  0  0  0  0
 13 28  2  0  0  0  0
 13 29  1  0  0  0  0
 14 26  1  0  0  0  0
 15 16  2  0  0  0  0
 15 28  1  0  0  0  0
 16 29  1  0  0  0  0
 17 30  1  0  0  0  0
 18 31  1  0  0  0  0
 19 33  1  0  0  0  0
 20 27  1  0  0  0  0
 20 31  1  0  0  0  0
 20 32  2  0  0  0  0
 21 22  1  0  0  0  0
 21 23  1  0  0  0  0
 22 24  1  0  0  0  0
 23 25  1  0  0  0  0
 24 30  1  0  0  0  0
 25 30  1  0  0  0  0
 26 31  1  0  0  0  0
 27 29  1  0  0  0  0
  1 34  1  0  0  0  0
  2 35  1  0  0  0  0
  3 36  1  0  0  0  0
  4 37  1  0  0  0  0
  5 38  1  0  0  0  0
  6 39  1  0  0  0  0
  7 40  1  0  0  0  0
  8 41  1  0  0  0  0
  9 42  1  0  0  0  0
 10 43  1  0  0  0  0
 11 44  1  0  0  0  0
 12 45  1  0  0  0  0
 13 46  1  0  0  0  0
 21 47  1  0  0  0  0
 21 48  1  0  0  0  0
 22 49  1  0  0  0  0
 22 50  1  0  0  0  0
 23 51  1  0  0  0  0
 23 52  1  0  0  0  0
 24 53  1  0  0  0  0
 24 54  1  0  0  0  0
 25 55  1  0  0  0  0
 25 56  1  0  0  0  0
 26 57  1  0  0  0  0
 26 58  1  0  0  0  0
 27 59  1  0  0  0  0
 27 60  1  0  0  0  0
M  END
> <clash_score>
0

> <docking_score>
-8.29782485961914

> <overlap_score>
1.003443717956543

$$$$
BENZO_375_1
  -OEChem-08232013463D

 60 64  0     0  0  0  0  0  0999 V2000
    3.9160    2.0630   19.5520 C   0  0  0  0  0  0  0  0  0  0  0  0
    4.2750    1.7050   20.8490 C   0  0  0  0  0  0  0  0  0  0  0  0
    4.6890    1.6810   18.4640 C   0  0  0  0  0  0  0  0  0  0  0  0
    5.4210    0.9600   21.0930 C   0  0  0  0  0  0  0  0  0  0  0  0
    8.9960   -2.3380   25.5320 C   0  0  0  0  0  0  0  0  0  0  0  0
    9.6730   -3.4710   23.5300 C   0  0  0  0  0  0  0  0  0  0  0  0
    9.0720   -1.1280   24.8640 C   0  0  0  0  0  0  0  0  0  0  0  0
    9.7200   -2.2600   22.8630 C   0  0  0  0  0  0  0  0  0  0  0  0
   12.2867    1.2627   24.8859 C   0  0  0  0  0  0  0  0  0  0  0  0
   12.3954    1.3982   22.6939 C   0  0  0  0  0  0  0  0  0  0  0  0
    7.6390   -0.2680   18.5410 C   0  0  0  0  0  0  0  0  0  0  0  0
   11.4918    1.3236   23.7257 C   0  0  0  0  0  0  0  0  0  0  0  0
    5.8300    0.9190   18.6970 C   0  0  0  0  0  0  0  0  0  0  0  0
    6.1790    0.5730   19.9990 C   0  0  0  0  0  0  0  0  0  0  0  0
    9.3070   -3.5340   24.8780 C   0  0  0  0  0  0  0  0  0  0  0  0
    9.3350   -1.0880   23.5010 C   0  0  0  0  0  0  0  0  0  0  0  0
    9.0420    0.3700   21.5280 C   0  0  0  0  0  0  0  0  0  0  0  0
    7.3635   -6.1361   27.1888 C   0  0  0  0  0  0  0  0  0  0  0  0
    8.1961   -4.9735   27.7341 C   0  0  0  0  0  0  0  0  0  0  0  0
    7.1942   -6.0394   25.6709 C   0  0  0  0  0  0  0  0  0  0  0  0
    9.5196   -4.8490   26.9797 C   0  0  0  0  0  0  0  0  0  0  0  0
    8.5442   -5.8838   24.9639 C   0  0  0  0  0  0  0  0  0  0  0  0
   14.8988    1.4355   22.5936 C   0  0  0  0  0  0  0  0  0  0  0  0
    9.9933    1.3078   23.6337 C   0  0  0  0  0  0  0  0  0  0  0  0
    8.1890   -0.7180   20.8700 C   0  0  0  0  0  0  0  0  0  0  0  0
   13.5946    1.2956   24.6172 N   0  0  0  0  0  0  0  0  0  0  0  0
    6.7580    0.3810   17.8350 N   0  0  0  0  0  0  0  0  0  0  0  0
   13.6285    1.3779   23.2763 N   0  0  0  0  0  0  0  0  0  0  0  0
    7.3170   -0.1610   19.8550 N   0  0  0  0  0  0  0  0  0  0  0  0
    9.2562   -4.7384   25.5422 N   0  0  0  0  0  0  0  0  0  0  0  0
    9.4560    0.1560   22.8130 N   0  0  0  0  0  0  0  0  0  0  0  0
    9.2690    1.4140   20.9380 O   0  0  0  0  0  0  0  0  0  0  0  0
    3.0133    2.6526   19.3911 H   0  0  0  0  0  0  0  0  0  0  0  0
    3.6478    2.0143   21.6818 H   0  0  0  0  0  0  0  0  0  0  0  0
    4.4036    1.9735   17.4543 H   0  0  0  0  0  0  0  0  0  0  0  0
    5.7089    0.6922   22.1131 H   0  0  0  0  0  0  0  0  0  0  0  0
    8.6905   -2.3533   26.5810 H   0  0  0  0  0  0  0  0  0  0  0  0
    9.9266   -4.3896   22.9917 H   0  0  0  0  0  0  0  0  0  0  0  0
    8.9233   -0.1992   25.4231 H   0  0  0  0  0  0  0  0  0  0  0  0
   10.0650   -2.2330   21.8256 H   0  0  0  0  0  0  0  0  0  0  0  0
   11.9697    1.1948   25.9170 H   0  0  0  0  0  0  0  0  0  0  0  0
   12.2691    1.4611   21.6216 H   0  0  0  0  0  0  0  0  0  0  0  0
    8.4865   -0.8061   18.1803 H   0  0  0  0  0  0  0  0  0  0  0  0
    7.8482   -7.0901   27.4469 H   0  0  0  0  0  0  0  0  0  0  0  0
    6.3760   -6.1438   27.6724 H   0  0  0  0  0  0  0  0  0  0  0  0
    7.6307   -4.0424   27.6403 H   0  0  0  0  0  0  0  0  0  0  0  0
    8.3915   -5.1310   28.7968 H   0  0  0  0  0  0  0  0  0  0  0  0
    6.6888   -6.9376   25.3010 H   0  0  0  0  0  0  0  0  0  0  0  0
    6.5515   -5.1859   25.4257 H   0  0  0  0  0  0  0  0  0  0  0  0
   10.0492   -3.9640   27.3414 H   0  0  0  0  0  0  0  0  0  0  0  0
   10.1431   -5.7254   27.1778 H   0  0  0  0  0  0  0  0  0  0  0  0
    9.1338   -6.7931   25.0868 H   0  0  0  0  0  0  0  0  0  0  0  0
    8.3656   -5.7264   23.8998 H   0  0  0  0  0  0  0  0  0  0  0  0
   15.1828    2.4868   22.4977 H   0  0  0  0  0  0  0  0  0  0  0  0
   15.6483    0.8884   23.1722 H   0  0  0  0  0  0  0  0  0  0  0  0
   14.8004    0.9734   21.6074 H   0  0  0  0  0  0  0  0  0  0  0  0
    9.5459    1.2392   24.6313 H   0  0  0  0  0  0  0  0  0  0  0  0
    9.6182    2.2271   23.1715 H   0  0  0  0  0  0  0  0  0  0  0  0
    8.8326   -1.4554   20.3912 H   0  0  0  0  0  0  0  0  0  0  0  0
    7.5604   -1.1971   21.6201 H   0  0  0  0  0  0  0  0  0  0  0  0
  1  2  1  0  0  0  0
  1  3  2  0  0  0  0
  2  4  2  0  0  0  0
  3 13  1  0  0  0  0
  4 14  1  0  0  0  0
  5  7  2  0  0  0  0
  5 15  1  0  0  0  0
  6  8  1  0  0  0  0
  6 15  2  0  0  0  0
  7 16  1  0  0  0  0
  8 16  2  0  0  0  0
  9 12  1  0  0  0  0
  9 26  2  0  0  0  0
 10 12  2  0  0  0  0
 10 28  1  0  0  0  0
 11 27  2  0  0  0  0
 11 29  1  0  0  0  0
 12 24  1  0  0  0  0
 13 14  2  0  0  0  0
 13 27  1  0  0  0  0
 14 29  1  0  0  0  0
 15 30  1  0  0  0  0
 16 31  1  0  0  0  0
 17 25  1  0  0  0  0
 17 31  1  0  0  0  0
 17 32  2  0  0  0  0
 18 19  1  0  0  0  0
 18 20  1  0  0  0  0
 19 21  1  0  0  0  0
 20 22  1  0  0  0  0
 21 30  1  0  0  0  0
 22 30  1  0  0  0  0
 23 28  1  0  0  0  0
 24 31  1  0  0  0  0
 25 29  1  0  0  0  0
 26 28  1  0  0  0  0
  1 33  1  0  0  0  0
  2 34  1  0  0  0  0
  3 35  1  0  0  0  0
  4 36  1  0  0  0  0
  5 37  1  0  0  0  0
  6 38  1  0  0  0  0
  7 39  1  0  0  0  0
  8 40  1  0  0  0  0
  9 41  1  0  0  0  0
 10 42  1  0  0  0  0
 11 43  1  0  0  0  0
 18 44  1  0  0  0  0
 18 45  1  0  0  0  0
 19 46  1  0  0  0  0
 19 47  1  0  0  0  0
 20 48  1  0  0  0  0
 20 49  1  0  0  0  0
 21 50  1  0  0  0  0
 21 51  1  0  0  0  0
 22 52  1  0  0  0  0
 22 53  1  0  0  0  0
 23 54  1  0  0  0  0
 23 55  1  0  0  0  0
 23 56  1  0  0  0  0
 24 57  1  0  0  0  0
 24 58  1  0  0  0  0
 25 59  1  0  0  0  0
 25 60  1  0  0  0  0
M  END
> <clash_score>
0

> <docking_score>
-9.1970853805542

> <overlap_score>
0.985863208770752

$$$$
BENZO_378_1
  -OEChem-08232013463D

 48 51  0     0  0  0  0  0  0999 V2000
    3.9160    2.0630   19.5520 C   0  0  0  0  0  0  0  0  0  0  0  0
    4.2750    1.7050   20.8490 C   0  0  0  0  0  0  0  0  0  0  0  0
   13.6403    2.1523   23.0888 C   0  0  0  0  0  0  0  0  0  0  0  0
   12.2482    2.1724   23.0041 C   0  0  0  0  0  0  0  0  0  0  0  0
    8.9960   -2.3380   25.5320 C   0  0  0  0  0  0  0  0  0  0  0  0
    9.6730   -3.4710   23.5300 C   0  0  0  0  0  0  0  0  0  0  0  0
    4.6890    1.6810   18.4640 C   0  0  0  0  0  0  0  0  0  0  0  0
    5.4210    0.9600   21.0930 C   0  0  0  0  0  0  0  0  0  0  0  0
    9.0720   -1.1280   24.8640 C   0  0  0  0  0  0  0  0  0  0  0  0
    9.7200   -2.2600   22.8630 C   0  0  0  0  0  0  0  0  0  0  0  0
   14.2756    1.2216   23.9110 C   0  0  0  0  0  0  0  0  0  0  0  0
   12.1266    0.3314   24.5639 C   0  0  0  0  0  0  0  0  0  0  0  0
    7.6390   -0.2680   18.5410 C   0  0  0  0  0  0  0  0  0  0  0  0
    9.3070   -3.5340   24.8780 C   0  0  0  0  0  0  0  0  0  0  0  0
   11.4913    1.2620   23.7417 C   0  0  0  0  0  0  0  0  0  0  0  0
    5.8300    0.9190   18.6970 C   0  0  0  0  0  0  0  0  0  0  0  0
    6.1790    0.5730   19.9990 C   0  0  0  0  0  0  0  0  0  0  0  0
    9.3350   -1.0880   23.5010 C   0  0  0  0  0  0  0  0  0  0  0  0
   13.5188    0.3113   24.6486 C   0  0  0  0  0  0  0  0  0  0  0  0
    9.0420    0.3700   21.5280 C   0  0  0  0  0  0  0  0  0  0  0  0
    9.2505   -4.8264   25.5904 C   0  0  0  0  0  0  0  0  0  0  0  0
    9.9928    1.2851   23.6509 C   0  0  0  0  0  0  0  0  0  0  0  0
    8.1890   -0.7180   20.8700 C   0  0  0  0  0  0  0  0  0  0  0  0
    6.7580    0.3810   17.8350 N   0  0  0  0  0  0  0  0  0  0  0  0
    7.3170   -0.1610   19.8550 N   0  0  0  0  0  0  0  0  0  0  0  0
    9.4560    0.1560   22.8130 N   0  0  0  0  0  0  0  0  0  0  0  0
    9.2690    1.4140   20.9380 O   0  0  0  0  0  0  0  0  0  0  0  0
   14.3031   -0.8359   25.6637 Cl  0  0  0  0  0  0  0  0  0  0  0  0
    3.0133    2.6526   19.3911 H   0  0  0  0  0  0  0  0  0  0  0  0
    3.6478    2.0143   21.6818 H   0  0  0  0  0  0  0  0  0  0  0  0
   14.2293    2.8615   22.5144 H   0  0  0  0  0  0  0  0  0  0  0  0
   11.7616    2.9011   22.3610 H   0  0  0  0  0  0  0  0  0  0  0  0
    8.6919   -2.3557   26.5813 H   0  0  0  0  0  0  0  0  0  0  0  0
    9.9267   -4.3907   22.9939 H   0  0  0  0  0  0  0  0  0  0  0  0
    4.4036    1.9735   17.4543 H   0  0  0  0  0  0  0  0  0  0  0  0
    5.7089    0.6922   22.1131 H   0  0  0  0  0  0  0  0  0  0  0  0
    8.9217   -0.1995   25.4231 H   0  0  0  0  0  0  0  0  0  0  0  0
   10.0653   -2.2339   21.8256 H   0  0  0  0  0  0  0  0  0  0  0  0
   15.3614    1.2177   23.9674 H   0  0  0  0  0  0  0  0  0  0  0  0
   11.5321   -0.3766   25.1366 H   0  0  0  0  0  0  0  0  0  0  0  0
    8.4865   -0.8061   18.1803 H   0  0  0  0  0  0  0  0  0  0  0  0
    8.2503   -5.2678   25.5020 H   0  0  0  0  0  0  0  0  0  0  0  0
    9.9817   -5.5374   25.1845 H   0  0  0  0  0  0  0  0  0  0  0  0
    9.4841   -4.7043   26.6562 H   0  0  0  0  0  0  0  0  0  0  0  0
    9.5445    1.2076   24.6474 H   0  0  0  0  0  0  0  0  0  0  0  0
    9.6404    2.2225   23.2078 H   0  0  0  0  0  0  0  0  0  0  0  0
    8.8262   -1.4533   20.3842 H   0  0  0  0  0  0  0  0  0  0  0  0
    7.5540   -1.1950   21.6130 H   0  0  0  0  0  0  0  0  0  0  0  0
  1  2  1  0  0  0  0
  1  7  2  0  0  0  0
  2  8  2  0  0  0  0
  3  4  2  0  0  0  0
  3 11  1  0  0  0  0
  4 15  1  0  0  0  0
  5  9  2  0  0  0  0
  5 14  1  0  0  0  0
  6 10  1  0  0  0  0
  6 14  2  0  0  0  0
  7 16  1  0  0  0  0
  8 17  1  0  0  0  0
  9 18  1  0  0  0  0
 10 18  2  0  0  0  0
 11 19  2  0  0  0  0
 12 15  2  0  0  0  0
 12 19  1  0  0  0  0
 13 24  2  0  0  0  0
 13 25  1  0  0  0  0
 14 21  1  0  0  0  0
 15 22  1  0  0  0  0
 16 17  2  0  0  0  0
 16 24  1  0  0  0  0
 17 25  1  0  0  0  0
 18 26  1  0  0  0  0
 19 28  1  0  0  0  0
 20 23  1  0  0  0  0
 20 26  1  0  0  0  0
 20 27  2  0  0  0  0
 22 26  1  0  0  0  0
 23 25  1  0  0  0  0
  1 29  1  0  0  0  0
  2 30  1  0  0  0  0
  3 31  1  0  0  0  0
  4 32  1  0  0  0  0
  5 33  1  0  0  0  0
  6 34  1  0  0  0  0
  7 35  1  0  0  0  0
  8 36  1  0  0  0  0
  9 37  1  0  0  0  0
 10 38  1  0  0  0  0
 11 39  1  0  0  0  0
 12 40  1  0  0  0  0
 13 41  1  0  0  0  0
 21 42  1  0  0  0  0
 21 43  1  0  0  0  0
 21 44  1  0  0  0  0
 22 45  1  0  0  0  0
 22 46  1  0  0  0  0
 23 47  1  0  0  0  0
 23 48  1  0  0  0  0
M  END
> <clash_score>
0.6602018655781879

> <docking_score>
-8.514508247375488

> <overlap_score>
0.9407941102981567

$$$$
BENZO_381_1
  -OEChem-08232013463D

 49 52  0     0  0  0  0  0  0999 V2000
   14.2757    1.2195   23.9089 C   0  0  0  0  0  0  0  0  0  0  0  0
   13.5099    0.5331   24.8512 C   0  0  0  0  0  0  0  0  0  0  0  0
   13.6494    1.9272   22.8829 C   0  0  0  0  0  0  0  0  0  0  0  0
    3.9160    2.0630   19.5520 C   0  0  0  0  0  0  0  0  0  0  0  0
    4.2750    1.7050   20.8490 C   0  0  0  0  0  0  0  0  0  0  0  0
   12.1177    0.5544   24.7676 C   0  0  0  0  0  0  0  0  0  0  0  0
   12.2572    1.9484   22.7993 C   0  0  0  0  0  0  0  0  0  0  0  0
    4.6890    1.6810   18.4640 C   0  0  0  0  0  0  0  0  0  0  0  0
    5.4210    0.9600   21.0930 C   0  0  0  0  0  0  0  0  0  0  0  0
    9.0720   -1.1280   24.8640 C   0  0  0  0  0  0  0  0  0  0  0  0
    9.7200   -2.2600   22.8630 C   0  0  0  0  0  0  0  0  0  0  0  0
    8.9960   -2.3380   25.5320 C   0  0  0  0  0  0  0  0  0  0  0  0
    9.6730   -3.4710   23.5300 C   0  0  0  0  0  0  0  0  0  0  0  0
    7.6390   -0.2680   18.5410 C   0  0  0  0  0  0  0  0  0  0  0  0
   11.4913    1.2620   23.7417 C   0  0  0  0  0  0  0  0  0  0  0  0
    5.8300    0.9190   18.6970 C   0  0  0  0  0  0  0  0  0  0  0  0
    6.1790    0.5730   19.9990 C   0  0  0  0  0  0  0  0  0  0  0  0
    9.3350   -1.0880   23.5010 C   0  0  0  0  0  0  0  0  0  0  0  0
    9.3070   -3.5340   24.8780 C   0  0  0  0  0  0  0  0  0  0  0  0
    9.0420    0.3700   21.5280 C   0  0  0  0  0  0  0  0  0  0  0  0
    8.8720   -4.6805   26.9013 C   0  0  0  0  0  0  0  0  0  0  0  0
    9.9928    1.2851   23.6509 C   0  0  0  0  0  0  0  0  0  0  0  0
    8.1890   -0.7180   20.8700 C   0  0  0  0  0  0  0  0  0  0  0  0
    6.7580    0.3810   17.8350 N   0  0  0  0  0  0  0  0  0  0  0  0
    7.3170   -0.1610   19.8550 N   0  0  0  0  0  0  0  0  0  0  0  0
    9.4560    0.1560   22.8130 N   0  0  0  0  0  0  0  0  0  0  0  0
    9.2690    1.4140   20.9380 O   0  0  0  0  0  0  0  0  0  0  0  0
    9.2555   -4.7124   25.5274 O   0  0  0  0  0  0  0  0  0  0  0  0
   15.3597    1.2039   23.9749 H   0  0  0  0  0  0  0  0  0  0  0  0
   13.9974   -0.0171   25.6508 H   0  0  0  0  0  0  0  0  0  0  0  0
   14.2453    2.4626   22.1497 H   0  0  0  0  0  0  0  0  0  0  0  0
    3.0133    2.6526   19.3911 H   0  0  0  0  0  0  0  0  0  0  0  0
    3.6478    2.0143   21.6818 H   0  0  0  0  0  0  0  0  0  0  0  0
   11.5291    0.0165   25.5062 H   0  0  0  0  0  0  0  0  0  0  0  0
   11.7778    2.5024   21.9965 H   0  0  0  0  0  0  0  0  0  0  0  0
    4.4036    1.9735   17.4543 H   0  0  0  0  0  0  0  0  0  0  0  0
    5.7089    0.6922   22.1131 H   0  0  0  0  0  0  0  0  0  0  0  0
    8.9221   -0.1995   25.4231 H   0  0  0  0  0  0  0  0  0  0  0  0
   10.0642   -2.2347   21.8253 H   0  0  0  0  0  0  0  0  0  0  0  0
    8.6902   -2.3588   26.5805 H   0  0  0  0  0  0  0  0  0  0  0  0
    9.9254   -4.3921   22.9961 H   0  0  0  0  0  0  0  0  0  0  0  0
    8.4865   -0.8061   18.1803 H   0  0  0  0  0  0  0  0  0  0  0  0
    8.8711   -5.6964   27.3038 H   0  0  0  0  0  0  0  0  0  0  0  0
    7.8758   -4.2402   26.9923 H   0  0  0  0  0  0  0  0  0  0  0  0
    9.5894   -4.0716   27.4566 H   0  0  0  0  0  0  0  0  0  0  0  0
    9.5445    1.2076   24.6474 H   0  0  0  0  0  0  0  0  0  0  0  0
    9.6404    2.2225   23.2078 H   0  0  0  0  0  0  0  0  0  0  0  0
    8.8262   -1.4533   20.3842 H   0  0  0  0  0  0  0  0  0  0  0  0
    7.5540   -1.1950   21.6130 H   0  0  0  0  0  0  0  0  0  0  0  0
  1  2  1  0  0  0  0
  1  3  2  0  0  0  0
  2  6  2  0  0  0  0
  3  7  1  0  0  0  0
  4  5  1  0  0  0  0
  4  8  2  0  0  0  0
  5  9  2  0  0  0  0
  6 15  1  0  0  0  0
  7 15  2  0  0  0  0
  8 16  1  0  0  0  0
  9 17  1  0  0  0  0
 10 12  2  0  0  0  0
 10 18  1  0  0  0  0
 11 13  1  0  0  0  0
 11 18  2  0  0  0  0
 12 19  1  0  0  0  0
 13 19  2  0  0  0  0
 14 24  2  0  0  0  0
 14 25  1  0  0  0  0
 15 22  1  0  0  0  0
 16 17  2  0  0  0  0
 16 24  1  0  0  0  0
 17 25  1  0  0  0  0
 18 26  1  0  0  0  0
 19 28  1  0  0  0  0
 20 23  1  0  0  0  0
 20 26  1  0  0  0  0
 20 27  2  0  0  0  0
 21 28  1  0  0  0  0
 22 26  1  0  0  0  0
 23 25  1  0  0  0  0
  1 29  1  0  0  0  0
  2 30  1  0  0  0  0
  3 31  1  0  0  0  0
  4 32  1  0  0  0  0
  5 33  1  0  0  0  0
  6 34  1  0  0  0  0
  7 35  1  0  0  0  0
  8 36  1  0  0  0  0
  9 37  1  0  0  0  0
 10 38  1  0  0  0  0
 11 39  1  0  0  0  0
 12 40  1  0  0  0  0
 13 41  1  0  0  0  0
 14 42  1  0  0  0  0
 21 43  1  0  0  0  0
 21 44  1  0  0  0  0
 21 45  1  0  0  0  0
 22 46  1  0  0  0  0
 22 47  1  0  0  0  0
 23 48  1  0  0  0  0
 23 49  1  0  0  0  0
M  END
> <clash_score>
0

> <docking_score>
-9.42929458618164

> <overlap_score>
0.9598515629768372

$$$$
BENZO_379_1
  -OEChem-08232013463D

 48 51  0     0  0  0  0  0  0999 V2000
    3.9160    2.0630   19.5520 C   0  0  0  0  0  0  0  0  0  0  0  0
    4.2750    1.7050   20.8490 C   0  0  0  0  0  0  0  0  0  0  0  0
    8.9960   -2.3380   25.5320 C   0  0  0  0  0  0  0  0  0  0  0  0
    9.6730   -3.4710   23.5300 C   0  0  0  0  0  0  0  0  0  0  0  0
    4.6890    1.6810   18.4640 C   0  0  0  0  0  0  0  0  0  0  0  0
    5.4210    0.9600   21.0930 C   0  0  0  0  0  0  0  0  0  0  0  0
    9.0720   -1.1280   24.8640 C   0  0  0  0  0  0  0  0  0  0  0  0
    9.7200   -2.2600   22.8630 C   0  0  0  0  0  0  0  0  0  0  0  0
   12.4099    2.0961   23.0766 C   0  0  0  0  0  0  0  0  0  0  0  0
   12.2737    0.4222   24.4959 C   0  0  0  0  0  0  0  0  0  0  0  0
    7.6390   -0.2680   18.5410 C   0  0  0  0  0  0  0  0  0  0  0  0
    9.3070   -3.5340   24.8780 C   0  0  0  0  0  0  0  0  0  0  0  0
   11.4913    1.2620   23.7417 C   0  0  0  0  0  0  0  0  0  0  0  0
    5.8300    0.9190   18.6970 C   0  0  0  0  0  0  0  0  0  0  0  0
    6.1790    0.5730   19.9990 C   0  0  0  0  0  0  0  0  0  0  0  0
    9.3350   -1.0880   23.5010 C   0  0  0  0  0  0  0  0  0  0  0  0
    9.0420    0.3700   21.5280 C   0  0  0  0  0  0  0  0  0  0  0  0
    9.2505   -4.8264   25.5904 C   0  0  0  0  0  0  0  0  0  0  0  0
   14.7487    0.1935   24.8140 C   0  0  0  0  0  0  0  0  0  0  0  0
    9.9928    1.2851   23.6509 C   0  0  0  0  0  0  0  0  0  0  0  0
    8.1890   -0.7180   20.8700 C   0  0  0  0  0  0  0  0  0  0  0  0
   13.6789    1.8120   23.3817 N   0  0  0  0  0  0  0  0  0  0  0  0
    6.7580    0.3810   17.8350 N   0  0  0  0  0  0  0  0  0  0  0  0
   13.5632    0.7901   24.2468 N   0  0  0  0  0  0  0  0  0  0  0  0
    7.3170   -0.1610   19.8550 N   0  0  0  0  0  0  0  0  0  0  0  0
    9.4560    0.1560   22.8130 N   0  0  0  0  0  0  0  0  0  0  0  0
    9.2690    1.4140   20.9380 O   0  0  0  0  0  0  0  0  0  0  0  0
    3.0133    2.6526   19.3911 H   0  0  0  0  0  0  0  0  0  0  0  0
    3.6478    2.0143   21.6818 H   0  0  0  0  0  0  0  0  0  0  0  0
    8.6919   -2.3557   26.5813 H   0  0  0  0  0  0  0  0  0  0  0  0
    9.9267   -4.3907   22.9939 H   0  0  0  0  0  0  0  0  0  0  0  0
    4.4036    1.9735   17.4543 H   0  0  0  0  0  0  0  0  0  0  0  0
    5.7089    0.6922   22.1131 H   0  0  0  0  0  0  0  0  0  0  0  0
    8.9217   -0.1995   25.4231 H   0  0  0  0  0  0  0  0  0  0  0  0
   10.0653   -2.2339   21.8256 H   0  0  0  0  0  0  0  0  0  0  0  0
   12.2100    2.9003   22.3827 H   0  0  0  0  0  0  0  0  0  0  0  0
   12.0288   -0.3850   25.1729 H   0  0  0  0  0  0  0  0  0  0  0  0
    8.4865   -0.8061   18.1803 H   0  0  0  0  0  0  0  0  0  0  0  0
    8.2503   -5.2678   25.5020 H   0  0  0  0  0  0  0  0  0  0  0  0
    9.9817   -5.5374   25.1845 H   0  0  0  0  0  0  0  0  0  0  0  0
    9.4841   -4.7043   26.6562 H   0  0  0  0  0  0  0  0  0  0  0  0
   15.0651   -0.6197   24.1556 H   0  0  0  0  0  0  0  0  0  0  0  0
   15.5348    0.9496   24.8928 H   0  0  0  0  0  0  0  0  0  0  0  0
   14.5184   -0.1890   25.8123 H   0  0  0  0  0  0  0  0  0  0  0  0
    9.5445    1.2076   24.6474 H   0  0  0  0  0  0  0  0  0  0  0  0
    9.6404    2.2225   23.2078 H   0  0  0  0  0  0  0  0  0  0  0  0
    8.8262   -1.4533   20.3842 H   0  0  0  0  0  0  0  0  0  0  0  0
    7.5540   -1.1950   21.6130 H   0  0  0  0  0  0  0  0  0  0  0  0
  1  2  1  0  0  0  0
  1  5  2  0  0  0  0
  2  6  2  0  0  0  0
  3  7  2  0  0  0  0
  3 12  1  0  0  0  0
  4  8  1  0  0  0  0
  4 12  2  0  0  0  0
  5 14  1  0  0  0  0
  6 15  1  0  0  0  0
  7 16  1  0  0  0  0
  8 16  2  0  0  0  0
  9 13  1  0  0  0  0
  9 22  2  0  0  0  0
 10 13  2  0  0  0  0
 10 24  1  0  0  0  0
 11 23  2  0  0  0  0
 11 25  1  0  0  0  0
 12 18  1  0  0  0  0
 13 20  1  0  0  0  0
 14 15  2  0  0  0  0
 14 23  1  0  0  0  0
 15 25  1  0  0  0  0
 16 26  1  0  0  0  0
 17 21  1  0  0  0  0
 17 26  1  0  0  0  0
 17 27  2  0  0  0  0
 19 24  1  0  0  0  0
 20 26  1  0  0  0  0
 21 25  1  0  0  0  0
 22 24  1  0  0  0  0
  1 28  1  0  0  0  0
  2 29  1  0  0  0  0
  3 30  1  0  0  0  0
  4 31  1  0  0  0  0
  5 32  1  0  0  0  0
  6 33  1  0  0  0  0
  7 34  1  0  0  0  0
  8 35  1  0  0  0  0
  9 36  1  0  0  0  0
 10 37  1  0  0  0  0
 11 38  1  0  0  0  0
 18 39  1  0  0  0  0
 18 40  1  0  0  0  0
 18 41  1  0  0  0  0
 19 42  1  0  0  0  0
 19 43  1  0  0  0  0
 19 44  1  0  0  0  0
 20 45  1  0  0  0  0
 20 46  1  0  0  0  0
 21 47  1  0  0  0  0
 21 48  1  0  0  0  0
M  END
> <clash_score>
0

> <docking_score>
-9.219070434570312

> <overlap_score>
0.936274528503418

$$$$
BENZO_380_1
  -OEChem-08232013463D

 46 49  0     0  0  0  0  0  0999 V2000
    3.9160    2.0630   19.5520 C   0  0  0  0  0  0  0  0  0  0  0  0
    4.2750    1.7050   20.8490 C   0  0  0  0  0  0  0  0  0  0  0  0
    4.6890    1.6810   18.4640 C   0  0  0  0  0  0  0  0  0  0  0  0
    5.4210    0.9600   21.0930 C   0  0  0  0  0  0  0  0  0  0  0  0
    9.0720   -1.1280   24.8640 C   0  0  0  0  0  0  0  0  0  0  0  0
    9.7200   -2.2600   22.8630 C   0  0  0  0  0  0  0  0  0  0  0  0
    8.9960   -2.3380   25.5320 C   0  0  0  0  0  0  0  0  0  0  0  0
    9.6730   -3.4710   23.5300 C   0  0  0  0  0  0  0  0  0  0  0  0
   12.2966    2.4285   23.8870 C   0  0  0  0  0  0  0  0  0  0  0  0
   13.6394    2.1264   23.9445 C   0  0  0  0  0  0  0  0  0  0  0  0
   12.2494    0.1127   23.6934 C   0  0  0  0  0  0  0  0  0  0  0  0
    7.6390   -0.2680   18.5410 C   0  0  0  0  0  0  0  0  0  0  0  0
   11.4913    1.2620   23.7417 C   0  0  0  0  0  0  0  0  0  0  0  0
    5.8300    0.9190   18.6970 C   0  0  0  0  0  0  0  0  0  0  0  0
    6.1790    0.5730   19.9990 C   0  0  0  0  0  0  0  0  0  0  0  0
    9.3350   -1.0880   23.5010 C   0  0  0  0  0  0  0  0  0  0  0  0
    9.3070   -3.5340   24.8780 C   0  0  0  0  0  0  0  0  0  0  0  0
    9.0420    0.3700   21.5280 C   0  0  0  0  0  0  0  0  0  0  0  0
    8.8720   -4.6805   26.9013 C   0  0  0  0  0  0  0  0  0  0  0  0
    9.9928    1.2851   23.6509 C   0  0  0  0  0  0  0  0  0  0  0  0
    8.1890   -0.7180   20.8700 C   0  0  0  0  0  0  0  0  0  0  0  0
    6.7580    0.3810   17.8350 N   0  0  0  0  0  0  0  0  0  0  0  0
    7.3170   -0.1610   19.8550 N   0  0  0  0  0  0  0  0  0  0  0  0
    9.4560    0.1560   22.8130 N   0  0  0  0  0  0  0  0  0  0  0  0
    9.2690    1.4140   20.9380 O   0  0  0  0  0  0  0  0  0  0  0  0
    9.2555   -4.7124   25.5274 O   0  0  0  0  0  0  0  0  0  0  0  0
   13.9248    0.4423   23.8234 S   0  0  0  0  0  0  0  0  0  0  0  0
    3.0133    2.6526   19.3911 H   0  0  0  0  0  0  0  0  0  0  0  0
    3.6478    2.0143   21.6818 H   0  0  0  0  0  0  0  0  0  0  0  0
    4.4036    1.9735   17.4543 H   0  0  0  0  0  0  0  0  0  0  0  0
    5.7089    0.6922   22.1131 H   0  0  0  0  0  0  0  0  0  0  0  0
    8.9221   -0.1995   25.4231 H   0  0  0  0  0  0  0  0  0  0  0  0
   10.0642   -2.2347   21.8253 H   0  0  0  0  0  0  0  0  0  0  0  0
    8.6902   -2.3588   26.5805 H   0  0  0  0  0  0  0  0  0  0  0  0
    9.9254   -4.3921   22.9961 H   0  0  0  0  0  0  0  0  0  0  0  0
   11.9145    3.4398   23.9463 H   0  0  0  0  0  0  0  0  0  0  0  0
   14.4664    2.8140   24.0511 H   0  0  0  0  0  0  0  0  0  0  0  0
   11.9038   -0.9062   23.5870 H   0  0  0  0  0  0  0  0  0  0  0  0
    8.4865   -0.8061   18.1803 H   0  0  0  0  0  0  0  0  0  0  0  0
    8.8711   -5.6964   27.3038 H   0  0  0  0  0  0  0  0  0  0  0  0
    7.8758   -4.2402   26.9923 H   0  0  0  0  0  0  0  0  0  0  0  0
    9.5894   -4.0716   27.4566 H   0  0  0  0  0  0  0  0  0  0  0  0
    9.5445    1.2076   24.6474 H   0  0  0  0  0  0  0  0  0  0  0  0
    9.6404    2.2225   23.2078 H   0  0  0  0  0  0  0  0  0  0  0  0
    8.8262   -1.4533   20.3842 H   0  0  0  0  0  0  0  0  0  0  0  0
    7.5540   -1.1950   21.6130 H   0  0  0  0  0  0  0  0  0  0  0  0
  1  2  1  0  0  0  0
  1  3  2  0  0  0  0
  2  4  2  0  0  0  0
  3 14  1  0  0  0  0
  4 15  1  0  0  0  0
  5  7  2  0  0  0  0
  5 16  1  0  0  0  0
  6  8  1  0  0  0  0
  6 16  2  0  0  0  0
  7 17  1  0  0  0  0
  8 17  2  0  0  0  0
  9 10  2  0  0  0  0
  9 13  1  0  0  0  0
 10 27  1  0  0  0  0
 11 13  2  0  0  0  0
 11 27  1  0  0  0  0
 12 22  2  0  0  0  0
 12 23  1  0  0  0  0
 13 20  1  0  0  0  0
 14 15  2  0  0  0  0
 14 22  1  0  0  0  0
 15 23  1  0  0  0  0
 16 24  1  0  0  0  0
 17 26  1  0  0  0  0
 18 21  1  0  0  0  0
 18 24  1  0  0  0  0
 18 25  2  0  0  0  0
 19 26  1  0  0  0  0
 20 24  1  0  0  0  0
 21 23  1  0  0  0  0
  1 28  1  0  0  0  0
  2 29  1  0  0  0  0
  3 30  1  0  0  0  0
  4 31  1  0  0  0  0
  5 32  1  0  0  0  0
  6 33  1  0  0  0  0
  7 34  1  0  0  0  0
  8 35  1  0  0  0  0
  9 36  1  0  0  0  0
 10 37  1  0  0  0  0
 11 38  1  0  0  0  0
 12 39  1  0  0  0  0
 19 40  1  0  0  0  0
 19 41  1  0  0  0  0
 19 42  1  0  0  0  0
 20 43  1  0  0  0  0
 20 44  1  0  0  0  0
 21 45  1  0  0  0  0
 21 46  1  0  0  0  0
M  END
> <clash_score>
0

> <docking_score>
-8.38998794555664

> <overlap_score>
0.9447105526924133

$$$$
BENZO_382_1
  -OEChem-08232013463D

 49 52  0     0  0  0  0  0  0999 V2000
    3.9160    2.0630   19.5520 C   0  0  0  0  0  0  0  0  0  0  0  0
    4.2750    1.7050   20.8490 C   0  0  0  0  0  0  0  0  0  0  0  0
   13.6403    2.1523   23.0888 C   0  0  0  0  0  0  0  0  0  0  0  0
   12.2482    2.1724   23.0041 C   0  0  0  0  0  0  0  0  0  0  0  0
    4.6890    1.6810   18.4640 C   0  0  0  0  0  0  0  0  0  0  0  0
    5.4210    0.9600   21.0930 C   0  0  0  0  0  0  0  0  0  0  0  0
    9.0720   -1.1280   24.8640 C   0  0  0  0  0  0  0  0  0  0  0  0
    9.7200   -2.2600   22.8630 C   0  0  0  0  0  0  0  0  0  0  0  0
    8.9960   -2.3380   25.5320 C   0  0  0  0  0  0  0  0  0  0  0  0
    9.6730   -3.4710   23.5300 C   0  0  0  0  0  0  0  0  0  0  0  0
   14.2756    1.2216   23.9110 C   0  0  0  0  0  0  0  0  0  0  0  0
   12.1266    0.3314   24.5639 C   0  0  0  0  0  0  0  0  0  0  0  0
    7.6390   -0.2680   18.5410 C   0  0  0  0  0  0  0  0  0  0  0  0
   11.4913    1.2620   23.7417 C   0  0  0  0  0  0  0  0  0  0  0  0
    5.8300    0.9190   18.6970 C   0  0  0  0  0  0  0  0  0  0  0  0
    6.1790    0.5730   19.9990 C   0  0  0  0  0  0  0  0  0  0  0  0
    9.3350   -1.0880   23.5010 C   0  0  0  0  0  0  0  0  0  0  0  0
    9.3070   -3.5340   24.8780 C   0  0  0  0  0  0  0  0  0  0  0  0
   13.5188    0.3113   24.6486 C   0  0  0  0  0  0  0  0  0  0  0  0
    9.0420    0.3700   21.5280 C   0  0  0  0  0  0  0  0  0  0  0  0
    8.8720   -4.6805   26.9013 C   0  0  0  0  0  0  0  0  0  0  0  0
    9.9928    1.2851   23.6509 C   0  0  0  0  0  0  0  0  0  0  0  0
    8.1890   -0.7180   20.8700 C   0  0  0  0  0  0  0  0  0  0  0  0
    6.7580    0.3810   17.8350 N   0  0  0  0  0  0  0  0  0  0  0  0
    7.3170   -0.1610   19.8550 N   0  0  0  0  0  0  0  0  0  0  0  0
    9.4560    0.1560   22.8130 N   0  0  0  0  0  0  0  0  0  0  0  0
    9.2690    1.4140   20.9380 O   0  0  0  0  0  0  0  0  0  0  0  0
    9.2555   -4.7124   25.5274 O   0  0  0  0  0  0  0  0  0  0  0  0
   14.3031   -0.8359   25.6637 Cl  0  0  0  0  0  0  0  0  0  0  0  0
    3.0133    2.6526   19.3911 H   0  0  0  0  0  0  0  0  0  0  0  0
    3.6478    2.0143   21.6818 H   0  0  0  0  0  0  0  0  0  0  0  0
   14.2293    2.8615   22.5144 H   0  0  0  0  0  0  0  0  0  0  0  0
   11.7616    2.9011   22.3610 H   0  0  0  0  0  0  0  0  0  0  0  0
    4.4036    1.9735   17.4543 H   0  0  0  0  0  0  0  0  0  0  0  0
    5.7089    0.6922   22.1131 H   0  0  0  0  0  0  0  0  0  0  0  0
    8.9221   -0.1995   25.4231 H   0  0  0  0  0  0  0  0  0  0  0  0
   10.0642   -2.2347   21.8253 H   0  0  0  0  0  0  0  0  0  0  0  0
    8.6902   -2.3588   26.5805 H   0  0  0  0  0  0  0  0  0  0  0  0
    9.9254   -4.3921   22.9961 H   0  0  0  0  0  0  0  0  0  0  0  0
   15.3614    1.2177   23.9674 H   0  0  0  0  0  0  0  0  0  0  0  0
   11.5321   -0.3766   25.1366 H   0  0  0  0  0  0  0  0  0  0  0  0
    8.4865   -0.8061   18.1803 H   0  0  0  0  0  0  0  0  0  0  0  0
    8.8711   -5.6964   27.3038 H   0  0  0  0  0  0  0  0  0  0  0  0
    7.8758   -4.2402   26.9923 H   0  0  0  0  0  0  0  0  0  0  0  0
    9.5894   -4.0716   27.4566 H   0  0  0  0  0  0  0  0  0  0  0  0
    9.5445    1.2076   24.6474 H   0  0  0  0  0  0  0  0  0  0  0  0
    9.6404    2.2225   23.2078 H   0  0  0  0  0  0  0  0  0  0  0  0
    8.8262   -1.4533   20.3842 H   0  0  0  0  0  0  0  0  0  0  0  0
    7.5540   -1.1950   21.6130 H   0  0  0  0  0  0  0  0  0  0  0  0
  1  2  1  0  0  0  0
  1  5  2  0  0  0  0
  2  6  2  0  0  0  0
  3  4  2  0  0  0  0
  3 11  1  0  0  0  0
  4 14  1  0  0  0  0
  5 15  1  0  0  0  0
  6 16  1  0  0  0  0
  7  9  2  0  0  0  0
  7 17  1  0  0  0  0
  8 10  1  0  0  0  0
  8 17  2  0  0  0  0
  9 18  1  0  0  0  0
 10 18  2  0  0  0  0
 11 19  2  0  0  0  0
 12 14  2  0  0  0  0
 12 19  1  0  0  0  0
 13 24  2  0  0  0  0
 13 25  1  0  0  0  0
 14 22  1  0  0  0  0
 15 16  2  0  0  0  0
 15 24  1  0  0  0  0
 16 25  1  0  0  0  0
 17 26  1  0  0  0  0
 18 28  1  0  0  0  0
 19 29  1  0  0  0  0
 20 23  1  0  0  0  0
 20 26  1  0  0  0  0
 20 27  2  0  0  0  0
 21 28  1  0  0  0  0
 22 26  1  0  0  0  0
 23 25  1  0  0  0  0
  1 30  1  0  0  0  0
  2 31  1  0  0  0  0
  3 32  1  0  0  0  0
  4 33  1  0  0  0  0
  5 34  1  0  0  0  0
  6 35  1  0  0  0  0
  7 36  1  0  0  0  0
  8 37  1  0  0  0  0
  9 38  1  0  0  0  0
 10 39  1  0  0  0  0
 11 40  1  0  0  0  0
 12 41  1  0  0  0  0
 13 42  1  0  0  0  0
 21 43  1  0  0  0  0
 21 44  1  0  0  0  0
 21 45  1  0  0  0  0
 22 46  1  0  0  0  0
 22 47  1  0  0  0  0
 23 48  1  0  0  0  0
 23 49  1  0  0  0  0
M  END
> <clash_score>
0.6602018655781879

> <docking_score>
-8.25080680847168

> <overlap_score>
0.9631190299987793

$$$$
BENZO_383_1
  -OEChem-08232013463D

 49 52  0     0  0  0  0  0  0999 V2000
    3.9160    2.0630   19.5520 C   0  0  0  0  0  0  0  0  0  0  0  0
    4.2750    1.7050   20.8490 C   0  0  0  0  0  0  0  0  0  0  0  0
    4.6890    1.6810   18.4640 C   0  0  0  0  0  0  0  0  0  0  0  0
    5.4210    0.9600   21.0930 C   0  0  0  0  0  0  0  0  0  0  0  0
    9.0720   -1.1280   24.8640 C   0  0  0  0  0  0  0  0  0  0  0  0
    9.7200   -2.2600   22.8630 C   0  0  0  0  0  0  0  0  0  0  0  0
    8.9960   -2.3380   25.5320 C   0  0  0  0  0  0  0  0  0  0  0  0
    9.6730   -3.4710   23.5300 C   0  0  0  0  0  0  0  0  0  0  0  0
   12.2851    1.1582   24.8997 C   0  0  0  0  0  0  0  0  0  0  0  0
   12.3959    1.3350   22.7107 C   0  0  0  0  0  0  0  0  0  0  0  0
    7.6390   -0.2680   18.5410 C   0  0  0  0  0  0  0  0  0  0  0  0
   11.4913    1.2620   23.7417 C   0  0  0  0  0  0  0  0  0  0  0  0
    5.8300    0.9190   18.6970 C   0  0  0  0  0  0  0  0  0  0  0  0
    6.1790    0.5730   19.9990 C   0  0  0  0  0  0  0  0  0  0  0  0
    9.3350   -1.0880   23.5010 C   0  0  0  0  0  0  0  0  0  0  0  0
    9.3070   -3.5340   24.8780 C   0  0  0  0  0  0  0  0  0  0  0  0
    9.0420    0.3700   21.5280 C   0  0  0  0  0  0  0  0  0  0  0  0
   14.8995    1.3124   22.6085 C   0  0  0  0  0  0  0  0  0  0  0  0
    9.5894   -5.8809   24.7798 C   0  0  0  0  0  0  0  0  0  0  0  0
    9.9928    1.2851   23.6509 C   0  0  0  0  0  0  0  0  0  0  0  0
    8.1890   -0.7180   20.8700 C   0  0  0  0  0  0  0  0  0  0  0  0
   13.5933    1.1641   24.6303 N   0  0  0  0  0  0  0  0  0  0  0  0
    6.7580    0.3810   17.8350 N   0  0  0  0  0  0  0  0  0  0  0  0
   13.6285    1.2725   23.2912 N   0  0  0  0  0  0  0  0  0  0  0  0
    7.3170   -0.1610   19.8550 N   0  0  0  0  0  0  0  0  0  0  0  0
    9.4560    0.1560   22.8130 N   0  0  0  0  0  0  0  0  0  0  0  0
    9.2690    1.4140   20.9380 O   0  0  0  0  0  0  0  0  0  0  0  0
    9.2555   -4.7124   25.5274 O   0  0  0  0  0  0  0  0  0  0  0  0
    3.0133    2.6526   19.3911 H   0  0  0  0  0  0  0  0  0  0  0  0
    3.6478    2.0143   21.6818 H   0  0  0  0  0  0  0  0  0  0  0  0
    4.4036    1.9735   17.4543 H   0  0  0  0  0  0  0  0  0  0  0  0
    5.7089    0.6922   22.1131 H   0  0  0  0  0  0  0  0  0  0  0  0
    8.9221   -0.1995   25.4231 H   0  0  0  0  0  0  0  0  0  0  0  0
   10.0642   -2.2347   21.8253 H   0  0  0  0  0  0  0  0  0  0  0  0
    8.6902   -2.3588   26.5805 H   0  0  0  0  0  0  0  0  0  0  0  0
    9.9254   -4.3921   22.9961 H   0  0  0  0  0  0  0  0  0  0  0  0
   11.9671    1.0774   25.9295 H   0  0  0  0  0  0  0  0  0  0  0  0
   12.2706    1.4226   21.6400 H   0  0  0  0  0  0  0  0  0  0  0  0
    8.4865   -0.8061   18.1803 H   0  0  0  0  0  0  0  0  0  0  0  0
   15.2093    2.3581   22.5334 H   0  0  0  0  0  0  0  0  0  0  0  0
   15.6355    0.7354   23.1752 H   0  0  0  0  0  0  0  0  0  0  0  0
   14.7890    0.8729   21.6133 H   0  0  0  0  0  0  0  0  0  0  0  0
    9.5074   -6.7611   25.4222 H   0  0  0  0  0  0  0  0  0  0  0  0
   10.6088   -5.7902   24.3963 H   0  0  0  0  0  0  0  0  0  0  0  0
    8.8944   -5.9778   23.9424 H   0  0  0  0  0  0  0  0  0  0  0  0
    9.5445    1.2076   24.6474 H   0  0  0  0  0  0  0  0  0  0  0  0
    9.6404    2.2225   23.2078 H   0  0  0  0  0  0  0  0  0  0  0  0
    8.8262   -1.4533   20.3842 H   0  0  0  0  0  0  0  0  0  0  0  0
    7.5540   -1.1950   21.6130 H   0  0  0  0  0  0  0  0  0  0  0  0
  1  2  1  0  0  0  0
  1  3  2  0  0  0  0
  2  4  2  0  0  0  0
  3 13  1  0  0  0  0
  4 14  1  0  0  0  0
  5  7  2  0  0  0  0
  5 15  1  0  0  0  0
  6  8  1  0  0  0  0
  6 15  2  0  0  0  0
  7 16  1  0  0  0  0
  8 16  2  0  0  0  0
  9 12  1  0  0  0  0
  9 22  2  0  0  0  0
 10 12  2  0  0  0  0
 10 24  1  0  0  0  0
 11 23  2  0  0  0  0
 11 25  1  0  0  0  0
 12 20  1  0  0  0  0
 13 14  2  0  0  0  0
 13 23  1  0  0  0  0
 14 25  1  0  0  0  0
 15 26  1  0  0  0  0
 16 28  1  0  0  0  0
 17 21  1  0  0  0  0
 17 26  1  0  0  0  0
 17 27  2  0  0  0  0
 18 24  1  0  0  0  0
 19 28  1  0  0  0  0
 20 26  1  0  0  0  0
 21 25  1  0  0  0  0
 22 24  1  0  0  0  0
  1 29  1  0  0  0  0
  2 30  1  0  0  0  0
  3 31  1  0  0  0  0
  4 32  1  0  0  0  0
  5 33  1  0  0  0  0
  6 34  1  0  0  0  0
  7 35  1  0  0  0  0
  8 36  1  0  0  0  0
  9 37  1  0  0  0  0
 10 38  1  0  0  0  0
 11 39  1  0  0  0  0
 18 40  1  0  0  0  0
 18 41  1  0  0  0  0
 18 42  1  0  0  0  0
 19 43  1  0  0  0  0
 19 44  1  0  0  0  0
 19 45  1  0  0  0  0
 20 46  1  0  0  0  0
 20 47  1  0  0  0  0
 21 48  1  0  0  0  0
 21 49  1  0  0  0  0
M  END
> <clash_score>
0

> <docking_score>
-9.182927131652832

> <overlap_score>
0.9549559354782104

$$$$
BENZO_385_1
  -OEChem-08232013463D

 59 63  0     0  0  0  0  0  0999 V2000
   14.2740    1.2396   23.9240 C   0  0  0  0  0  0  0  0  0  0  0  0
   13.5000    0.5758   24.8758 C   0  0  0  0  0  0  0  0  0  0  0  0
   13.6566    1.9256   22.8782 C   0  0  0  0  0  0  0  0  0  0  0  0
    3.9160    2.0630   19.5520 C   0  0  0  0  0  0  0  0  0  0  0  0
    4.2750    1.7050   20.8490 C   0  0  0  0  0  0  0  0  0  0  0  0
   12.1085    0.5979   24.7816 C   0  0  0  0  0  0  0  0  0  0  0  0
   12.2651    1.9477   22.7840 C   0  0  0  0  0  0  0  0  0  0  0  0
    4.6890    1.6810   18.4640 C   0  0  0  0  0  0  0  0  0  0  0  0
    5.4210    0.9600   21.0930 C   0  0  0  0  0  0  0  0  0  0  0  0
    8.9960   -2.3380   25.5320 C   0  0  0  0  0  0  0  0  0  0  0  0
    9.6730   -3.4710   23.5300 C   0  0  0  0  0  0  0  0  0  0  0  0
    9.0720   -1.1280   24.8640 C   0  0  0  0  0  0  0  0  0  0  0  0
    9.7200   -2.2600   22.8630 C   0  0  0  0  0  0  0  0  0  0  0  0
    7.6390   -0.2680   18.5410 C   0  0  0  0  0  0  0  0  0  0  0  0
   11.4910    1.2839   23.7357 C   0  0  0  0  0  0  0  0  0  0  0  0
    5.8300    0.9190   18.6970 C   0  0  0  0  0  0  0  0  0  0  0  0
    6.1790    0.5730   19.9990 C   0  0  0  0  0  0  0  0  0  0  0  0
    9.3070   -3.5340   24.8780 C   0  0  0  0  0  0  0  0  0  0  0  0
    9.3350   -1.0880   23.5010 C   0  0  0  0  0  0  0  0  0  0  0  0
    8.3597   -5.0073   26.6307 C   0  0  0  0  0  0  0  0  0  0  0  0
    9.0420    0.3700   21.5280 C   0  0  0  0  0  0  0  0  0  0  0  0
    8.4720   -6.3981   27.2296 C   0  0  0  0  0  0  0  0  0  0  0  0
    9.9252   -6.7605   27.4803 C   0  0  0  0  0  0  0  0  0  0  0  0
   10.7833   -6.6094   26.2282 C   0  0  0  0  0  0  0  0  0  0  0  0
   10.0539   -5.9099   25.0823 C   0  0  0  0  0  0  0  0  0  0  0  0
    9.9933    1.3078   23.6337 C   0  0  0  0  0  0  0  0  0  0  0  0
    8.1890   -0.7180   20.8700 C   0  0  0  0  0  0  0  0  0  0  0  0
    6.7580    0.3810   17.8350 N   0  0  0  0  0  0  0  0  0  0  0  0
    7.3170   -0.1610   19.8550 N   0  0  0  0  0  0  0  0  0  0  0  0
    9.2529   -4.7797   25.5644 N   0  0  0  0  0  0  0  0  0  0  0  0
    9.4560    0.1560   22.8130 N   0  0  0  0  0  0  0  0  0  0  0  0
    7.4954   -4.2356   27.0449 O   0  0  0  0  0  0  0  0  0  0  0  0
    9.2690    1.4140   20.9380 O   0  0  0  0  0  0  0  0  0  0  0  0
   15.3575    1.2234   23.9983 H   0  0  0  0  0  0  0  0  0  0  0  0
   13.9806    0.0425   25.6908 H   0  0  0  0  0  0  0  0  0  0  0  0
   14.2589    2.4435   22.1376 H   0  0  0  0  0  0  0  0  0  0  0  0
    3.0133    2.6526   19.3911 H   0  0  0  0  0  0  0  0  0  0  0  0
    3.6478    2.0143   21.6818 H   0  0  0  0  0  0  0  0  0  0  0  0
   11.5134    0.0776   25.5276 H   0  0  0  0  0  0  0  0  0  0  0  0
   11.7927    2.4847   21.9657 H   0  0  0  0  0  0  0  0  0  0  0  0
    4.4036    1.9735   17.4543 H   0  0  0  0  0  0  0  0  0  0  0  0
    5.7089    0.6922   22.1131 H   0  0  0  0  0  0  0  0  0  0  0  0
    8.6895   -2.3529   26.5807 H   0  0  0  0  0  0  0  0  0  0  0  0
    9.9262   -4.3897   22.9916 H   0  0  0  0  0  0  0  0  0  0  0  0
    8.9224   -0.1998   25.4238 H   0  0  0  0  0  0  0  0  0  0  0  0
   10.0649   -2.2343   21.8258 H   0  0  0  0  0  0  0  0  0  0  0  0
    8.4865   -0.8061   18.1803 H   0  0  0  0  0  0  0  0  0  0  0  0
    7.9325   -6.4148   28.1641 H   0  0  0  0  0  0  0  0  0  0  0  0
    8.0254   -7.0920   26.5333 H   0  0  0  0  0  0  0  0  0  0  0  0
   10.3387   -6.1267   28.2923 H   0  0  0  0  0  0  0  0  0  0  0  0
    9.9904   -7.8023   27.8537 H   0  0  0  0  0  0  0  0  0  0  0  0
   11.7037   -6.0404   26.4771 H   0  0  0  0  0  0  0  0  0  0  0  0
   11.1411   -7.6068   25.8918 H   0  0  0  0  0  0  0  0  0  0  0  0
   10.7782   -5.5162   24.3756 H   0  0  0  0  0  0  0  0  0  0  0  0
    9.4042   -6.6189   24.5807 H   0  0  0  0  0  0  0  0  0  0  0  0
    9.5373    1.2250   24.6262 H   0  0  0  0  0  0  0  0  0  0  0  0
    9.6445    2.2476   23.1928 H   0  0  0  0  0  0  0  0  0  0  0  0
    8.8326   -1.4554   20.3912 H   0  0  0  0  0  0  0  0  0  0  0  0
    7.5604   -1.1971   21.6201 H   0  0  0  0  0  0  0  0  0  0  0  0
  1  2  1  0  0  0  0
  1  3  2  0  0  0  0
  2  6  2  0  0  0  0
  3  7  1  0  0  0  0
  4  5  1  0  0  0  0
  4  8  2  0  0  0  0
  5  9  2  0  0  0  0
  6 15  1  0  0  0  0
  7 15  2  0  0  0  0
  8 16  1  0  0  0  0
  9 17  1  0  0  0  0
 10 12  2  0  0  0  0
 10 18  1  0  0  0  0
 11 13  1  0  0  0  0
 11 18  2  0  0  0  0
 12 19  1  0  0  0  0
 13 19  2  0  0  0  0
 14 28  2  0  0  0  0
 14 29  1  0  0  0  0
 15 26  1  0  0  0  0
 16 17  2  0  0  0  0
 16 28  1  0  0  0  0
 17 29  1  0  0  0  0
 18 30  1  0  0  0  0
 19 31  1  0  0  0  0
 20 22  1  0  0  0  0
 20 30  1  0  0  0  0
 20 32  2  0  0  0  0
 21 27  1  0  0  0  0
 21 31  1  0  0  0  0
 21 33  2  0  0  0  0
 22 23  1  0  0  0  0
 23 24  1  0  0  0  0
 24 25  1  0  0  0  0
 25 30  1  0  0  0  0
 26 31  1  0  0  0  0
 27 29  1  0  0  0  0
  1 34  1  0  0  0  0
  2 35  1  0  0  0  0
  3 36  1  0  0  0  0
  4 37  1  0  0  0  0
  5 38  1  0  0  0  0
  6 39  1  0  0  0  0
  7 40  1  0  0  0  0
  8 41  1  0  0  0  0
  9 42  1  0  0  0  0
 10 43  1  0  0  0  0
 11 44  1  0  0  0  0
 12 45  1  0  0  0  0
 13 46  1  0  0  0  0
 14 47  1  0  0  0  0
 22 48  1  0  0  0  0
 22 49  1  0  0  0  0
 23 50  1  0  0  0  0
 23 51  1  0  0  0  0
 24 52  1  0  0  0  0
 24 53  1  0  0  0  0
 25 54  1  0  0  0  0
 25 55  1  0  0  0  0
 26 56  1  0  0  0  0
 26 57  1  0  0  0  0
 27 58  1  0  0  0  0
 27 59  1  0  0  0  0
M  END
> <clash_score>
0.7790751876189459

> <docking_score>
-8.769113540649414

> <overlap_score>
1.001940369606018

$$$$
BENZO_384_1
  -OEChem-08232013463D

 56 60  0     0  0  0  0  0  0999 V2000
    3.9160    2.0630   19.5520 C   0  0  0  0  0  0  0  0  0  0  0  0
    4.2750    1.7050   20.8490 C   0  0  0  0  0  0  0  0  0  0  0  0
    4.6890    1.6810   18.4640 C   0  0  0  0  0  0  0  0  0  0  0  0
    5.4210    0.9600   21.0930 C   0  0  0  0  0  0  0  0  0  0  0  0
    8.9960   -2.3380   25.5320 C   0  0  0  0  0  0  0  0  0  0  0  0
    9.6730   -3.4710   23.5300 C   0  0  0  0  0  0  0  0  0  0  0  0
    9.0720   -1.1280   24.8640 C   0  0  0  0  0  0  0  0  0  0  0  0
    9.7200   -2.2600   22.8630 C   0  0  0  0  0  0  0  0  0  0  0  0
   12.3654    1.3738   22.6143 C   0  0  0  0  0  0  0  0  0  0  0  0
   13.6908    1.3270   22.9866 C   0  0  0  0  0  0  0  0  0  0  0  0
   12.1816    1.1715   24.9225 C   0  0  0  0  0  0  0  0  0  0  0  0
    7.6390   -0.2680   18.5410 C   0  0  0  0  0  0  0  0  0  0  0  0
   11.4910    1.2839   23.7357 C   0  0  0  0  0  0  0  0  0  0  0  0
    5.8300    0.9190   18.6970 C   0  0  0  0  0  0  0  0  0  0  0  0
    6.1790    0.5730   19.9990 C   0  0  0  0  0  0  0  0  0  0  0  0
    9.3070   -3.5340   24.8780 C   0  0  0  0  0  0  0  0  0  0  0  0
    9.3350   -1.0880   23.5010 C   0  0  0  0  0  0  0  0  0  0  0  0
    8.3597   -5.0073   26.6307 C   0  0  0  0  0  0  0  0  0  0  0  0
    9.0420    0.3700   21.5280 C   0  0  0  0  0  0  0  0  0  0  0  0
    8.4720   -6.3981   27.2296 C   0  0  0  0  0  0  0  0  0  0  0  0
    9.9252   -6.7605   27.4803 C   0  0  0  0  0  0  0  0  0  0  0  0
   10.7833   -6.6094   26.2282 C   0  0  0  0  0  0  0  0  0  0  0  0
   10.0539   -5.9099   25.0823 C   0  0  0  0  0  0  0  0  0  0  0  0
    9.9933    1.3078   23.6337 C   0  0  0  0  0  0  0  0  0  0  0  0
    8.1890   -0.7180   20.8700 C   0  0  0  0  0  0  0  0  0  0  0  0
    6.7580    0.3810   17.8350 N   0  0  0  0  0  0  0  0  0  0  0  0
    7.3170   -0.1610   19.8550 N   0  0  0  0  0  0  0  0  0  0  0  0
    9.2529   -4.7797   25.5644 N   0  0  0  0  0  0  0  0  0  0  0  0
    9.4560    0.1560   22.8130 N   0  0  0  0  0  0  0  0  0  0  0  0
    7.4954   -4.2356   27.0449 O   0  0  0  0  0  0  0  0  0  0  0  0
    9.2690    1.4140   20.9380 O   0  0  0  0  0  0  0  0  0  0  0  0
   13.8770    1.1752   24.6821 S   0  0  0  0  0  0  0  0  0  0  0  0
    3.0133    2.6526   19.3911 H   0  0  0  0  0  0  0  0  0  0  0  0
    3.6478    2.0143   21.6818 H   0  0  0  0  0  0  0  0  0  0  0  0
    4.4036    1.9735   17.4543 H   0  0  0  0  0  0  0  0  0  0  0  0
    5.7089    0.6922   22.1131 H   0  0  0  0  0  0  0  0  0  0  0  0
    8.6895   -2.3529   26.5807 H   0  0  0  0  0  0  0  0  0  0  0  0
    9.9262   -4.3897   22.9916 H   0  0  0  0  0  0  0  0  0  0  0  0
    8.9224   -0.1998   25.4238 H   0  0  0  0  0  0  0  0  0  0  0  0
   10.0649   -2.2343   21.8258 H   0  0  0  0  0  0  0  0  0  0  0  0
   12.0428    1.4677   21.5851 H   0  0  0  0  0  0  0  0  0  0  0  0
   14.5587    1.3741   22.3441 H   0  0  0  0  0  0  0  0  0  0  0  0
   11.7757    1.0861   25.9210 H   0  0  0  0  0  0  0  0  0  0  0  0
    8.4865   -0.8061   18.1803 H   0  0  0  0  0  0  0  0  0  0  0  0
    7.9325   -6.4148   28.1641 H   0  0  0  0  0  0  0  0  0  0  0  0
    8.0254   -7.0920   26.5333 H   0  0  0  0  0  0  0  0  0  0  0  0
   10.3387   -6.1267   28.2923 H   0  0  0  0  0  0  0  0  0  0  0  0
    9.9904   -7.8023   27.8537 H   0  0  0  0  0  0  0  0  0  0  0  0
   11.7037   -6.0404   26.4771 H   0  0  0  0  0  0  0  0  0  0  0  0
   11.1411   -7.6068   25.8918 H   0  0  0  0  0  0  0  0  0  0  0  0
   10.7782   -5.5162   24.3756 H   0  0  0  0  0  0  0  0  0  0  0  0
    9.4042   -6.6189   24.5807 H   0  0  0  0  0  0  0  0  0  0  0  0
    9.5373    1.2250   24.6262 H   0  0  0  0  0  0  0  0  0  0  0  0
    9.6445    2.2476   23.1928 H   0  0  0  0  0  0  0  0  0  0  0  0
    8.8326   -1.4554   20.3912 H   0  0  0  0  0  0  0  0  0  0  0  0
    7.5604   -1.1971   21.6201 H   0  0  0  0  0  0  0  0  0  0  0  0
  1  2  1  0  0  0  0
  1  3  2  0  0  0  0
  2  4  2  0  0  0  0
  3 14  1  0  0  0  0
  4 15  1  0  0  0  0
  5  7  2  0  0  0  0
  5 16  1  0  0  0  0
  6  8  1  0  0  0  0
  6 16  2  0  0  0  0
  7 17  1  0  0  0  0
  8 17  2  0  0  0  0
  9 10  2  0  0  0  0
  9 13  1  0  0  0  0
 10 32  1  0  0  0  0
 11 13  2  0  0  0  0
 11 32  1  0  0  0  0
 12 26  2  0  0  0  0
 12 27  1  0  0  0  0
 13 24  1  0  0  0  0
 14 15  2  0  0  0  0
 14 26  1  0  0  0  0
 15 27  1  0  0  0  0
 16 28  1  0  0  0  0
 17 29  1  0  0  0  0
 18 20  1  0  0  0  0
 18 28  1  0  0  0  0
 18 30  2  0  0  0  0
 19 25  1  0  0  0  0
 19 29  1  0  0  0  0
 19 31  2  0  0  0  0
 20 21  1  0  0  0  0
 21 22  1  0  0  0  0
 22 23  1  0  0  0  0
 23 28  1  0  0  0  0
 24 29  1  0  0  0  0
 25 27  1  0  0  0  0
  1 33  1  0  0  0  0
  2 34  1  0  0  0  0
  3 35  1  0  0  0  0
  4 36  1  0  0  0  0
  5 37  1  0  0  0  0
  6 38  1  0  0  0  0
  7 39  1  0  0  0  0
  8 40  1  0  0  0  0
  9 41  1  0  0  0  0
 10 42  1  0  0  0  0
 11 43  1  0  0  0  0
 12 44  1  0  0  0  0
 20 45  1  0  0  0  0
 20 46  1  0  0  0  0
 21 47  1  0  0  0  0
 21 48  1  0  0  0  0
 22 49  1  0  0  0  0
 22 50  1  0  0  0  0
 23 51  1  0  0  0  0
 23 52  1  0  0  0  0
 24 53  1  0  0  0  0
 24 54  1  0  0  0  0
 25 55  1  0  0  0  0
 25 56  1  0  0  0  0
M  END
> <clash_score>
0.7790751876189459

> <docking_score>
-8.95266056060791

> <overlap_score>
0.9815323948860168

$$$$
BENZO_389_1
  -OEChem-08232013463D

 58 62  0     0  0  0  0  0  0999 V2000
   14.2741    1.2228   23.9189 C   0  0  0  0  0  0  0  0  0  0  0  0
   13.4986    0.5622   24.8717 C   0  0  0  0  0  0  0  0  0  0  0  0
   13.6581    1.9111   22.8736 C   0  0  0  0  0  0  0  0  0  0  0  0
    3.9160    2.0630   19.5520 C   0  0  0  0  0  0  0  0  0  0  0  0
    4.2750    1.7050   20.8490 C   0  0  0  0  0  0  0  0  0  0  0  0
   12.1071    0.5898   24.7792 C   0  0  0  0  0  0  0  0  0  0  0  0
   12.2666    1.9386   22.7811 C   0  0  0  0  0  0  0  0  0  0  0  0
    4.6890    1.6810   18.4640 C   0  0  0  0  0  0  0  0  0  0  0  0
    5.4210    0.9600   21.0930 C   0  0  0  0  0  0  0  0  0  0  0  0
    8.9960   -2.3380   25.5320 C   0  0  0  0  0  0  0  0  0  0  0  0
    9.6730   -3.4710   23.5300 C   0  0  0  0  0  0  0  0  0  0  0  0
    9.0720   -1.1280   24.8640 C   0  0  0  0  0  0  0  0  0  0  0  0
    9.7200   -2.2600   22.8630 C   0  0  0  0  0  0  0  0  0  0  0  0
    7.6390   -0.2680   18.5410 C   0  0  0  0  0  0  0  0  0  0  0  0
   11.4910    1.2780   23.7339 C   0  0  0  0  0  0  0  0  0  0  0  0
    5.8300    0.9190   18.6970 C   0  0  0  0  0  0  0  0  0  0  0  0
    6.1790    0.5730   19.9990 C   0  0  0  0  0  0  0  0  0  0  0  0
    9.3070   -3.5340   24.8780 C   0  0  0  0  0  0  0  0  0  0  0  0
    9.3350   -1.0880   23.5010 C   0  0  0  0  0  0  0  0  0  0  0  0
    9.0420    0.3700   21.5280 C   0  0  0  0  0  0  0  0  0  0  0  0
   10.0771   -5.0255   26.7193 C   0  0  0  0  0  0  0  0  0  0  0  0
    8.0927   -5.6195   25.4071 C   0  0  0  0  0  0  0  0  0  0  0  0
    9.1933   -4.9427   27.9592 C   0  0  0  0  0  0  0  0  0  0  0  0
    7.2756   -5.5290   26.6967 C   0  0  0  0  0  0  0  0  0  0  0  0
    9.9933    1.3078   23.6336 C   0  0  0  0  0  0  0  0  0  0  0  0
    8.1890   -0.7180   20.8700 C   0  0  0  0  0  0  0  0  0  0  0  0
    6.7580    0.3810   17.8350 N   0  0  0  0  0  0  0  0  0  0  0  0
    7.3170   -0.1610   19.8550 N   0  0  0  0  0  0  0  0  0  0  0  0
    9.2563   -4.7368   25.5413 N   0  0  0  0  0  0  0  0  0  0  0  0
    9.4560    0.1560   22.8130 N   0  0  0  0  0  0  0  0  0  0  0  0
    9.2690    1.4140   20.9380 O   0  0  0  0  0  0  0  0  0  0  0  0
    8.0883   -5.8459   27.8325 O   0  0  0  0  0  0  0  0  0  0  0  0
   15.3576    1.2024   23.9918 H   0  0  0  0  0  0  0  0  0  0  0  0
   13.9781    0.0272   25.6862 H   0  0  0  0  0  0  0  0  0  0  0  0
   14.2615    2.4264   22.1323 H   0  0  0  0  0  0  0  0  0  0  0  0
    3.0133    2.6526   19.3911 H   0  0  0  0  0  0  0  0  0  0  0  0
    3.6478    2.0143   21.6818 H   0  0  0  0  0  0  0  0  0  0  0  0
   11.5109    0.0720   25.5260 H   0  0  0  0  0  0  0  0  0  0  0  0
   11.7953    2.4773   21.9633 H   0  0  0  0  0  0  0  0  0  0  0  0
    4.4036    1.9735   17.4543 H   0  0  0  0  0  0  0  0  0  0  0  0
    5.7089    0.6922   22.1131 H   0  0  0  0  0  0  0  0  0  0  0  0
    8.6905   -2.3533   26.5810 H   0  0  0  0  0  0  0  0  0  0  0  0
    9.9266   -4.3896   22.9917 H   0  0  0  0  0  0  0  0  0  0  0  0
    8.9233   -0.1992   25.4232 H   0  0  0  0  0  0  0  0  0  0  0  0
   10.0650   -2.2330   21.8256 H   0  0  0  0  0  0  0  0  0  0  0  0
    8.4865   -0.8061   18.1803 H   0  0  0  0  0  0  0  0  0  0  0  0
   10.8985   -4.3115   26.8085 H   0  0  0  0  0  0  0  0  0  0  0  0
   10.4915   -6.0334   26.6323 H   0  0  0  0  0  0  0  0  0  0  0  0
    8.4327   -6.6456   25.2620 H   0  0  0  0  0  0  0  0  0  0  0  0
    7.4725   -5.3241   24.5619 H   0  0  0  0  0  0  0  0  0  0  0  0
    9.7636   -5.2398   28.8419 H   0  0  0  0  0  0  0  0  0  0  0  0
    8.8236   -3.9268   28.1248 H   0  0  0  0  0  0  0  0  0  0  0  0
    6.8339   -4.5337   26.8232 H   0  0  0  0  0  0  0  0  0  0  0  0
    6.4550   -6.2521   26.6643 H   0  0  0  0  0  0  0  0  0  0  0  0
    9.5381    1.2265   24.6268 H   0  0  0  0  0  0  0  0  0  0  0  0
    9.6476    2.2491   23.1936 H   0  0  0  0  0  0  0  0  0  0  0  0
    8.8326   -1.4554   20.3912 H   0  0  0  0  0  0  0  0  0  0  0  0
    7.5604   -1.1971   21.6201 H   0  0  0  0  0  0  0  0  0  0  0  0
  1  2  1  0  0  0  0
  1  3  2  0  0  0  0
  2  6  2  0  0  0  0
  3  7  1  0  0  0  0
  4  5  1  0  0  0  0
  4  8  2  0  0  0  0
  5  9  2  0  0  0  0
  6 15  1  0  0  0  0
  7 15  2  0  0  0  0
  8 16  1  0  0  0  0
  9 17  1  0  0  0  0
 10 12  2  0  0  0  0
 10 18  1  0  0  0  0
 11 13  1  0  0  0  0
 11 18  2  0  0  0  0
 12 19  1  0  0  0  0
 13 19  2  0  0  0  0
 14 27  2  0  0  0  0
 14 28  1  0  0  0  0
 15 25  1  0  0  0  0
 16 17  2  0  0  0  0
 16 27  1  0  0  0  0
 17 28  1  0  0  0  0
 18 29  1  0  0  0  0
 19 30  1  0  0  0  0
 20 26  1  0  0  0  0
 20 30  1  0  0  0  0
 20 31  2  0  0  0  0
 21 23  1  0  0  0  0
 21 29  1  0  0  0  0
 22 24  1  0  0  0  0
 22 29  1  0  0  0  0
 23 32  1  0  0  0  0
 24 32  1  0  0  0  0
 25 30  1  0  0  0  0
 26 28  1  0  0  0  0
  1 33  1  0  0  0  0
  2 34  1  0  0  0  0
  3 35  1  0  0  0  0
  4 36  1  0  0  0  0
  5 37  1  0  0  0  0
  6 38  1  0  0  0  0
  7 39  1  0  0  0  0
  8 40  1  0  0  0  0
  9 41  1  0  0  0  0
 10 42  1  0  0  0  0
 11 43  1  0  0  0  0
 12 44  1  0  0  0  0
 13 45  1  0  0  0  0
 14 46  1  0  0  0  0
 21 47  1  0  0  0  0
 21 48  1  0  0  0  0
 22 49  1  0  0  0  0
 22 50  1  0  0  0  0
 23 51  1  0  0  0  0
 23 52  1  0  0  0  0
 24 53  1  0  0  0  0
 24 54  1  0  0  0  0
 25 55  1  0  0  0  0
 25 56  1  0  0  0  0
 26 57  1  0  0  0  0
 26 58  1  0  0  0  0
M  END
> <clash_score>
0

> <docking_score>
-9.766414642333984

> <overlap_score>
0.9880815744400024

$$$$
BENZO_387_1
  -OEChem-08232013463D

 59 63  0     0  0  0  0  0  0999 V2000
    3.9160    2.0630   19.5520 C   0  0  0  0  0  0  0  0  0  0  0  0
    4.2750    1.7050   20.8490 C   0  0  0  0  0  0  0  0  0  0  0  0
    4.6890    1.6810   18.4640 C   0  0  0  0  0  0  0  0  0  0  0  0
    5.4210    0.9600   21.0930 C   0  0  0  0  0  0  0  0  0  0  0  0
    8.9960   -2.3380   25.5320 C   0  0  0  0  0  0  0  0  0  0  0  0
    9.6730   -3.4710   23.5300 C   0  0  0  0  0  0  0  0  0  0  0  0
    9.0720   -1.1280   24.8640 C   0  0  0  0  0  0  0  0  0  0  0  0
    9.7200   -2.2600   22.8630 C   0  0  0  0  0  0  0  0  0  0  0  0
   12.2759    1.1736   24.8992 C   0  0  0  0  0  0  0  0  0  0  0  0
   12.4035    1.3621   22.7121 C   0  0  0  0  0  0  0  0  0  0  0  0
    7.6390   -0.2680   18.5410 C   0  0  0  0  0  0  0  0  0  0  0  0
   11.4910    1.2839   23.7357 C   0  0  0  0  0  0  0  0  0  0  0  0
    5.8300    0.9190   18.6970 C   0  0  0  0  0  0  0  0  0  0  0  0
    6.1790    0.5730   19.9990 C   0  0  0  0  0  0  0  0  0  0  0  0
    9.3070   -3.5340   24.8780 C   0  0  0  0  0  0  0  0  0  0  0  0
    9.3350   -1.0880   23.5010 C   0  0  0  0  0  0  0  0  0  0  0  0
    8.3597   -5.0073   26.6307 C   0  0  0  0  0  0  0  0  0  0  0  0
    9.0420    0.3700   21.5280 C   0  0  0  0  0  0  0  0  0  0  0  0
    8.4720   -6.3981   27.2296 C   0  0  0  0  0  0  0  0  0  0  0  0
    9.9252   -6.7605   27.4803 C   0  0  0  0  0  0  0  0  0  0  0  0
   10.7833   -6.6094   26.2282 C   0  0  0  0  0  0  0  0  0  0  0  0
   10.0539   -5.9099   25.0823 C   0  0  0  0  0  0  0  0  0  0  0  0
   14.9077    1.3394   22.6290 C   0  0  0  0  0  0  0  0  0  0  0  0
    9.9933    1.3078   23.6337 C   0  0  0  0  0  0  0  0  0  0  0  0
    8.1890   -0.7180   20.8700 C   0  0  0  0  0  0  0  0  0  0  0  0
   13.5861    1.1806   24.6399 N   0  0  0  0  0  0  0  0  0  0  0  0
    6.7580    0.3810   17.8350 N   0  0  0  0  0  0  0  0  0  0  0  0
   13.6316    1.2961   23.3017 N   0  0  0  0  0  0  0  0  0  0  0  0
    7.3170   -0.1610   19.8550 N   0  0  0  0  0  0  0  0  0  0  0  0
    9.2529   -4.7797   25.5644 N   0  0  0  0  0  0  0  0  0  0  0  0
    9.4560    0.1560   22.8130 N   0  0  0  0  0  0  0  0  0  0  0  0
    7.4954   -4.2356   27.0449 O   0  0  0  0  0  0  0  0  0  0  0  0
    9.2690    1.4140   20.9380 O   0  0  0  0  0  0  0  0  0  0  0  0
    3.0133    2.6526   19.3911 H   0  0  0  0  0  0  0  0  0  0  0  0
    3.6478    2.0143   21.6818 H   0  0  0  0  0  0  0  0  0  0  0  0
    4.4036    1.9735   17.4543 H   0  0  0  0  0  0  0  0  0  0  0  0
    5.7089    0.6922   22.1131 H   0  0  0  0  0  0  0  0  0  0  0  0
    8.6895   -2.3529   26.5807 H   0  0  0  0  0  0  0  0  0  0  0  0
    9.9262   -4.3897   22.9916 H   0  0  0  0  0  0  0  0  0  0  0  0
    8.9224   -0.1998   25.4238 H   0  0  0  0  0  0  0  0  0  0  0  0
   10.0649   -2.2343   21.8258 H   0  0  0  0  0  0  0  0  0  0  0  0
   11.9500    1.0874   25.9261 H   0  0  0  0  0  0  0  0  0  0  0  0
   12.2864    1.4554   21.6410 H   0  0  0  0  0  0  0  0  0  0  0  0
    8.4865   -0.8061   18.1803 H   0  0  0  0  0  0  0  0  0  0  0  0
    7.9325   -6.4148   28.1641 H   0  0  0  0  0  0  0  0  0  0  0  0
    8.0254   -7.0920   26.5333 H   0  0  0  0  0  0  0  0  0  0  0  0
   10.3387   -6.1267   28.2923 H   0  0  0  0  0  0  0  0  0  0  0  0
    9.9904   -7.8023   27.8537 H   0  0  0  0  0  0  0  0  0  0  0  0
   11.7037   -6.0404   26.4771 H   0  0  0  0  0  0  0  0  0  0  0  0
   11.1411   -7.6068   25.8918 H   0  0  0  0  0  0  0  0  0  0  0  0
   10.7782   -5.5162   24.3756 H   0  0  0  0  0  0  0  0  0  0  0  0
    9.4042   -6.6189   24.5807 H   0  0  0  0  0  0  0  0  0  0  0  0
   15.2184    2.3854   22.5619 H   0  0  0  0  0  0  0  0  0  0  0  0
   15.6393    0.7591   23.1982 H   0  0  0  0  0  0  0  0  0  0  0  0
   14.8049    0.9052   21.6306 H   0  0  0  0  0  0  0  0  0  0  0  0
    9.5373    1.2250   24.6262 H   0  0  0  0  0  0  0  0  0  0  0  0
    9.6445    2.2476   23.1928 H   0  0  0  0  0  0  0  0  0  0  0  0
    8.8326   -1.4554   20.3912 H   0  0  0  0  0  0  0  0  0  0  0  0
    7.5604   -1.1971   21.6201 H   0  0  0  0  0  0  0  0  0  0  0  0
  1  2  1  0  0  0  0
  1  3  2  0  0  0  0
  2  4  2  0  0  0  0
  3 13  1  0  0  0  0
  4 14  1  0  0  0  0
  5  7  2  0  0  0  0
  5 15  1  0  0  0  0
  6  8  1  0  0  0  0
  6 15  2  0  0  0  0
  7 16  1  0  0  0  0
  8 16  2  0  0  0  0
  9 12  1  0  0  0  0
  9 26  2  0  0  0  0
 10 12  2  0  0  0  0
 10 28  1  0  0  0  0
 11 27  2  0  0  0  0
 11 29  1  0  0  0  0
 12 24  1  0  0  0  0
 13 14  2  0  0  0  0
 13 27  1  0  0  0  0
 14 29  1  0  0  0  0
 15 30  1  0  0  0  0
 16 31  1  0  0  0  0
 17 19  1  0  0  0  0
 17 30  1  0  0  0  0
 17 32  2  0  0  0  0
 18 25  1  0  0  0  0
 18 31  1  0  0  0  0
 18 33  2  0  0  0  0
 19 20  1  0  0  0  0
 20 21  1  0  0  0  0
 21 22  1  0  0  0  0
 22 30  1  0  0  0  0
 23 28  1  0  0  0  0
 24 31  1  0  0  0  0
 25 29  1  0  0  0  0
 26 28  1  0  0  0  0
  1 34  1  0  0  0  0
  2 35  1  0  0  0  0
  3 36  1  0  0  0  0
  4 37  1  0  0  0  0
  5 38  1  0  0  0  0
  6 39  1  0  0  0  0
  7 40  1  0  0  0  0
  8 41  1  0  0  0  0
  9 42  1  0  0  0  0
 10 43  1  0  0  0  0
 11 44  1  0  0  0  0
 19 45  1  0  0  0  0
 19 46  1  0  0  0  0
 20 47  1  0  0  0  0
 20 48  1  0  0  0  0
 21 49  1  0  0  0  0
 21 50  1  0  0  0  0
 22 51  1  0  0  0  0
 22 52  1  0  0  0  0
 23 53  1  0  0  0  0
 23 54  1  0  0  0  0
 23 55  1  0  0  0  0
 24 56  1  0  0  0  0
 24 57  1  0  0  0  0
 25 58  1  0  0  0  0
 25 59  1  0  0  0  0
M  END
> <clash_score>
0.7790751876189459

> <docking_score>
-8.532676696777344

> <overlap_score>
0.9953587055206299

$$$$
BENZO_386_1
  -OEChem-08232013463D

 59 63  0     0  0  0  0  0  0999 V2000
    3.9160    2.0630   19.5520 C   0  0  0  0  0  0  0  0  0  0  0  0
    4.2750    1.7050   20.8490 C   0  0  0  0  0  0  0  0  0  0  0  0
   13.6451    2.1770   23.1041 C   0  0  0  0  0  0  0  0  0  0  0  0
   12.2537    2.1980   23.0089 C   0  0  0  0  0  0  0  0  0  0  0  0
    4.6890    1.6810   18.4640 C   0  0  0  0  0  0  0  0  0  0  0  0
    5.4210    0.9600   21.0930 C   0  0  0  0  0  0  0  0  0  0  0  0
    8.9960   -2.3380   25.5320 C   0  0  0  0  0  0  0  0  0  0  0  0
    9.6730   -3.4710   23.5300 C   0  0  0  0  0  0  0  0  0  0  0  0
    9.0720   -1.1280   24.8640 C   0  0  0  0  0  0  0  0  0  0  0  0
    9.7200   -2.2600   22.8630 C   0  0  0  0  0  0  0  0  0  0  0  0
   14.2739    1.2418   23.9262 C   0  0  0  0  0  0  0  0  0  0  0  0
   12.1198    0.3487   24.5578 C   0  0  0  0  0  0  0  0  0  0  0  0
    7.6390   -0.2680   18.5410 C   0  0  0  0  0  0  0  0  0  0  0  0
   11.4910    1.2839   23.7357 C   0  0  0  0  0  0  0  0  0  0  0  0
    5.8300    0.9190   18.6970 C   0  0  0  0  0  0  0  0  0  0  0  0
    6.1790    0.5730   19.9990 C   0  0  0  0  0  0  0  0  0  0  0  0
    9.3070   -3.5340   24.8780 C   0  0  0  0  0  0  0  0  0  0  0  0
    9.3350   -1.0880   23.5010 C   0  0  0  0  0  0  0  0  0  0  0  0
   13.5112    0.3277   24.6530 C   0  0  0  0  0  0  0  0  0  0  0  0
    8.3597   -5.0073   26.6307 C   0  0  0  0  0  0  0  0  0  0  0  0
    9.0420    0.3700   21.5280 C   0  0  0  0  0  0  0  0  0  0  0  0
    8.4720   -6.3981   27.2296 C   0  0  0  0  0  0  0  0  0  0  0  0
    9.9252   -6.7605   27.4803 C   0  0  0  0  0  0  0  0  0  0  0  0
   10.7833   -6.6094   26.2282 C   0  0  0  0  0  0  0  0  0  0  0  0
   10.0539   -5.9099   25.0823 C   0  0  0  0  0  0  0  0  0  0  0  0
    9.9933    1.3078   23.6337 C   0  0  0  0  0  0  0  0  0  0  0  0
    8.1890   -0.7180   20.8700 C   0  0  0  0  0  0  0  0  0  0  0  0
    6.7580    0.3810   17.8350 N   0  0  0  0  0  0  0  0  0  0  0  0
    7.3170   -0.1610   19.8550 N   0  0  0  0  0  0  0  0  0  0  0  0
    9.2529   -4.7797   25.5644 N   0  0  0  0  0  0  0  0  0  0  0  0
    9.4560    0.1560   22.8130 N   0  0  0  0  0  0  0  0  0  0  0  0
    7.4954   -4.2356   27.0449 O   0  0  0  0  0  0  0  0  0  0  0  0
    9.2690    1.4140   20.9380 O   0  0  0  0  0  0  0  0  0  0  0  0
   14.2875   -0.8251   25.6680 Cl  0  0  0  0  0  0  0  0  0  0  0  0
    3.0133    2.6526   19.3911 H   0  0  0  0  0  0  0  0  0  0  0  0
    3.6478    2.0143   21.6818 H   0  0  0  0  0  0  0  0  0  0  0  0
   14.2387    2.8891   22.5380 H   0  0  0  0  0  0  0  0  0  0  0  0
   11.7722    2.9302   22.3659 H   0  0  0  0  0  0  0  0  0  0  0  0
    4.4036    1.9735   17.4543 H   0  0  0  0  0  0  0  0  0  0  0  0
    5.7089    0.6922   22.1131 H   0  0  0  0  0  0  0  0  0  0  0  0
    8.6895   -2.3529   26.5807 H   0  0  0  0  0  0  0  0  0  0  0  0
    9.9262   -4.3897   22.9916 H   0  0  0  0  0  0  0  0  0  0  0  0
    8.9224   -0.1998   25.4238 H   0  0  0  0  0  0  0  0  0  0  0  0
   10.0649   -2.2343   21.8258 H   0  0  0  0  0  0  0  0  0  0  0  0
   15.3592    1.2373   23.9909 H   0  0  0  0  0  0  0  0  0  0  0  0
   11.5207   -0.3623   25.1221 H   0  0  0  0  0  0  0  0  0  0  0  0
    8.4865   -0.8061   18.1803 H   0  0  0  0  0  0  0  0  0  0  0  0
    7.9325   -6.4148   28.1641 H   0  0  0  0  0  0  0  0  0  0  0  0
    8.0254   -7.0920   26.5333 H   0  0  0  0  0  0  0  0  0  0  0  0
   10.3387   -6.1267   28.2923 H   0  0  0  0  0  0  0  0  0  0  0  0
    9.9904   -7.8023   27.8537 H   0  0  0  0  0  0  0  0  0  0  0  0
   11.7037   -6.0404   26.4771 H   0  0  0  0  0  0  0  0  0  0  0  0
   11.1411   -7.6068   25.8918 H   0  0  0  0  0  0  0  0  0  0  0  0
   10.7782   -5.5162   24.3756 H   0  0  0  0  0  0  0  0  0  0  0  0
    9.4042   -6.6189   24.5807 H   0  0  0  0  0  0  0  0  0  0  0  0
    9.5373    1.2250   24.6262 H   0  0  0  0  0  0  0  0  0  0  0  0
    9.6445    2.2476   23.1928 H   0  0  0  0  0  0  0  0  0  0  0  0
    8.8326   -1.4554   20.3912 H   0  0  0  0  0  0  0  0  0  0  0  0
    7.5604   -1.1971   21.6201 H   0  0  0  0  0  0  0  0  0  0  0  0
  1  2  1  0  0  0  0
  1  5  2  0  0  0  0
  2  6  2  0  0  0  0
  3  4  2  0  0  0  0
  3 11  1  0  0  0  0
  4 14  1  0  0  0  0
  5 15  1  0  0  0  0
  6 16  1  0  0  0  0
  7  9  2  0  0  0  0
  7 17  1  0  0  0  0
  8 10  1  0  0  0  0
  8 17  2  0  0  0  0
  9 18  1  0  0  0  0
 10 18  2  0  0  0  0
 11 19  2  0  0  0  0
 12 14  2  0  0  0  0
 12 19  1  0  0  0  0
 13 28  2  0  0  0  0
 13 29  1  0  0  0  0
 14 26  1  0  0  0  0
 15 16  2  0  0  0  0
 15 28  1  0  0  0  0
 16 29  1  0  0  0  0
 17 30  1  0  0  0  0
 18 31  1  0  0  0  0
 19 34  1  0  0  0  0
 20 22  1  0  0  0  0
 20 30  1  0  0  0  0
 20 32  2  0  0  0  0
 21 27  1  0  0  0  0
 21 31  1  0  0  0  0
 21 33  2  0  0  0  0
 22 23  1  0  0  0  0
 23 24  1  0  0  0  0
 24 25  1  0  0  0  0
 25 30  1  0  0  0  0
 26 31  1  0  0  0  0
 27 29  1  0  0  0  0
  1 35  1  0  0  0  0
  2 36  1  0  0  0  0
  3 37  1  0  0  0  0
  4 38  1  0  0  0  0
  5 39  1  0  0  0  0
  6 40  1  0  0  0  0
  7 41  1  0  0  0  0
  8 42  1  0  0  0  0
  9 43  1  0  0  0  0
 10 44  1  0  0  0  0
 11 45  1  0  0  0  0
 12 46  1  0  0  0  0
 13 47  1  0  0  0  0
 22 48  1  0  0  0  0
 22 49  1  0  0  0  0
 23 50  1  0  0  0  0
 23 51  1  0  0  0  0
 24 52  1  0  0  0  0
 24 53  1  0  0  0  0
 25 54  1  0  0  0  0
 25 55  1  0  0  0  0
 26 56  1  0  0  0  0
 26 57  1  0  0  0  0
 27 58  1  0  0  0  0
 27 59  1  0  0  0  0
M  END
> <clash_score>
1.4367518133274908

> <docking_score>
-7.591251373291016

> <overlap_score>
1.0055636167526245

$$$$
BENZO_388_1
  -OEChem-08232013463D

 55 59  0     0  0  0  0  0  0999 V2000
    3.9160    2.0630   19.5520 C   0  0  0  0  0  0  0  0  0  0  0  0
    4.2750    1.7050   20.8490 C   0  0  0  0  0  0  0  0  0  0  0  0
    4.6890    1.6810   18.4640 C   0  0  0  0  0  0  0  0  0  0  0  0
    5.4210    0.9600   21.0930 C   0  0  0  0  0  0  0  0  0  0  0  0
    8.9960   -2.3380   25.5320 C   0  0  0  0  0  0  0  0  0  0  0  0
    9.6730   -3.4710   23.5300 C   0  0  0  0  0  0  0  0  0  0  0  0
    9.0720   -1.1280   24.8640 C   0  0  0  0  0  0  0  0  0  0  0  0
    9.7200   -2.2600   22.8630 C   0  0  0  0  0  0  0  0  0  0  0  0
   12.3002    2.4402   23.8911 C   0  0  0  0  0  0  0  0  0  0  0  0
   13.6413    2.1322   23.9556 C   0  0  0  0  0  0  0  0  0  0  0  0
   12.2447    0.1258   23.6841 C   0  0  0  0  0  0  0  0  0  0  0  0
    7.6390   -0.2680   18.5410 C   0  0  0  0  0  0  0  0  0  0  0  0
   11.4910    1.2780   23.7339 C   0  0  0  0  0  0  0  0  0  0  0  0
    5.8300    0.9190   18.6970 C   0  0  0  0  0  0  0  0  0  0  0  0
    6.1790    0.5730   19.9990 C   0  0  0  0  0  0  0  0  0  0  0  0
    9.3070   -3.5340   24.8780 C   0  0  0  0  0  0  0  0  0  0  0  0
    9.3350   -1.0880   23.5010 C   0  0  0  0  0  0  0  0  0  0  0  0
    9.0420    0.3700   21.5280 C   0  0  0  0  0  0  0  0  0  0  0  0
   10.0771   -5.0255   26.7193 C   0  0  0  0  0  0  0  0  0  0  0  0
    8.0927   -5.6195   25.4071 C   0  0  0  0  0  0  0  0  0  0  0  0
    9.1933   -4.9427   27.9592 C   0  0  0  0  0  0  0  0  0  0  0  0
    7.2756   -5.5290   26.6967 C   0  0  0  0  0  0  0  0  0  0  0  0
    9.9933    1.3078   23.6336 C   0  0  0  0  0  0  0  0  0  0  0  0
    8.1890   -0.7180   20.8700 C   0  0  0  0  0  0  0  0  0  0  0  0
    6.7580    0.3810   17.8350 N   0  0  0  0  0  0  0  0  0  0  0  0
    7.3170   -0.1610   19.8550 N   0  0  0  0  0  0  0  0  0  0  0  0
    9.2563   -4.7368   25.5413 N   0  0  0  0  0  0  0  0  0  0  0  0
    9.4560    0.1560   22.8130 N   0  0  0  0  0  0  0  0  0  0  0  0
    9.2690    1.4140   20.9380 O   0  0  0  0  0  0  0  0  0  0  0  0
    8.0883   -5.8459   27.8325 O   0  0  0  0  0  0  0  0  0  0  0  0
   13.9205    0.4476   23.8267 S   0  0  0  0  0  0  0  0  0  0  0  0
    3.0133    2.6526   19.3911 H   0  0  0  0  0  0  0  0  0  0  0  0
    3.6478    2.0143   21.6818 H   0  0  0  0  0  0  0  0  0  0  0  0
    4.4036    1.9735   17.4543 H   0  0  0  0  0  0  0  0  0  0  0  0
    5.7089    0.6922   22.1131 H   0  0  0  0  0  0  0  0  0  0  0  0
    8.6905   -2.3533   26.5810 H   0  0  0  0  0  0  0  0  0  0  0  0
    9.9266   -4.3896   22.9917 H   0  0  0  0  0  0  0  0  0  0  0  0
    8.9233   -0.1992   25.4232 H   0  0  0  0  0  0  0  0  0  0  0  0
   10.0650   -2.2330   21.8256 H   0  0  0  0  0  0  0  0  0  0  0  0
   11.9219    3.4528   23.9537 H   0  0  0  0  0  0  0  0  0  0  0  0
   14.4705    2.8157   24.0715 H   0  0  0  0  0  0  0  0  0  0  0  0
   11.8955   -0.8911   23.5696 H   0  0  0  0  0  0  0  0  0  0  0  0
    8.4865   -0.8061   18.1803 H   0  0  0  0  0  0  0  0  0  0  0  0
   10.8985   -4.3115   26.8085 H   0  0  0  0  0  0  0  0  0  0  0  0
   10.4915   -6.0334   26.6323 H   0  0  0  0  0  0  0  0  0  0  0  0
    8.4327   -6.6456   25.2620 H   0  0  0  0  0  0  0  0  0  0  0  0
    7.4725   -5.3241   24.5619 H   0  0  0  0  0  0  0  0  0  0  0  0
    9.7636   -5.2398   28.8419 H   0  0  0  0  0  0  0  0  0  0  0  0
    8.8236   -3.9268   28.1248 H   0  0  0  0  0  0  0  0  0  0  0  0
    6.8339   -4.5337   26.8232 H   0  0  0  0  0  0  0  0  0  0  0  0
    6.4550   -6.2521   26.6643 H   0  0  0  0  0  0  0  0  0  0  0  0
    9.5381    1.2265   24.6268 H   0  0  0  0  0  0  0  0  0  0  0  0
    9.6476    2.2491   23.1936 H   0  0  0  0  0  0  0  0  0  0  0  0
    8.8326   -1.4554   20.3912 H   0  0  0  0  0  0  0  0  0  0  0  0
    7.5604   -1.1971   21.6201 H   0  0  0  0  0  0  0  0  0  0  0  0
  1  2  1  0  0  0  0
  1  3  2  0  0  0  0
  2  4  2  0  0  0  0
  3 14  1  0  0  0  0
  4 15  1  0  0  0  0
  5  7  2  0  0  0  0
  5 16  1  0  0  0  0
  6  8  1  0  0  0  0
  6 16  2  0  0  0  0
  7 17  1  0  0  0  0
  8 17  2  0  0  0  0
  9 10  2  0  0  0  0
  9 13  1  0  0  0  0
 10 31  1  0  0  0  0
 11 13  2  0  0  0  0
 11 31  1  0  0  0  0
 12 25  2  0  0  0  0
 12 26  1  0  0  0  0
 13 23  1  0  0  0  0
 14 15  2  0  0  0  0
 14 25  1  0  0  0  0
 15 26  1  0  0  0  0
 16 27  1  0  0  0  0
 17 28  1  0  0  0  0
 18 24  1  0  0  0  0
 18 28  1  0  0  0  0
 18 29  2  0  0  0  0
 19 21  1  0  0  0  0
 19 27  1  0  0  0  0
 20 22  1  0  0  0  0
 20 27  1  0  0  0  0
 21 30  1  0  0  0  0
 22 30  1  0  0  0  0
 23 28  1  0  0  0  0
 24 26  1  0  0  0  0
  1 32  1  0  0  0  0
  2 33  1  0  0  0  0
  3 34  1  0  0  0  0
  4 35  1  0  0  0  0
  5 36  1  0  0  0  0
  6 37  1  0  0  0  0
  7 38  1  0  0  0  0
  8 39  1  0  0  0  0
  9 40  1  0  0  0  0
 10 41  1  0  0  0  0
 11 42  1  0  0  0  0
 12 43  1  0  0  0  0
 19 44  1  0  0  0  0
 19 45  1  0  0  0  0
 20 46  1  0  0  0  0
 20 47  1  0  0  0  0
 21 48  1  0  0  0  0
 21 49  1  0  0  0  0
 22 50  1  0  0  0  0
 22 51  1  0  0  0  0
 23 52  1  0  0  0  0
 23 53  1  0  0  0  0
 24 54  1  0  0  0  0
 24 55  1  0  0  0  0
M  END
> <clash_score>
0

> <docking_score>
-8.724674224853516

> <overlap_score>
0.9735226035118103

$$$$
BENZO_391_1
  -OEChem-08232013463D

 58 62  0     0  0  0  0  0  0999 V2000
    3.9160    2.0630   19.5520 C   0  0  0  0  0  0  0  0  0  0  0  0
    4.2750    1.7050   20.8490 C   0  0  0  0  0  0  0  0  0  0  0  0
    4.6890    1.6810   18.4640 C   0  0  0  0  0  0  0  0  0  0  0  0
    5.4210    0.9600   21.0930 C   0  0  0  0  0  0  0  0  0  0  0  0
    8.9960   -2.3380   25.5320 C   0  0  0  0  0  0  0  0  0  0  0  0
    9.6730   -3.4710   23.5300 C   0  0  0  0  0  0  0  0  0  0  0  0
    9.0720   -1.1280   24.8640 C   0  0  0  0  0  0  0  0  0  0  0  0
    9.7200   -2.2600   22.8630 C   0  0  0  0  0  0  0  0  0  0  0  0
   12.2768    1.1643   24.8964 C   0  0  0  0  0  0  0  0  0  0  0  0
   12.4026    1.3530   22.7093 C   0  0  0  0  0  0  0  0  0  0  0  0
    7.6390   -0.2680   18.5410 C   0  0  0  0  0  0  0  0  0  0  0  0
   11.4910    1.2780   23.7339 C   0  0  0  0  0  0  0  0  0  0  0  0
    5.8300    0.9190   18.6970 C   0  0  0  0  0  0  0  0  0  0  0  0
    6.1790    0.5730   19.9990 C   0  0  0  0  0  0  0  0  0  0  0  0
    9.3070   -3.5340   24.8780 C   0  0  0  0  0  0  0  0  0  0  0  0
    9.3350   -1.0880   23.5010 C   0  0  0  0  0  0  0  0  0  0  0  0
    9.0420    0.3700   21.5280 C   0  0  0  0  0  0  0  0  0  0  0  0
    9.5175   -4.8597   26.9771 C   0  0  0  0  0  0  0  0  0  0  0  0
    8.5165   -5.8725   24.9808 C   0  0  0  0  0  0  0  0  0  0  0  0
    8.1868   -5.0439   27.6987 C   0  0  0  0  0  0  0  0  0  0  0  0
    7.2200   -6.0347   25.7755 C   0  0  0  0  0  0  0  0  0  0  0  0
   14.9066    1.3206   22.6231 C   0  0  0  0  0  0  0  0  0  0  0  0
    9.9933    1.3078   23.6336 C   0  0  0  0  0  0  0  0  0  0  0  0
    8.1890   -0.7180   20.8700 C   0  0  0  0  0  0  0  0  0  0  0  0
   13.5868    1.1662   24.6355 N   0  0  0  0  0  0  0  0  0  0  0  0
    6.7580    0.3810   17.8350 N   0  0  0  0  0  0  0  0  0  0  0  0
   13.6311    1.2821   23.2974 N   0  0  0  0  0  0  0  0  0  0  0  0
    7.3170   -0.1610   19.8550 N   0  0  0  0  0  0  0  0  0  0  0  0
    9.2563   -4.7368   25.5413 N   0  0  0  0  0  0  0  0  0  0  0  0
    9.4560    0.1560   22.8130 N   0  0  0  0  0  0  0  0  0  0  0  0
    9.2690    1.4140   20.9380 O   0  0  0  0  0  0  0  0  0  0  0  0
    7.4994   -6.1853   27.1719 O   0  0  0  0  0  0  0  0  0  0  0  0
    3.0133    2.6526   19.3911 H   0  0  0  0  0  0  0  0  0  0  0  0
    3.6478    2.0143   21.6818 H   0  0  0  0  0  0  0  0  0  0  0  0
    4.4036    1.9735   17.4543 H   0  0  0  0  0  0  0  0  0  0  0  0
    5.7089    0.6922   22.1131 H   0  0  0  0  0  0  0  0  0  0  0  0
    8.6905   -2.3533   26.5810 H   0  0  0  0  0  0  0  0  0  0  0  0
    9.9266   -4.3896   22.9917 H   0  0  0  0  0  0  0  0  0  0  0  0
    8.9233   -0.1992   25.4232 H   0  0  0  0  0  0  0  0  0  0  0  0
   10.0650   -2.2330   21.8256 H   0  0  0  0  0  0  0  0  0  0  0  0
   11.9519    1.0790   25.9237 H   0  0  0  0  0  0  0  0  0  0  0  0
   12.2846    1.4472   21.6383 H   0  0  0  0  0  0  0  0  0  0  0  0
    8.4865   -0.8061   18.1803 H   0  0  0  0  0  0  0  0  0  0  0  0
   10.0205   -3.9698   27.3609 H   0  0  0  0  0  0  0  0  0  0  0  0
   10.1535   -5.7310   27.1549 H   0  0  0  0  0  0  0  0  0  0  0  0
    9.1181   -6.7773   25.0755 H   0  0  0  0  0  0  0  0  0  0  0  0
    8.2812   -5.7064   23.9305 H   0  0  0  0  0  0  0  0  0  0  0  0
    8.3629   -5.2252   28.7611 H   0  0  0  0  0  0  0  0  0  0  0  0
    7.5530   -4.1570   27.6103 H   0  0  0  0  0  0  0  0  0  0  0  0
    6.5459   -5.1839   25.6221 H   0  0  0  0  0  0  0  0  0  0  0  0
    6.6948   -6.9354   25.4436 H   0  0  0  0  0  0  0  0  0  0  0  0
   15.2212    2.3654   22.5560 H   0  0  0  0  0  0  0  0  0  0  0  0
   15.6366    0.7373   23.1913 H   0  0  0  0  0  0  0  0  0  0  0  0
   14.8009    0.8871   21.6247 H   0  0  0  0  0  0  0  0  0  0  0  0
    9.5381    1.2265   24.6268 H   0  0  0  0  0  0  0  0  0  0  0  0
    9.6476    2.2491   23.1936 H   0  0  0  0  0  0  0  0  0  0  0  0
    8.8326   -1.4554   20.3912 H   0  0  0  0  0  0  0  0  0  0  0  0
    7.5604   -1.1971   21.6201 H   0  0  0  0  0  0  0  0  0  0  0  0
  1  2  1  0  0  0  0
  1  3  2  0  0  0  0
  2  4  2  0  0  0  0
  3 13  1  0  0  0  0
  4 14  1  0  0  0  0
  5  7  2  0  0  0  0
  5 15  1  0  0  0  0
  6  8  1  0  0  0  0
  6 15  2  0  0  0  0
  7 16  1  0  0  0  0
  8 16  2  0  0  0  0
  9 12  1  0  0  0  0
  9 25  2  0  0  0  0
 10 12  2  0  0  0  0
 10 27  1  0  0  0  0
 11 26  2  0  0  0  0
 11 28  1  0  0  0  0
 12 23  1  0  0  0  0
 13 14  2  0  0  0  0
 13 26  1  0  0  0  0
 14 28  1  0  0  0  0
 15 29  1  0  0  0  0
 16 30  1  0  0  0  0
 17 24  1  0  0  0  0
 17 30  1  0  0  0  0
 17 31  2  0  0  0  0
 18 20  1  0  0  0  0
 18 29  1  0  0  0  0
 19 21  1  0  0  0  0
 19 29  1  0  0  0  0
 20 32  1  0  0  0  0
 21 32  1  0  0  0  0
 22 27  1  0  0  0  0
 23 30  1  0  0  0  0
 24 28  1  0  0  0  0
 25 27  1  0  0  0  0
  1 33  1  0  0  0  0
  2 34  1  0  0  0  0
  3 35  1  0  0  0  0
  4 36  1  0  0  0  0
  5 37  1  0  0  0  0
  6 38  1  0  0  0  0
  7 39  1  0  0  0  0
  8 40  1  0  0  0  0
  9 41  1  0  0  0  0
 10 42  1  0  0  0  0
 11 43  1  0  0  0  0
 18 44  1  0  0  0  0
 18 45  1  0  0  0  0
 19 46  1  0  0  0  0
 19 47  1  0  0  0  0
 20 48  1  0  0  0  0
 20 49  1  0  0  0  0
 21 50  1  0  0  0  0
 21 51  1  0  0  0  0
 22 52  1  0  0  0  0
 22 53  1  0  0  0  0
 22 54  1  0  0  0  0
 23 55  1  0  0  0  0
 23 56  1  0  0  0  0
 24 57  1  0  0  0  0
 24 58  1  0  0  0  0
M  END
> <clash_score>
0

> <docking_score>
-9.483051300048828

> <overlap_score>
0.985168993473053

$$$$
BENZO_390_1
  -OEChem-08232013463D

 58 62  0     0  0  0  0  0  0999 V2000
    3.9160    2.0630   19.5520 C   0  0  0  0  0  0  0  0  0  0  0  0
    4.2750    1.7050   20.8490 C   0  0  0  0  0  0  0  0  0  0  0  0
   13.6478    2.1629   23.1000 C   0  0  0  0  0  0  0  0  0  0  0  0
   12.2564    2.1894   23.0065 C   0  0  0  0  0  0  0  0  0  0  0  0
    4.6890    1.6810   18.4640 C   0  0  0  0  0  0  0  0  0  0  0  0
    5.4210    0.9600   21.0930 C   0  0  0  0  0  0  0  0  0  0  0  0
    8.9960   -2.3380   25.5320 C   0  0  0  0  0  0  0  0  0  0  0  0
    9.6730   -3.4710   23.5300 C   0  0  0  0  0  0  0  0  0  0  0  0
    9.0720   -1.1280   24.8640 C   0  0  0  0  0  0  0  0  0  0  0  0
    9.7200   -2.2600   22.8630 C   0  0  0  0  0  0  0  0  0  0  0  0
   14.2740    1.2250   23.9210 C   0  0  0  0  0  0  0  0  0  0  0  0
   12.1171    0.3401   24.5550 C   0  0  0  0  0  0  0  0  0  0  0  0
    7.6390   -0.2680   18.5410 C   0  0  0  0  0  0  0  0  0  0  0  0
   11.4910    1.2780   23.7339 C   0  0  0  0  0  0  0  0  0  0  0  0
    5.8300    0.9190   18.6970 C   0  0  0  0  0  0  0  0  0  0  0  0
    6.1790    0.5730   19.9990 C   0  0  0  0  0  0  0  0  0  0  0  0
    9.3070   -3.5340   24.8780 C   0  0  0  0  0  0  0  0  0  0  0  0
    9.3350   -1.0880   23.5010 C   0  0  0  0  0  0  0  0  0  0  0  0
   13.5086    0.3136   24.6485 C   0  0  0  0  0  0  0  0  0  0  0  0
    9.0420    0.3700   21.5280 C   0  0  0  0  0  0  0  0  0  0  0  0
   10.0771   -5.0255   26.7193 C   0  0  0  0  0  0  0  0  0  0  0  0
    8.0927   -5.6195   25.4071 C   0  0  0  0  0  0  0  0  0  0  0  0
    9.1933   -4.9427   27.9592 C   0  0  0  0  0  0  0  0  0  0  0  0
    7.2756   -5.5290   26.6967 C   0  0  0  0  0  0  0  0  0  0  0  0
    9.9933    1.3078   23.6336 C   0  0  0  0  0  0  0  0  0  0  0  0
    8.1890   -0.7180   20.8700 C   0  0  0  0  0  0  0  0  0  0  0  0
    6.7580    0.3810   17.8350 N   0  0  0  0  0  0  0  0  0  0  0  0
    7.3170   -0.1610   19.8550 N   0  0  0  0  0  0  0  0  0  0  0  0
    9.2563   -4.7368   25.5413 N   0  0  0  0  0  0  0  0  0  0  0  0
    9.4560    0.1560   22.8130 N   0  0  0  0  0  0  0  0  0  0  0  0
    9.2690    1.4140   20.9380 O   0  0  0  0  0  0  0  0  0  0  0  0
    8.0883   -5.8459   27.8325 O   0  0  0  0  0  0  0  0  0  0  0  0
   14.2816   -0.8425   25.6621 Cl  0  0  0  0  0  0  0  0  0  0  0  0
    3.0133    2.6526   19.3911 H   0  0  0  0  0  0  0  0  0  0  0  0
    3.6478    2.0143   21.6818 H   0  0  0  0  0  0  0  0  0  0  0  0
   14.2435    2.8729   22.5335 H   0  0  0  0  0  0  0  0  0  0  0  0
   11.7770    2.9237   22.3644 H   0  0  0  0  0  0  0  0  0  0  0  0
    4.4036    1.9735   17.4543 H   0  0  0  0  0  0  0  0  0  0  0  0
    5.7089    0.6922   22.1131 H   0  0  0  0  0  0  0  0  0  0  0  0
    8.6905   -2.3533   26.5810 H   0  0  0  0  0  0  0  0  0  0  0  0
    9.9266   -4.3896   22.9917 H   0  0  0  0  0  0  0  0  0  0  0  0
    8.9233   -0.1992   25.4232 H   0  0  0  0  0  0  0  0  0  0  0  0
   10.0650   -2.2330   21.8256 H   0  0  0  0  0  0  0  0  0  0  0  0
   15.3593    1.2162   23.9844 H   0  0  0  0  0  0  0  0  0  0  0  0
   11.5159   -0.3687   25.1197 H   0  0  0  0  0  0  0  0  0  0  0  0
    8.4865   -0.8061   18.1803 H   0  0  0  0  0  0  0  0  0  0  0  0
   10.8985   -4.3115   26.8085 H   0  0  0  0  0  0  0  0  0  0  0  0
   10.4915   -6.0334   26.6323 H   0  0  0  0  0  0  0  0  0  0  0  0
    8.4327   -6.6456   25.2620 H   0  0  0  0  0  0  0  0  0  0  0  0
    7.4725   -5.3241   24.5619 H   0  0  0  0  0  0  0  0  0  0  0  0
    9.7636   -5.2398   28.8419 H   0  0  0  0  0  0  0  0  0  0  0  0
    8.8236   -3.9268   28.1248 H   0  0  0  0  0  0  0  0  0  0  0  0
    6.8339   -4.5337   26.8232 H   0  0  0  0  0  0  0  0  0  0  0  0
    6.4550   -6.2521   26.6643 H   0  0  0  0  0  0  0  0  0  0  0  0
    9.5381    1.2265   24.6268 H   0  0  0  0  0  0  0  0  0  0  0  0
    9.6476    2.2491   23.1936 H   0  0  0  0  0  0  0  0  0  0  0  0
    8.8326   -1.4554   20.3912 H   0  0  0  0  0  0  0  0  0  0  0  0
    7.5604   -1.1971   21.6201 H   0  0  0  0  0  0  0  0  0  0  0  0
  1  2  1  0  0  0  0
  1  5  2  0  0  0  0
  2  6  2  0  0  0  0
  3  4  2  0  0  0  0
  3 11  1  0  0  0  0
  4 14  1  0  0  0  0
  5 15  1  0  0  0  0
  6 16  1  0  0  0  0
  7  9  2  0  0  0  0
  7 17  1  0  0  0  0
  8 10  1  0  0  0  0
  8 17  2  0  0  0  0
  9 18  1  0  0  0  0
 10 18  2  0  0  0  0
 11 19  2  0  0  0  0
 12 14  2  0  0  0  0
 12 19  1  0  0  0  0
 13 27  2  0  0  0  0
 13 28  1  0  0  0  0
 14 25  1  0  0  0  0
 15 16  2  0  0  0  0
 15 27  1  0  0  0  0
 16 28  1  0  0  0  0
 17 29  1  0  0  0  0
 18 30  1  0  0  0  0
 19 33  1  0  0  0  0
 20 26  1  0  0  0  0
 20 30  1  0  0  0  0
 20 31  2  0  0  0  0
 21 23  1  0  0  0  0
 21 29  1  0  0  0  0
 22 24  1  0  0  0  0
 22 29  1  0  0  0  0
 23 32  1  0  0  0  0
 24 32  1  0  0  0  0
 25 30  1  0  0  0  0
 26 28  1  0  0  0  0
  1 34  1  0  0  0  0
  2 35  1  0  0  0  0
  3 36  1  0  0  0  0
  4 37  1  0  0  0  0
  5 38  1  0  0  0  0
  6 39  1  0  0  0  0
  7 40  1  0  0  0  0
  8 41  1  0  0  0  0
  9 42  1  0  0  0  0
 10 43  1  0  0  0  0
 11 44  1  0  0  0  0
 12 45  1  0  0  0  0
 13 46  1  0  0  0  0
 21 47  1  0  0  0  0
 21 48  1  0  0  0  0
 22 49  1  0  0  0  0
 22 50  1  0  0  0  0
 23 51  1  0  0  0  0
 23 52  1  0  0  0  0
 24 53  1  0  0  0  0
 24 54  1  0  0  0  0
 25 55  1  0  0  0  0
 25 56  1  0  0  0  0
 26 57  1  0  0  0  0
 26 58  1  0  0  0  0
M  END
> <clash_score>
0.6631332256877756

> <docking_score>
-8.583023071289062

> <overlap_score>
0.9917993545532227

$$$$
BENZO_393_1
  -OEChem-08232013463D

 53 56  0     0  0  0  0  0  0999 V2000
   14.3784    1.0558   23.5372 C   0  0  0  0  0  0  0  0  0  0  0  0
    4.2750    1.7050   20.8490 C   0  0  0  0  0  0  0  0  0  0  0  0
   13.6601    0.4129   24.5453 C   0  0  0  0  0  0  0  0  0  0  0  0
   13.7041    1.7750   22.5504 C   0  0  0  0  0  0  0  0  0  0  0  0
    3.9160    2.0630   19.5520 C   0  0  0  0  0  0  0  0  0  0  0  0
    5.4210    0.9600   21.0930 C   0  0  0  0  0  0  0  0  0  0  0  0
   12.2675    0.4891   24.5665 C   0  0  0  0  0  0  0  0  0  0  0  0
   12.3115    1.8512   22.5716 C   0  0  0  0  0  0  0  0  0  0  0  0
    4.6890    1.6810   18.4640 C   0  0  0  0  0  0  0  0  0  0  0  0
    9.0720   -1.1280   24.8640 C   0  0  0  0  0  0  0  0  0  0  0  0
    9.7200   -2.2600   22.8630 C   0  0  0  0  0  0  0  0  0  0  0  0
    8.9960   -2.3380   25.5320 C   0  0  0  0  0  0  0  0  0  0  0  0
    9.6730   -3.4710   23.5300 C   0  0  0  0  0  0  0  0  0  0  0  0
    6.1790    0.5730   19.9990 C   0  0  0  0  0  0  0  0  0  0  0  0
   11.5931    1.2082   23.5797 C   0  0  0  0  0  0  0  0  0  0  0  0
    5.8300    0.9190   18.6970 C   0  0  0  0  0  0  0  0  0  0  0  0
    9.3350   -1.0880   23.5010 C   0  0  0  0  0  0  0  0  0  0  0  0
    9.3070   -3.5340   24.8780 C   0  0  0  0  0  0  0  0  0  0  0  0
    7.3170   -0.1610   19.8550 C   0  0  0  0  0  0  0  0  0  0  0  0
    9.0420    0.3700   21.5280 C   0  0  0  0  0  0  0  0  0  0  0  0
    8.8742   -4.8064   26.9496 C   0  0  0  0  0  0  0  0  0  0  0  0
    9.5655   -5.9897   24.8591 C   0  0  0  0  0  0  0  0  0  0  0  0
   10.0942    1.2904   23.6018 C   0  0  0  0  0  0  0  0  0  0  0  0
    8.1890   -0.7180   20.8700 C   0  0  0  0  0  0  0  0  0  0  0  0
    6.7580    0.3810   17.8350 N   0  0  0  0  0  0  0  0  0  0  0  0
    7.6390   -0.2680   18.5410 N   0  0  0  0  0  0  0  0  0  0  0  0
    9.4560    0.1560   22.8130 N   0  0  0  0  0  0  0  0  0  0  0  0
    9.2543   -4.7552   25.5519 N   0  0  0  0  0  0  0  0  0  0  0  0
    9.2690    1.4140   20.9380 O   0  0  0  0  0  0  0  0  0  0  0  0
   15.4628    0.9975   23.5216 H   0  0  0  0  0  0  0  0  0  0  0  0
    3.6562    2.0083   21.6780 H   0  0  0  0  0  0  0  0  0  0  0  0
   14.1850   -0.1462   25.3144 H   0  0  0  0  0  0  0  0  0  0  0  0
   14.2631    2.2766   21.7660 H   0  0  0  0  0  0  0  0  0  0  0  0
    3.0225    2.6465   19.3867 H   0  0  0  0  0  0  0  0  0  0  0  0
    5.7084    0.6884   22.1515 H   0  0  0  0  0  0  0  0  0  0  0  0
   11.7160   -0.0152   25.3558 H   0  0  0  0  0  0  0  0  0  0  0  0
   11.7946    2.4136   21.7985 H   0  0  0  0  0  0  0  0  0  0  0  0
    4.3943    1.9831   17.4240 H   0  0  0  0  0  0  0  0  0  0  0  0
    8.9217   -0.1995   25.4232 H   0  0  0  0  0  0  0  0  0  0  0  0
   10.0643   -2.2341   21.8254 H   0  0  0  0  0  0  0  0  0  0  0  0
    8.6893   -2.3540   26.5808 H   0  0  0  0  0  0  0  0  0  0  0  0
    9.9257   -4.3898   22.9921 H   0  0  0  0  0  0  0  0  0  0  0  0
    8.8922   -5.8499   27.2971 H   0  0  0  0  0  0  0  0  0  0  0  0
    9.5819   -4.2099   27.5440 H   0  0  0  0  0  0  0  0  0  0  0  0
    7.8599   -4.3978   27.0688 H   0  0  0  0  0  0  0  0  0  0  0  0
    9.4682   -6.8360   25.5551 H   0  0  0  0  0  0  0  0  0  0  0  0
    8.8685   -6.1243   24.0189 H   0  0  0  0  0  0  0  0  0  0  0  0
   10.5961   -5.9459   24.4772 H   0  0  0  0  0  0  0  0  0  0  0  0
    9.7199    1.2416   24.6302 H   0  0  0  0  0  0  0  0  0  0  0  0
    9.7461    2.2363   23.1736 H   0  0  0  0  0  0  0  0  0  0  0  0
    7.6090   -1.2088   21.6628 H   0  0  0  0  0  0  0  0  0  0  0  0
    8.8730   -1.4654   20.4463 H   0  0  0  0  0  0  0  0  0  0  0  0
    8.3933   -0.7388   18.1198 H   0  0  0  0  0  0  0  0  0  0  0  0
  1  3  1  0  0  0  0
  1  4  2  0  0  0  0
  2  5  1  0  0  0  0
  2  6  2  0  0  0  0
  3  7  2  0  0  0  0
  4  8  1  0  0  0  0
  5  9  2  0  0  0  0
  6 14  1  0  0  0  0
  7 15  1  0  0  0  0
  8 15  2  0  0  0  0
  9 16  1  0  0  0  0
 10 12  2  0  0  0  0
 10 17  1  0  0  0  0
 11 13  1  0  0  0  0
 11 17  2  0  0  0  0
 12 18  1  0  0  0  0
 13 18  2  0  0  0  0
 14 16  1  0  0  0  0
 14 19  2  0  0  0  0
 15 23  1  0  0  0  0
 16 25  2  0  0  0  0
 17 27  1  0  0  0  0
 18 28  1  0  0  0  0
 19 24  1  0  0  0  0
 19 26  1  0  0  0  0
 20 24  1  0  0  0  0
 20 27  1  0  0  0  0
 20 29  2  0  0  0  0
 21 28  1  0  0  0  0
 22 28  1  0  0  0  0
 23 27  1  0  0  0  0
 25 26  1  0  0  0  0
  1 30  1  0  0  0  0
  2 31  1  0  0  0  0
  3 32  1  0  0  0  0
  4 33  1  0  0  0  0
  5 34  1  0  0  0  0
  6 35  1  0  0  0  0
  7 36  1  0  0  0  0
  8 37  1  0  0  0  0
  9 38  1  0  0  0  0
 10 39  1  0  0  0  0
 11 40  1  0  0  0  0
 12 41  1  0  0  0  0
 13 42  1  0  0  0  0
 21 43  1  0  0  0  0
 21 44  1  0  0  0  0
 21 45  1  0  0  0  0
 22 46  1  0  0  0  0
 22 47  1  0  0  0  0
 22 48  1  0  0  0  0
 23 49  1  0  0  0  0
 23 50  1  0  0  0  0
 24 51  1  0  0  0  0
 24 52  1  0  0  0  0
 26 53  1  0  0  0  0
M  END
> <clash_score>
0

> <docking_score>
-9.404821395874023

> <overlap_score>
0.9828792214393616

$$$$
BENZO_392_1
  -OEChem-08232013463D

 50 53  0     0  0  0  0  0  0999 V2000
    4.2750    1.7050   20.8490 C   0  0  0  0  0  0  0  0  0  0  0  0
    3.9160    2.0630   19.5520 C   0  0  0  0  0  0  0  0  0  0  0  0
    5.4210    0.9600   21.0930 C   0  0  0  0  0  0  0  0  0  0  0  0
    4.6890    1.6810   18.4640 C   0  0  0  0  0  0  0  0  0  0  0  0
    9.0720   -1.1280   24.8640 C   0  0  0  0  0  0  0  0  0  0  0  0
    9.7200   -2.2600   22.8630 C   0  0  0  0  0  0  0  0  0  0  0  0
    8.9960   -2.3380   25.5320 C   0  0  0  0  0  0  0  0  0  0  0  0
    9.6730   -3.4710   23.5300 C   0  0  0  0  0  0  0  0  0  0  0  0
   12.4522    2.3429   23.6478 C   0  0  0  0  0  0  0  0  0  0  0  0
   13.7826    1.9879   23.6082 C   0  0  0  0  0  0  0  0  0  0  0  0
   12.2998    0.0290   23.4904 C   0  0  0  0  0  0  0  0  0  0  0  0
    6.1790    0.5730   19.9990 C   0  0  0  0  0  0  0  0  0  0  0  0
   11.5931    1.2082   23.5797 C   0  0  0  0  0  0  0  0  0  0  0  0
    5.8300    0.9190   18.6970 C   0  0  0  0  0  0  0  0  0  0  0  0
    9.3350   -1.0880   23.5010 C   0  0  0  0  0  0  0  0  0  0  0  0
    9.3070   -3.5340   24.8780 C   0  0  0  0  0  0  0  0  0  0  0  0
    7.3170   -0.1610   19.8550 C   0  0  0  0  0  0  0  0  0  0  0  0
    9.0420    0.3700   21.5280 C   0  0  0  0  0  0  0  0  0  0  0  0
    8.0128   -5.2151   26.1416 C   0  0  0  0  0  0  0  0  0  0  0  0
   10.4372   -5.5860   25.6589 C   0  0  0  0  0  0  0  0  0  0  0  0
   10.0942    1.2904   23.6018 C   0  0  0  0  0  0  0  0  0  0  0  0
    8.1890   -0.7180   20.8700 C   0  0  0  0  0  0  0  0  0  0  0  0
    6.7580    0.3810   17.8350 N   0  0  0  0  0  0  0  0  0  0  0  0
    7.6390   -0.2680   18.5410 N   0  0  0  0  0  0  0  0  0  0  0  0
    9.4560    0.1560   22.8130 N   0  0  0  0  0  0  0  0  0  0  0  0
    9.2543   -4.7552   25.5519 N   0  0  0  0  0  0  0  0  0  0  0  0
    9.2690    1.4140   20.9380 O   0  0  0  0  0  0  0  0  0  0  0  0
   13.9918    0.2924   23.4892 S   0  0  0  0  0  0  0  0  0  0  0  0
    3.6562    2.0083   21.6780 H   0  0  0  0  0  0  0  0  0  0  0  0
    3.0225    2.6465   19.3867 H   0  0  0  0  0  0  0  0  0  0  0  0
    5.7084    0.6884   22.1515 H   0  0  0  0  0  0  0  0  0  0  0  0
    4.3943    1.9831   17.4240 H   0  0  0  0  0  0  0  0  0  0  0  0
    8.9217   -0.1995   25.4232 H   0  0  0  0  0  0  0  0  0  0  0  0
   10.0643   -2.2341   21.8254 H   0  0  0  0  0  0  0  0  0  0  0  0
    8.6893   -2.3540   26.5808 H   0  0  0  0  0  0  0  0  0  0  0  0
    9.9257   -4.3898   22.9921 H   0  0  0  0  0  0  0  0  0  0  0  0
   12.1156    3.3693   23.7217 H   0  0  0  0  0  0  0  0  0  0  0  0
   14.6416    2.6428   23.6427 H   0  0  0  0  0  0  0  0  0  0  0  0
   11.9074   -0.9764   23.4244 H   0  0  0  0  0  0  0  0  0  0  0  0
    8.1744   -6.1904   26.6238 H   0  0  0  0  0  0  0  0  0  0  0  0
    7.6718   -4.4870   26.8924 H   0  0  0  0  0  0  0  0  0  0  0  0
    7.2494   -5.3166   25.3561 H   0  0  0  0  0  0  0  0  0  0  0  0
   10.1946   -6.4996   26.2216 H   0  0  0  0  0  0  0  0  0  0  0  0
   10.7865   -5.8578   24.6518 H   0  0  0  0  0  0  0  0  0  0  0  0
   11.2285   -5.0312   26.1842 H   0  0  0  0  0  0  0  0  0  0  0  0
    9.7199    1.2416   24.6302 H   0  0  0  0  0  0  0  0  0  0  0  0
    9.7461    2.2363   23.1736 H   0  0  0  0  0  0  0  0  0  0  0  0
    7.6090   -1.2088   21.6628 H   0  0  0  0  0  0  0  0  0  0  0  0
    8.8730   -1.4654   20.4463 H   0  0  0  0  0  0  0  0  0  0  0  0
    8.3933   -0.7388   18.1198 H   0  0  0  0  0  0  0  0  0  0  0  0
  1  2  1  0  0  0  0
  1  3  2  0  0  0  0
  2  4  2  0  0  0  0
  3 12  1  0  0  0  0
  4 14  1  0  0  0  0
  5  7  2  0  0  0  0
  5 15  1  0  0  0  0
  6  8  1  0  0  0  0
  6 15  2  0  0  0  0
  7 16  1  0  0  0  0
  8 16  2  0  0  0  0
  9 10  2  0  0  0  0
  9 13  1  0  0  0  0
 10 28  1  0  0  0  0
 11 13  2  0  0  0  0
 11 28  1  0  0  0  0
 12 14  1  0  0  0  0
 12 17  2  0  0  0  0
 13 21  1  0  0  0  0
 14 23  2  0  0  0  0
 15 25  1  0  0  0  0
 16 26  1  0  0  0  0
 17 22  1  0  0  0  0
 17 24  1  0  0  0  0
 18 22  1  0  0  0  0
 18 25  1  0  0  0  0
 18 27  2  0  0  0  0
 19 26  1  0  0  0  0
 20 26  1  0  0  0  0
 21 25  1  0  0  0  0
 23 24  1  0  0  0  0
  1 29  1  0  0  0  0
  2 30  1  0  0  0  0
  3 31  1  0  0  0  0
  4 32  1  0  0  0  0
  5 33  1  0  0  0  0
  6 34  1  0  0  0  0
  7 35  1  0  0  0  0
  8 36  1  0  0  0  0
  9 37  1  0  0  0  0
 10 38  1  0  0  0  0
 11 39  1  0  0  0  0
 19 40  1  0  0  0  0
 19 41  1  0  0  0  0
 19 42  1  0  0  0  0
 20 43  1  0  0  0  0
 20 44  1  0  0  0  0
 20 45  1  0  0  0  0
 21 46  1  0  0  0  0
 21 47  1  0  0  0  0
 22 48  1  0  0  0  0
 22 49  1  0  0  0  0
 24 50  1  0  0  0  0
M  END
> <clash_score>
0

> <docking_score>
-9.206466674804688

> <overlap_score>
0.9691707491874695

$$$$
BENZO_395_1
  -OEChem-08232013463D

 53 56  0     0  0  0  0  0  0999 V2000
    4.2750    1.7050   20.8490 C   0  0  0  0  0  0  0  0  0  0  0  0
    3.9160    2.0630   19.5520 C   0  0  0  0  0  0  0  0  0  0  0  0
    5.4210    0.9600   21.0930 C   0  0  0  0  0  0  0  0  0  0  0  0
    4.6890    1.6810   18.4640 C   0  0  0  0  0  0  0  0  0  0  0  0
    9.0720   -1.1280   24.8640 C   0  0  0  0  0  0  0  0  0  0  0  0
    9.7200   -2.2600   22.8630 C   0  0  0  0  0  0  0  0  0  0  0  0
    8.9960   -2.3380   25.5320 C   0  0  0  0  0  0  0  0  0  0  0  0
    9.6730   -3.4710   23.5300 C   0  0  0  0  0  0  0  0  0  0  0  0
   12.4906    1.9975   22.8359 C   0  0  0  0  0  0  0  0  0  0  0  0
   12.3970    0.3459   24.2844 C   0  0  0  0  0  0  0  0  0  0  0  0
    6.1790    0.5730   19.9990 C   0  0  0  0  0  0  0  0  0  0  0  0
   11.5931    1.2082   23.5797 C   0  0  0  0  0  0  0  0  0  0  0  0
    5.8300    0.9190   18.6970 C   0  0  0  0  0  0  0  0  0  0  0  0
    9.3350   -1.0880   23.5010 C   0  0  0  0  0  0  0  0  0  0  0  0
    9.3070   -3.5340   24.8780 C   0  0  0  0  0  0  0  0  0  0  0  0
    7.3170   -0.1610   19.8550 C   0  0  0  0  0  0  0  0  0  0  0  0
    9.0420    0.3700   21.5280 C   0  0  0  0  0  0  0  0  0  0  0  0
   14.8781    0.0216   24.4183 C   0  0  0  0  0  0  0  0  0  0  0  0
    8.0128   -5.2151   26.1416 C   0  0  0  0  0  0  0  0  0  0  0  0
   10.4372   -5.5860   25.6589 C   0  0  0  0  0  0  0  0  0  0  0  0
   10.0942    1.2904   23.6018 C   0  0  0  0  0  0  0  0  0  0  0  0
    8.1890   -0.7180   20.8700 C   0  0  0  0  0  0  0  0  0  0  0  0
   13.7670    1.6661   23.0484 N   0  0  0  0  0  0  0  0  0  0  0  0
    6.7580    0.3810   17.8350 N   0  0  0  0  0  0  0  0  0  0  0  0
    7.6390   -0.2680   18.5410 N   0  0  0  0  0  0  0  0  0  0  0  0
   13.6773    0.6591   23.9338 N   0  0  0  0  0  0  0  0  0  0  0  0
    9.4560    0.1560   22.8130 N   0  0  0  0  0  0  0  0  0  0  0  0
    9.2543   -4.7552   25.5519 N   0  0  0  0  0  0  0  0  0  0  0  0
    9.2690    1.4140   20.9380 O   0  0  0  0  0  0  0  0  0  0  0  0
    3.6562    2.0083   21.6780 H   0  0  0  0  0  0  0  0  0  0  0  0
    3.0225    2.6465   19.3867 H   0  0  0  0  0  0  0  0  0  0  0  0
    5.7084    0.6884   22.1515 H   0  0  0  0  0  0  0  0  0  0  0  0
    4.3943    1.9831   17.4240 H   0  0  0  0  0  0  0  0  0  0  0  0
    8.9217   -0.1995   25.4232 H   0  0  0  0  0  0  0  0  0  0  0  0
   10.0643   -2.2341   21.8254 H   0  0  0  0  0  0  0  0  0  0  0  0
    8.6893   -2.3540   26.5808 H   0  0  0  0  0  0  0  0  0  0  0  0
    9.9257   -4.3898   22.9921 H   0  0  0  0  0  0  0  0  0  0  0  0
   12.2703    2.8015   22.1479 H   0  0  0  0  0  0  0  0  0  0  0  0
   12.1727   -0.4435   24.9890 H   0  0  0  0  0  0  0  0  0  0  0  0
   15.1116   -0.8107   23.7491 H   0  0  0  0  0  0  0  0  0  0  0  0
   15.6969    0.7464   24.4271 H   0  0  0  0  0  0  0  0  0  0  0  0
   14.7094   -0.3405   25.4363 H   0  0  0  0  0  0  0  0  0  0  0  0
    8.1744   -6.1904   26.6238 H   0  0  0  0  0  0  0  0  0  0  0  0
    7.6718   -4.4870   26.8924 H   0  0  0  0  0  0  0  0  0  0  0  0
    7.2494   -5.3166   25.3561 H   0  0  0  0  0  0  0  0  0  0  0  0
   10.1946   -6.4996   26.2216 H   0  0  0  0  0  0  0  0  0  0  0  0
   10.7865   -5.8578   24.6518 H   0  0  0  0  0  0  0  0  0  0  0  0
   11.2285   -5.0312   26.1842 H   0  0  0  0  0  0  0  0  0  0  0  0
    9.7199    1.2416   24.6302 H   0  0  0  0  0  0  0  0  0  0  0  0
    9.7461    2.2363   23.1736 H   0  0  0  0  0  0  0  0  0  0  0  0
    7.6090   -1.2088   21.6628 H   0  0  0  0  0  0  0  0  0  0  0  0
    8.8730   -1.4654   20.4463 H   0  0  0  0  0  0  0  0  0  0  0  0
    8.3933   -0.7388   18.1198 H   0  0  0  0  0  0  0  0  0  0  0  0
  1  2  1  0  0  0  0
  1  3  2  0  0  0  0
  2  4  2  0  0  0  0
  3 11  1  0  0  0  0
  4 13  1  0  0  0  0
  5  7  2  0  0  0  0
  5 14  1  0  0  0  0
  6  8  1  0  0  0  0
  6 14  2  0  0  0  0
  7 15  1  0  0  0  0
  8 15  2  0  0  0  0
  9 12  1  0  0  0  0
  9 23  2  0  0  0  0
 10 12  2  0  0  0  0
 10 26  1  0  0  0  0
 11 13  1  0  0  0  0
 11 16  2  0  0  0  0
 12 21  1  0  0  0  0
 13 24  2  0  0  0  0
 14 27  1  0  0  0  0
 15 28  1  0  0  0  0
 16 22  1  0  0  0  0
 16 25  1  0  0  0  0
 17 22  1  0  0  0  0
 17 27  1  0  0  0  0
 17 29  2  0  0  0  0
 18 26  1  0  0  0  0
 19 28  1  0  0  0  0
 20 28  1  0  0  0  0
 21 27  1  0  0  0  0
 23 26  1  0  0  0  0
 24 25  1  0  0  0  0
  1 30  1  0  0  0  0
  2 31  1  0  0  0  0
  3 32  1  0  0  0  0
  4 33  1  0  0  0  0
  5 34  1  0  0  0  0
  6 35  1  0  0  0  0
  7 36  1  0  0  0  0
  8 37  1  0  0  0  0
  9 38  1  0  0  0  0
 10 39  1  0  0  0  0
 18 40  1  0  0  0  0
 18 41  1  0  0  0  0
 18 42  1  0  0  0  0
 19 43  1  0  0  0  0
 19 44  1  0  0  0  0
 19 45  1  0  0  0  0
 20 46  1  0  0  0  0
 20 47  1  0  0  0  0
 20 48  1  0  0  0  0
 21 49  1  0  0  0  0
 21 50  1  0  0  0  0
 22 51  1  0  0  0  0
 22 52  1  0  0  0  0
 25 53  1  0  0  0  0
M  END
> <clash_score>
0

> <docking_score>
-9.424671173095703

> <overlap_score>
0.9793081283569336

$$$$
BENZO_394_1
  -OEChem-08232013463D

 53 56  0     0  0  0  0  0  0999 V2000
    4.2750    1.7050   20.8490 C   0  0  0  0  0  0  0  0  0  0  0  0
    3.9160    2.0630   19.5520 C   0  0  0  0  0  0  0  0  0  0  0  0
   13.7196    2.0044   22.7545 C   0  0  0  0  0  0  0  0  0  0  0  0
    5.4210    0.9600   21.0930 C   0  0  0  0  0  0  0  0  0  0  0  0
   12.3269    2.0795   22.7747 C   0  0  0  0  0  0  0  0  0  0  0  0
    4.6890    1.6810   18.4640 C   0  0  0  0  0  0  0  0  0  0  0  0
    9.0720   -1.1280   24.8640 C   0  0  0  0  0  0  0  0  0  0  0  0
    9.7200   -2.2600   22.8630 C   0  0  0  0  0  0  0  0  0  0  0  0
    8.9960   -2.3380   25.5320 C   0  0  0  0  0  0  0  0  0  0  0  0
    9.6730   -3.4710   23.5300 C   0  0  0  0  0  0  0  0  0  0  0  0
   14.3785    1.0580   23.5393 C   0  0  0  0  0  0  0  0  0  0  0  0
   12.2520    0.2618   24.3645 C   0  0  0  0  0  0  0  0  0  0  0  0
    6.1790    0.5730   19.9990 C   0  0  0  0  0  0  0  0  0  0  0  0
   11.5931    1.2082   23.5797 C   0  0  0  0  0  0  0  0  0  0  0  0
    5.8300    0.9190   18.6970 C   0  0  0  0  0  0  0  0  0  0  0  0
    9.3350   -1.0880   23.5010 C   0  0  0  0  0  0  0  0  0  0  0  0
    9.3070   -3.5340   24.8780 C   0  0  0  0  0  0  0  0  0  0  0  0
   13.6447    0.1868   24.3443 C   0  0  0  0  0  0  0  0  0  0  0  0
    7.3170   -0.1610   19.8550 C   0  0  0  0  0  0  0  0  0  0  0  0
    9.0420    0.3700   21.5280 C   0  0  0  0  0  0  0  0  0  0  0  0
    8.0128   -5.2151   26.1416 C   0  0  0  0  0  0  0  0  0  0  0  0
   10.4372   -5.5860   25.6589 C   0  0  0  0  0  0  0  0  0  0  0  0
   10.0942    1.2904   23.6018 C   0  0  0  0  0  0  0  0  0  0  0  0
    8.1890   -0.7180   20.8700 C   0  0  0  0  0  0  0  0  0  0  0  0
    6.7580    0.3810   17.8350 N   0  0  0  0  0  0  0  0  0  0  0  0
    7.6390   -0.2680   18.5410 N   0  0  0  0  0  0  0  0  0  0  0  0
    9.4560    0.1560   22.8130 N   0  0  0  0  0  0  0  0  0  0  0  0
    9.2543   -4.7552   25.5519 N   0  0  0  0  0  0  0  0  0  0  0  0
    9.2690    1.4140   20.9380 O   0  0  0  0  0  0  0  0  0  0  0  0
   14.4582   -0.9799   25.3133 Cl  0  0  0  0  0  0  0  0  0  0  0  0
    3.6562    2.0083   21.6780 H   0  0  0  0  0  0  0  0  0  0  0  0
    3.0225    2.6465   19.3867 H   0  0  0  0  0  0  0  0  0  0  0  0
   14.2907    2.6832   22.1276 H   0  0  0  0  0  0  0  0  0  0  0  0
    5.7084    0.6884   22.1515 H   0  0  0  0  0  0  0  0  0  0  0  0
   11.8219    2.8201   22.1600 H   0  0  0  0  0  0  0  0  0  0  0  0
    4.3943    1.9831   17.4240 H   0  0  0  0  0  0  0  0  0  0  0  0
    8.9217   -0.1995   25.4232 H   0  0  0  0  0  0  0  0  0  0  0  0
   10.0643   -2.2341   21.8254 H   0  0  0  0  0  0  0  0  0  0  0  0
    8.6893   -2.3540   26.5808 H   0  0  0  0  0  0  0  0  0  0  0  0
    9.9257   -4.3898   22.9921 H   0  0  0  0  0  0  0  0  0  0  0  0
   15.4644    1.0112   23.5138 H   0  0  0  0  0  0  0  0  0  0  0  0
   11.6753   -0.4156   24.9901 H   0  0  0  0  0  0  0  0  0  0  0  0
    8.1744   -6.1904   26.6238 H   0  0  0  0  0  0  0  0  0  0  0  0
    7.6718   -4.4870   26.8924 H   0  0  0  0  0  0  0  0  0  0  0  0
    7.2494   -5.3166   25.3561 H   0  0  0  0  0  0  0  0  0  0  0  0
   10.1946   -6.4996   26.2216 H   0  0  0  0  0  0  0  0  0  0  0  0
   10.7865   -5.8578   24.6518 H   0  0  0  0  0  0  0  0  0  0  0  0
   11.2285   -5.0312   26.1842 H   0  0  0  0  0  0  0  0  0  0  0  0
    9.7199    1.2416   24.6302 H   0  0  0  0  0  0  0  0  0  0  0  0
    9.7461    2.2363   23.1736 H   0  0  0  0  0  0  0  0  0  0  0  0
    7.6090   -1.2088   21.6628 H   0  0  0  0  0  0  0  0  0  0  0  0
    8.8730   -1.4654   20.4463 H   0  0  0  0  0  0  0  0  0  0  0  0
    8.3933   -0.7388   18.1198 H   0  0  0  0  0  0  0  0  0  0  0  0
  1  2  1  0  0  0  0
  1  4  2  0  0  0  0
  2  6  2  0  0  0  0
  3  5  2  0  0  0  0
  3 11  1  0  0  0  0
  4 13  1  0  0  0  0
  5 14  1  0  0  0  0
  6 15  1  0  0  0  0
  7  9  2  0  0  0  0
  7 16  1  0  0  0  0
  8 10  1  0  0  0  0
  8 16  2  0  0  0  0
  9 17  1  0  0  0  0
 10 17  2  0  0  0  0
 11 18  2  0  0  0  0
 12 14  2  0  0  0  0
 12 18  1  0  0  0  0
 13 15  1  0  0  0  0
 13 19  2  0  0  0  0
 14 23  1  0  0  0  0
 15 25  2  0  0  0  0
 16 27  1  0  0  0  0
 17 28  1  0  0  0  0
 18 30  1  0  0  0  0
 19 24  1  0  0  0  0
 19 26  1  0  0  0  0
 20 24  1  0  0  0  0
 20 27  1  0  0  0  0
 20 29  2  0  0  0  0
 21 28  1  0  0  0  0
 22 28  1  0  0  0  0
 23 27  1  0  0  0  0
 25 26  1  0  0  0  0
  1 31  1  0  0  0  0
  2 32  1  0  0  0  0
  3 33  1  0  0  0  0
  4 34  1  0  0  0  0
  5 35  1  0  0  0  0
  6 36  1  0  0  0  0
  7 37  1  0  0  0  0
  8 38  1  0  0  0  0
  9 39  1  0  0  0  0
 10 40  1  0  0  0  0
 11 41  1  0  0  0  0
 12 42  1  0  0  0  0
 21 43  1  0  0  0  0
 21 44  1  0  0  0  0
 21 45  1  0  0  0  0
 22 46  1  0  0  0  0
 22 47  1  0  0  0  0
 22 48  1  0  0  0  0
 23 49  1  0  0  0  0
 23 50  1  0  0  0  0
 24 51  1  0  0  0  0
 24 52  1  0  0  0  0
 26 53  1  0  0  0  0
M  END
> <clash_score>
0.739407045306671

> <docking_score>
-8.744162559509277

> <overlap_score>
0.9822654128074646

$$$$
BENZO_397_1
  -OEChem-08232013473D

 55 58  0     0  0  0  0  0  0999 V2000
   14.3784    1.0558   23.5372 C   0  0  0  0  0  0  0  0  0  0  0  0
    4.2750    1.7050   20.8490 C   0  0  0  0  0  0  0  0  0  0  0  0
   13.6601    0.4129   24.5453 C   0  0  0  0  0  0  0  0  0  0  0  0
   13.7041    1.7750   22.5504 C   0  0  0  0  0  0  0  0  0  0  0  0
    3.9160    2.0630   19.5520 C   0  0  0  0  0  0  0  0  0  0  0  0
    5.4210    0.9600   21.0930 C   0  0  0  0  0  0  0  0  0  0  0  0
   12.2675    0.4891   24.5665 C   0  0  0  0  0  0  0  0  0  0  0  0
   12.3115    1.8512   22.5716 C   0  0  0  0  0  0  0  0  0  0  0  0
    4.6890    1.6810   18.4640 C   0  0  0  0  0  0  0  0  0  0  0  0
    8.9960   -2.3380   25.5320 C   0  0  0  0  0  0  0  0  0  0  0  0
    9.6730   -3.4710   23.5300 C   0  0  0  0  0  0  0  0  0  0  0  0
    9.0720   -1.1280   24.8640 C   0  0  0  0  0  0  0  0  0  0  0  0
    9.7200   -2.2600   22.8630 C   0  0  0  0  0  0  0  0  0  0  0  0
    6.1790    0.5730   19.9990 C   0  0  0  0  0  0  0  0  0  0  0  0
   11.5931    1.2082   23.5797 C   0  0  0  0  0  0  0  0  0  0  0  0
    5.8300    0.9190   18.6970 C   0  0  0  0  0  0  0  0  0  0  0  0
    9.3070   -3.5340   24.8780 C   0  0  0  0  0  0  0  0  0  0  0  0
    9.3350   -1.0880   23.5010 C   0  0  0  0  0  0  0  0  0  0  0  0
    7.3170   -0.1610   19.8550 C   0  0  0  0  0  0  0  0  0  0  0  0
    9.0420    0.3700   21.5280 C   0  0  0  0  0  0  0  0  0  0  0  0
    9.5333   -6.0236   25.0414 C   0  0  0  0  0  0  0  0  0  0  0  0
    7.9318   -7.6183   26.1806 C   0  0  0  0  0  0  0  0  0  0  0  0
   10.0942    1.2904   23.6018 C   0  0  0  0  0  0  0  0  0  0  0  0
    8.1890   -0.7180   20.8700 C   0  0  0  0  0  0  0  0  0  0  0  0
    9.3522   -7.0865   26.1149 C   0  0  0  0  0  0  0  0  0  0  0  0
    6.7580    0.3810   17.8350 N   0  0  0  0  0  0  0  0  0  0  0  0
    7.6390   -0.2680   18.5410 N   0  0  0  0  0  0  0  0  0  0  0  0
    9.2546   -4.7422   25.5438 N   0  0  0  0  0  0  0  0  0  0  0  0
    9.4560    0.1560   22.8130 N   0  0  0  0  0  0  0  0  0  0  0  0
    9.2690    1.4140   20.9380 O   0  0  0  0  0  0  0  0  0  0  0  0
    9.8805   -6.3053   23.8992 O   0  0  0  0  0  0  0  0  0  0  0  0
   15.4628    0.9975   23.5216 H   0  0  0  0  0  0  0  0  0  0  0  0
    3.6562    2.0083   21.6780 H   0  0  0  0  0  0  0  0  0  0  0  0
   14.1850   -0.1462   25.3144 H   0  0  0  0  0  0  0  0  0  0  0  0
   14.2631    2.2766   21.7660 H   0  0  0  0  0  0  0  0  0  0  0  0
    3.0225    2.6465   19.3867 H   0  0  0  0  0  0  0  0  0  0  0  0
    5.7084    0.6884   22.1515 H   0  0  0  0  0  0  0  0  0  0  0  0
   11.7160   -0.0152   25.3558 H   0  0  0  0  0  0  0  0  0  0  0  0
   11.7946    2.4136   21.7985 H   0  0  0  0  0  0  0  0  0  0  0  0
    4.3943    1.9831   17.4240 H   0  0  0  0  0  0  0  0  0  0  0  0
    8.6895   -2.3529   26.5807 H   0  0  0  0  0  0  0  0  0  0  0  0
    9.9262   -4.3897   22.9916 H   0  0  0  0  0  0  0  0  0  0  0  0
    8.9224   -0.1998   25.4238 H   0  0  0  0  0  0  0  0  0  0  0  0
   10.0649   -2.2343   21.8258 H   0  0  0  0  0  0  0  0  0  0  0  0
    7.2195   -6.8130   26.3882 H   0  0  0  0  0  0  0  0  0  0  0  0
    7.8416   -8.3674   26.9733 H   0  0  0  0  0  0  0  0  0  0  0  0
    7.6429   -8.0860   25.2336 H   0  0  0  0  0  0  0  0  0  0  0  0
    9.7199    1.2416   24.6302 H   0  0  0  0  0  0  0  0  0  0  0  0
    9.7461    2.2363   23.1736 H   0  0  0  0  0  0  0  0  0  0  0  0
    7.6090   -1.2088   21.6628 H   0  0  0  0  0  0  0  0  0  0  0  0
    8.8730   -1.4654   20.4463 H   0  0  0  0  0  0  0  0  0  0  0  0
   10.0423   -7.9121   25.9063 H   0  0  0  0  0  0  0  0  0  0  0  0
    9.6252   -6.6522   27.0836 H   0  0  0  0  0  0  0  0  0  0  0  0
    8.3933   -0.7388   18.1198 H   0  0  0  0  0  0  0  0  0  0  0  0
    8.9776   -4.7057   26.5317 H   0  0  0  0  0  0  0  0  0  0  0  0
  1  3  1  0  0  0  0
  1  4  2  0  0  0  0
  2  5  1  0  0  0  0
  2  6  2  0  0  0  0
  3  7  2  0  0  0  0
  4  8  1  0  0  0  0
  5  9  2  0  0  0  0
  6 14  1  0  0  0  0
  7 15  1  0  0  0  0
  8 15  2  0  0  0  0
  9 16  1  0  0  0  0
 10 12  2  0  0  0  0
 10 17  1  0  0  0  0
 11 13  1  0  0  0  0
 11 17  2  0  0  0  0
 12 18  1  0  0  0  0
 13 18  2  0  0  0  0
 14 16  1  0  0  0  0
 14 19  2  0  0  0  0
 15 23  1  0  0  0  0
 16 26  2  0  0  0  0
 17 28  1  0  0  0  0
 18 29  1  0  0  0  0
 19 24  1  0  0  0  0
 19 27  1  0  0  0  0
 20 24  1  0  0  0  0
 20 29  1  0  0  0  0
 20 30  2  0  0  0  0
 21 25  1  0  0  0  0
 21 28  1  0  0  0  0
 21 31  2  0  0  0  0
 22 25  1  0  0  0  0
 23 29  1  0  0  0  0
 26 27  1  0  0  0  0
  1 32  1  0  0  0  0
  2 33  1  0  0  0  0
  3 34  1  0  0  0  0
  4 35  1  0  0  0  0
  5 36  1  0  0  0  0
  6 37  1  0  0  0  0
  7 38  1  0  0  0  0
  8 39  1  0  0  0  0
  9 40  1  0  0  0  0
 10 41  1  0  0  0  0
 11 42  1  0  0  0  0
 12 43  1  0  0  0  0
 13 44  1  0  0  0  0
 22 45  1  0  0  0  0
 22 46  1  0  0  0  0
 22 47  1  0  0  0  0
 23 48  1  0  0  0  0
 23 49  1  0  0  0  0
 24 50  1  0  0  0  0
 24 51  1  0  0  0  0
 25 52  1  0  0  0  0
 25 53  1  0  0  0  0
 27 54  1  0  0  0  0
 28 55  1  0  0  0  0
M  END
> <clash_score>
0.6914424322038715

> <docking_score>
-6.477656364440918

> <overlap_score>
0.9791483283042908

$$$$
BENZO_396_1
  -OEChem-08232013473D

 52 55  0     0  0  0  0  0  0999 V2000
    4.2750    1.7050   20.8490 C   0  0  0  0  0  0  0  0  0  0  0  0
    3.9160    2.0630   19.5520 C   0  0  0  0  0  0  0  0  0  0  0  0
    5.4210    0.9600   21.0930 C   0  0  0  0  0  0  0  0  0  0  0  0
    4.6890    1.6810   18.4640 C   0  0  0  0  0  0  0  0  0  0  0  0
    8.9960   -2.3380   25.5320 C   0  0  0  0  0  0  0  0  0  0  0  0
    9.6730   -3.4710   23.5300 C   0  0  0  0  0  0  0  0  0  0  0  0
    9.0720   -1.1280   24.8640 C   0  0  0  0  0  0  0  0  0  0  0  0
    9.7200   -2.2600   22.8630 C   0  0  0  0  0  0  0  0  0  0  0  0
   12.4522    2.3429   23.6478 C   0  0  0  0  0  0  0  0  0  0  0  0
   13.7826    1.9879   23.6082 C   0  0  0  0  0  0  0  0  0  0  0  0
   12.2998    0.0290   23.4904 C   0  0  0  0  0  0  0  0  0  0  0  0
    6.1790    0.5730   19.9990 C   0  0  0  0  0  0  0  0  0  0  0  0
   11.5931    1.2082   23.5797 C   0  0  0  0  0  0  0  0  0  0  0  0
    5.8300    0.9190   18.6970 C   0  0  0  0  0  0  0  0  0  0  0  0
    9.3070   -3.5340   24.8780 C   0  0  0  0  0  0  0  0  0  0  0  0
    9.3350   -1.0880   23.5010 C   0  0  0  0  0  0  0  0  0  0  0  0
    7.3170   -0.1610   19.8550 C   0  0  0  0  0  0  0  0  0  0  0  0
    9.0420    0.3700   21.5280 C   0  0  0  0  0  0  0  0  0  0  0  0
    9.5333   -6.0236   25.0414 C   0  0  0  0  0  0  0  0  0  0  0  0
   10.6330   -7.3746   26.8775 C   0  0  0  0  0  0  0  0  0  0  0  0
   10.0942    1.2904   23.6018 C   0  0  0  0  0  0  0  0  0  0  0  0
    8.1890   -0.7180   20.8700 C   0  0  0  0  0  0  0  0  0  0  0  0
    9.3522   -7.0865   26.1149 C   0  0  0  0  0  0  0  0  0  0  0  0
    6.7580    0.3810   17.8350 N   0  0  0  0  0  0  0  0  0  0  0  0
    7.6390   -0.2680   18.5410 N   0  0  0  0  0  0  0  0  0  0  0  0
    9.2546   -4.7422   25.5438 N   0  0  0  0  0  0  0  0  0  0  0  0
    9.4560    0.1560   22.8130 N   0  0  0  0  0  0  0  0  0  0  0  0
    9.2690    1.4140   20.9380 O   0  0  0  0  0  0  0  0  0  0  0  0
    9.8805   -6.3053   23.8992 O   0  0  0  0  0  0  0  0  0  0  0  0
   13.9918    0.2924   23.4892 S   0  0  0  0  0  0  0  0  0  0  0  0
    3.6562    2.0083   21.6780 H   0  0  0  0  0  0  0  0  0  0  0  0
    3.0225    2.6465   19.3867 H   0  0  0  0  0  0  0  0  0  0  0  0
    5.7084    0.6884   22.1515 H   0  0  0  0  0  0  0  0  0  0  0  0
    4.3943    1.9831   17.4240 H   0  0  0  0  0  0  0  0  0  0  0  0
    8.6895   -2.3529   26.5807 H   0  0  0  0  0  0  0  0  0  0  0  0
    9.9262   -4.3897   22.9916 H   0  0  0  0  0  0  0  0  0  0  0  0
    8.9224   -0.1998   25.4238 H   0  0  0  0  0  0  0  0  0  0  0  0
   10.0649   -2.2343   21.8258 H   0  0  0  0  0  0  0  0  0  0  0  0
   12.1156    3.3693   23.7217 H   0  0  0  0  0  0  0  0  0  0  0  0
   14.6416    2.6428   23.6427 H   0  0  0  0  0  0  0  0  0  0  0  0
   11.9074   -0.9764   23.4244 H   0  0  0  0  0  0  0  0  0  0  0  0
   11.4241   -7.7171   26.2024 H   0  0  0  0  0  0  0  0  0  0  0  0
   10.4629   -8.1531   27.6277 H   0  0  0  0  0  0  0  0  0  0  0  0
   10.9949   -6.4779   27.3911 H   0  0  0  0  0  0  0  0  0  0  0  0
    9.7199    1.2416   24.6302 H   0  0  0  0  0  0  0  0  0  0  0  0
    9.7461    2.2363   23.1736 H   0  0  0  0  0  0  0  0  0  0  0  0
    7.6090   -1.2088   21.6628 H   0  0  0  0  0  0  0  0  0  0  0  0
    8.8730   -1.4654   20.4463 H   0  0  0  0  0  0  0  0  0  0  0  0
    8.5795   -6.7462   26.8138 H   0  0  0  0  0  0  0  0  0  0  0  0
    8.9965   -8.0064   25.6368 H   0  0  0  0  0  0  0  0  0  0  0  0
    8.3933   -0.7388   18.1198 H   0  0  0  0  0  0  0  0  0  0  0  0
    8.9776   -4.7057   26.5317 H   0  0  0  0  0  0  0  0  0  0  0  0
  1  2  1  0  0  0  0
  1  3  2  0  0  0  0
  2  4  2  0  0  0  0
  3 12  1  0  0  0  0
  4 14  1  0  0  0  0
  5  7  2  0  0  0  0
  5 15  1  0  0  0  0
  6  8  1  0  0  0  0
  6 15  2  0  0  0  0
  7 16  1  0  0  0  0
  8 16  2  0  0  0  0
  9 10  2  0  0  0  0
  9 13  1  0  0  0  0
 10 30  1  0  0  0  0
 11 13  2  0  0  0  0
 11 30  1  0  0  0  0
 12 14  1  0  0  0  0
 12 17  2  0  0  0  0
 13 21  1  0  0  0  0
 14 24  2  0  0  0  0
 15 26  1  0  0  0  0
 16 27  1  0  0  0  0
 17 22  1  0  0  0  0
 17 25  1  0  0  0  0
 18 22  1  0  0  0  0
 18 27  1  0  0  0  0
 18 28  2  0  0  0  0
 19 23  1  0  0  0  0
 19 26  1  0  0  0  0
 19 29  2  0  0  0  0
 20 23  1  0  0  0  0
 21 27  1  0  0  0  0
 24 25  1  0  0  0  0
  1 31  1  0  0  0  0
  2 32  1  0  0  0  0
  3 33  1  0  0  0  0
  4 34  1  0  0  0  0
  5 35  1  0  0  0  0
  6 36  1  0  0  0  0
  7 37  1  0  0  0  0
  8 38  1  0  0  0  0
  9 39  1  0  0  0  0
 10 40  1  0  0  0  0
 11 41  1  0  0  0  0
 20 42  1  0  0  0  0
 20 43  1  0  0  0  0
 20 44  1  0  0  0  0
 21 45  1  0  0  0  0
 21 46  1  0  0  0  0
 22 47  1  0  0  0  0
 22 48  1  0  0  0  0
 23 49  1  0  0  0  0
 23 50  1  0  0  0  0
 25 51  1  0  0  0  0
 26 52  1  0  0  0  0
M  END
> <clash_score>
1.498654129822121

> <docking_score>
-6.012189865112305

> <overlap_score>
0.9714232087135315

$$$$
BENZO_401_1
  -OEChem-08232013473D

 60 64  0     0  0  0  0  0  0999 V2000
   14.2737    1.3490   23.8824 C   0  0  0  0  0  0  0  0  0  0  0  0
    4.2750    1.7050   20.8490 C   0  0  0  0  0  0  0  0  0  0  0  0
   13.5272    0.6563   24.8356 C   0  0  0  0  0  0  0  0  0  0  0  0
   13.6277    2.0286   22.8497 C   0  0  0  0  0  0  0  0  0  0  0  0
    3.9160    2.0630   19.5520 C   0  0  0  0  0  0  0  0  0  0  0  0
    5.4210    0.9600   21.0930 C   0  0  0  0  0  0  0  0  0  0  0  0
   12.1346    0.6431   24.7559 C   0  0  0  0  0  0  0  0  0  0  0  0
   12.2352    2.0153   22.7700 C   0  0  0  0  0  0  0  0  0  0  0  0
    4.6890    1.6810   18.4640 C   0  0  0  0  0  0  0  0  0  0  0  0
    8.9960   -2.3380   25.5320 C   0  0  0  0  0  0  0  0  0  0  0  0
    9.6730   -3.4710   23.5300 C   0  0  0  0  0  0  0  0  0  0  0  0
    9.0720   -1.1280   24.8640 C   0  0  0  0  0  0  0  0  0  0  0  0
    9.7200   -2.2600   22.8630 C   0  0  0  0  0  0  0  0  0  0  0  0
    6.1790    0.5730   19.9990 C   0  0  0  0  0  0  0  0  0  0  0  0
   11.4886    1.3226   23.7231 C   0  0  0  0  0  0  0  0  0  0  0  0
    5.8300    0.9190   18.6970 C   0  0  0  0  0  0  0  0  0  0  0  0
    9.3070   -3.5340   24.8780 C   0  0  0  0  0  0  0  0  0  0  0  0
    9.3350   -1.0880   23.5010 C   0  0  0  0  0  0  0  0  0  0  0  0
    7.3170   -0.1610   19.8550 C   0  0  0  0  0  0  0  0  0  0  0  0
    9.0420    0.3700   21.5280 C   0  0  0  0  0  0  0  0  0  0  0  0
    7.3635   -6.1361   27.1888 C   0  0  0  0  0  0  0  0  0  0  0  0
    8.1961   -4.9735   27.7341 C   0  0  0  0  0  0  0  0  0  0  0  0
    7.1942   -6.0394   25.6709 C   0  0  0  0  0  0  0  0  0  0  0  0
    9.5196   -4.8490   26.9797 C   0  0  0  0  0  0  0  0  0  0  0  0
    8.5442   -5.8838   24.9639 C   0  0  0  0  0  0  0  0  0  0  0  0
    9.9898    1.3085   23.6366 C   0  0  0  0  0  0  0  0  0  0  0  0
    8.1890   -0.7180   20.8700 C   0  0  0  0  0  0  0  0  0  0  0  0
    6.7580    0.3810   17.8350 N   0  0  0  0  0  0  0  0  0  0  0  0
    7.6390   -0.2680   18.5410 N   0  0  0  0  0  0  0  0  0  0  0  0
    9.2562   -4.7384   25.5422 N   0  0  0  0  0  0  0  0  0  0  0  0
    9.4560    0.1560   22.8130 N   0  0  0  0  0  0  0  0  0  0  0  0
    9.2690    1.4140   20.9380 O   0  0  0  0  0  0  0  0  0  0  0  0
   15.3579    1.3604   23.9454 H   0  0  0  0  0  0  0  0  0  0  0  0
    3.6562    2.0083   21.6780 H   0  0  0  0  0  0  0  0  0  0  0  0
   14.0299    0.1281   25.6404 H   0  0  0  0  0  0  0  0  0  0  0  0
   14.2085    2.5689   22.1081 H   0  0  0  0  0  0  0  0  0  0  0  0
    3.0225    2.6465   19.3867 H   0  0  0  0  0  0  0  0  0  0  0  0
    5.7084    0.6884   22.1515 H   0  0  0  0  0  0  0  0  0  0  0  0
   11.5611    0.1005   25.5028 H   0  0  0  0  0  0  0  0  0  0  0  0
   11.7404    2.5475   21.9618 H   0  0  0  0  0  0  0  0  0  0  0  0
    4.3943    1.9831   17.4240 H   0  0  0  0  0  0  0  0  0  0  0  0
    8.6905   -2.3533   26.5810 H   0  0  0  0  0  0  0  0  0  0  0  0
    9.9266   -4.3896   22.9917 H   0  0  0  0  0  0  0  0  0  0  0  0
    8.9233   -0.1992   25.4231 H   0  0  0  0  0  0  0  0  0  0  0  0
   10.0650   -2.2330   21.8256 H   0  0  0  0  0  0  0  0  0  0  0  0
    7.8482   -7.0901   27.4469 H   0  0  0  0  0  0  0  0  0  0  0  0
    6.3760   -6.1438   27.6724 H   0  0  0  0  0  0  0  0  0  0  0  0
    7.6307   -4.0424   27.6403 H   0  0  0  0  0  0  0  0  0  0  0  0
    8.3915   -5.1310   28.7968 H   0  0  0  0  0  0  0  0  0  0  0  0
    6.6888   -6.9376   25.3010 H   0  0  0  0  0  0  0  0  0  0  0  0
    6.5515   -5.1859   25.4257 H   0  0  0  0  0  0  0  0  0  0  0  0
   10.0492   -3.9640   27.3414 H   0  0  0  0  0  0  0  0  0  0  0  0
   10.1431   -5.7254   27.1778 H   0  0  0  0  0  0  0  0  0  0  0  0
    9.1338   -6.7931   25.0868 H   0  0  0  0  0  0  0  0  0  0  0  0
    8.3656   -5.7264   23.8998 H   0  0  0  0  0  0  0  0  0  0  0  0
    9.5459    1.2490   24.6363 H   0  0  0  0  0  0  0  0  0  0  0  0
    9.6146    2.2245   23.1682 H   0  0  0  0  0  0  0  0  0  0  0  0
    7.5972   -1.2056   21.6500 H   0  0  0  0  0  0  0  0  0  0  0  0
    8.8612   -1.4622   20.4334 H   0  0  0  0  0  0  0  0  0  0  0  0
    8.3933   -0.7388   18.1198 H   0  0  0  0  0  0  0  0  0  0  0  0
  1  3  1  0  0  0  0
  1  4  2  0  0  0  0
  2  5  1  0  0  0  0
  2  6  2  0  0  0  0
  3  7  2  0  0  0  0
  4  8  1  0  0  0  0
  5  9  2  0  0  0  0
  6 14  1  0  0  0  0
  7 15  1  0  0  0  0
  8 15  2  0  0  0  0
  9 16  1  0  0  0  0
 10 12  2  0  0  0  0
 10 17  1  0  0  0  0
 11 13  1  0  0  0  0
 11 17  2  0  0  0  0
 12 18  1  0  0  0  0
 13 18  2  0  0  0  0
 14 16  1  0  0  0  0
 14 19  2  0  0  0  0
 15 26  1  0  0  0  0
 16 28  2  0  0  0  0
 17 30  1  0  0  0  0
 18 31  1  0  0  0  0
 19 27  1  0  0  0  0
 19 29  1  0  0  0  0
 20 27  1  0  0  0  0
 20 31  1  0  0  0  0
 20 32  2  0  0  0  0
 21 22  1  0  0  0  0
 21 23  1  0  0  0  0
 22 24  1  0  0  0  0
 23 25  1  0  0  0  0
 24 30  1  0  0  0  0
 25 30  1  0  0  0  0
 26 31  1  0  0  0  0
 28 29  1  0  0  0  0
  1 33  1  0  0  0  0
  2 34  1  0  0  0  0
  3 35  1  0  0  0  0
  4 36  1  0  0  0  0
  5 37  1  0  0  0  0
  6 38  1  0  0  0  0
  7 39  1  0  0  0  0
  8 40  1  0  0  0  0
  9 41  1  0  0  0  0
 10 42  1  0  0  0  0
 11 43  1  0  0  0  0
 12 44  1  0  0  0  0
 13 45  1  0  0  0  0
 21 46  1  0  0  0  0
 21 47  1  0  0  0  0
 22 48  1  0  0  0  0
 22 49  1  0  0  0  0
 23 50  1  0  0  0  0
 23 51  1  0  0  0  0
 24 52  1  0  0  0  0
 24 53  1  0  0  0  0
 25 54  1  0  0  0  0
 25 55  1  0  0  0  0
 26 56  1  0  0  0  0
 26 57  1  0  0  0  0
 27 58  1  0  0  0  0
 27 59  1  0  0  0  0
 29 60  1  0  0  0  0
M  END
> <clash_score>
0

> <docking_score>
-8.837240219116211

> <overlap_score>
0.9931350946426392

$$$$
BENZO_399_1
  -OEChem-08232013473D

 55 58  0     0  0  0  0  0  0999 V2000
    4.2750    1.7050   20.8490 C   0  0  0  0  0  0  0  0  0  0  0  0
    3.9160    2.0630   19.5520 C   0  0  0  0  0  0  0  0  0  0  0  0
    5.4210    0.9600   21.0930 C   0  0  0  0  0  0  0  0  0  0  0  0
    4.6890    1.6810   18.4640 C   0  0  0  0  0  0  0  0  0  0  0  0
    8.9960   -2.3380   25.5320 C   0  0  0  0  0  0  0  0  0  0  0  0
    9.6730   -3.4710   23.5300 C   0  0  0  0  0  0  0  0  0  0  0  0
    9.0720   -1.1280   24.8640 C   0  0  0  0  0  0  0  0  0  0  0  0
    9.7200   -2.2600   22.8630 C   0  0  0  0  0  0  0  0  0  0  0  0
   12.4906    1.9975   22.8359 C   0  0  0  0  0  0  0  0  0  0  0  0
   12.3970    0.3459   24.2844 C   0  0  0  0  0  0  0  0  0  0  0  0
    6.1790    0.5730   19.9990 C   0  0  0  0  0  0  0  0  0  0  0  0
   11.5931    1.2082   23.5797 C   0  0  0  0  0  0  0  0  0  0  0  0
    5.8300    0.9190   18.6970 C   0  0  0  0  0  0  0  0  0  0  0  0
    9.3070   -3.5340   24.8780 C   0  0  0  0  0  0  0  0  0  0  0  0
    9.3350   -1.0880   23.5010 C   0  0  0  0  0  0  0  0  0  0  0  0
    7.3170   -0.1610   19.8550 C   0  0  0  0  0  0  0  0  0  0  0  0
    9.0420    0.3700   21.5280 C   0  0  0  0  0  0  0  0  0  0  0  0
    9.5333   -6.0236   25.0414 C   0  0  0  0  0  0  0  0  0  0  0  0
   10.6330   -7.3746   26.8775 C   0  0  0  0  0  0  0  0  0  0  0  0
   14.8781    0.0216   24.4183 C   0  0  0  0  0  0  0  0  0  0  0  0
   10.0942    1.2904   23.6018 C   0  0  0  0  0  0  0  0  0  0  0  0
    8.1890   -0.7180   20.8700 C   0  0  0  0  0  0  0  0  0  0  0  0
    9.3522   -7.0865   26.1149 C   0  0  0  0  0  0  0  0  0  0  0  0
   13.7670    1.6661   23.0484 N   0  0  0  0  0  0  0  0  0  0  0  0
    6.7580    0.3810   17.8350 N   0  0  0  0  0  0  0  0  0  0  0  0
    7.6390   -0.2680   18.5410 N   0  0  0  0  0  0  0  0  0  0  0  0
   13.6773    0.6591   23.9338 N   0  0  0  0  0  0  0  0  0  0  0  0
    9.2546   -4.7422   25.5438 N   0  0  0  0  0  0  0  0  0  0  0  0
    9.4560    0.1560   22.8130 N   0  0  0  0  0  0  0  0  0  0  0  0
    9.2690    1.4140   20.9380 O   0  0  0  0  0  0  0  0  0  0  0  0
    9.8805   -6.3053   23.8992 O   0  0  0  0  0  0  0  0  0  0  0  0
    3.6562    2.0083   21.6780 H   0  0  0  0  0  0  0  0  0  0  0  0
    3.0225    2.6465   19.3867 H   0  0  0  0  0  0  0  0  0  0  0  0
    5.7084    0.6884   22.1515 H   0  0  0  0  0  0  0  0  0  0  0  0
    4.3943    1.9831   17.4240 H   0  0  0  0  0  0  0  0  0  0  0  0
    8.6895   -2.3529   26.5807 H   0  0  0  0  0  0  0  0  0  0  0  0
    9.9262   -4.3897   22.9916 H   0  0  0  0  0  0  0  0  0  0  0  0
    8.9224   -0.1998   25.4238 H   0  0  0  0  0  0  0  0  0  0  0  0
   10.0649   -2.2343   21.8258 H   0  0  0  0  0  0  0  0  0  0  0  0
   12.2703    2.8015   22.1479 H   0  0  0  0  0  0  0  0  0  0  0  0
   12.1727   -0.4435   24.9890 H   0  0  0  0  0  0  0  0  0  0  0  0
   11.4241   -7.7171   26.2024 H   0  0  0  0  0  0  0  0  0  0  0  0
   10.4629   -8.1531   27.6277 H   0  0  0  0  0  0  0  0  0  0  0  0
   10.9949   -6.4779   27.3911 H   0  0  0  0  0  0  0  0  0  0  0  0
   15.1116   -0.8107   23.7491 H   0  0  0  0  0  0  0  0  0  0  0  0
   15.6969    0.7464   24.4271 H   0  0  0  0  0  0  0  0  0  0  0  0
   14.7094   -0.3405   25.4363 H   0  0  0  0  0  0  0  0  0  0  0  0
    9.7199    1.2416   24.6302 H   0  0  0  0  0  0  0  0  0  0  0  0
    9.7461    2.2363   23.1736 H   0  0  0  0  0  0  0  0  0  0  0  0
    7.6090   -1.2088   21.6628 H   0  0  0  0  0  0  0  0  0  0  0  0
    8.8730   -1.4654   20.4463 H   0  0  0  0  0  0  0  0  0  0  0  0
    8.5795   -6.7462   26.8138 H   0  0  0  0  0  0  0  0  0  0  0  0
    8.9965   -8.0064   25.6368 H   0  0  0  0  0  0  0  0  0  0  0  0
    8.3933   -0.7388   18.1198 H   0  0  0  0  0  0  0  0  0  0  0  0
    8.9776   -4.7057   26.5317 H   0  0  0  0  0  0  0  0  0  0  0  0
  1  2  1  0  0  0  0
  1  3  2  0  0  0  0
  2  4  2  0  0  0  0
  3 11  1  0  0  0  0
  4 13  1  0  0  0  0
  5  7  2  0  0  0  0
  5 14  1  0  0  0  0
  6  8  1  0  0  0  0
  6 14  2  0  0  0  0
  7 15  1  0  0  0  0
  8 15  2  0  0  0  0
  9 12  1  0  0  0  0
  9 24  2  0  0  0  0
 10 12  2  0  0  0  0
 10 27  1  0  0  0  0
 11 13  1  0  0  0  0
 11 16  2  0  0  0  0
 12 21  1  0  0  0  0
 13 25  2  0  0  0  0
 14 28  1  0  0  0  0
 15 29  1  0  0  0  0
 16 22  1  0  0  0  0
 16 26  1  0  0  0  0
 17 22  1  0  0  0  0
 17 29  1  0  0  0  0
 17 30  2  0  0  0  0
 18 23  1  0  0  0  0
 18 28  1  0  0  0  0
 18 31  2  0  0  0  0
 19 23  1  0  0  0  0
 20 27  1  0  0  0  0
 21 29  1  0  0  0  0
 24 27  1  0  0  0  0
 25 26  1  0  0  0  0
  1 32  1  0  0  0  0
  2 33  1  0  0  0  0
  3 34  1  0  0  0  0
  4 35  1  0  0  0  0
  5 36  1  0  0  0  0
  6 37  1  0  0  0  0
  7 38  1  0  0  0  0
  8 39  1  0  0  0  0
  9 40  1  0  0  0  0
 10 41  1  0  0  0  0
 19 42  1  0  0  0  0
 19 43  1  0  0  0  0
 19 44  1  0  0  0  0
 20 45  1  0  0  0  0
 20 46  1  0  0  0  0
 20 47  1  0  0  0  0
 21 48  1  0  0  0  0
 21 49  1  0  0  0  0
 22 50  1  0  0  0  0
 22 51  1  0  0  0  0
 23 52  1  0  0  0  0
 23 53  1  0  0  0  0
 26 54  1  0  0  0  0
 28 55  1  0  0  0  0
M  END
> <clash_score>
1.498654129822121

> <docking_score>
-6.230395317077637

> <overlap_score>
0.9815208911895752

$$$$
BENZO_398_1
  -OEChem-08232013473D

 55 58  0     0  0  0  0  0  0999 V2000
    4.2750    1.7050   20.8490 C   0  0  0  0  0  0  0  0  0  0  0  0
    3.9160    2.0630   19.5520 C   0  0  0  0  0  0  0  0  0  0  0  0
   13.7196    2.0044   22.7545 C   0  0  0  0  0  0  0  0  0  0  0  0
    5.4210    0.9600   21.0930 C   0  0  0  0  0  0  0  0  0  0  0  0
   12.3269    2.0795   22.7747 C   0  0  0  0  0  0  0  0  0  0  0  0
    4.6890    1.6810   18.4640 C   0  0  0  0  0  0  0  0  0  0  0  0
    8.9960   -2.3380   25.5320 C   0  0  0  0  0  0  0  0  0  0  0  0
    9.6730   -3.4710   23.5300 C   0  0  0  0  0  0  0  0  0  0  0  0
    9.0720   -1.1280   24.8640 C   0  0  0  0  0  0  0  0  0  0  0  0
    9.7200   -2.2600   22.8630 C   0  0  0  0  0  0  0  0  0  0  0  0
   14.3785    1.0580   23.5393 C   0  0  0  0  0  0  0  0  0  0  0  0
   12.2520    0.2618   24.3645 C   0  0  0  0  0  0  0  0  0  0  0  0
    6.1790    0.5730   19.9990 C   0  0  0  0  0  0  0  0  0  0  0  0
   11.5931    1.2082   23.5797 C   0  0  0  0  0  0  0  0  0  0  0  0
    5.8300    0.9190   18.6970 C   0  0  0  0  0  0  0  0  0  0  0  0
    9.3070   -3.5340   24.8780 C   0  0  0  0  0  0  0  0  0  0  0  0
    9.3350   -1.0880   23.5010 C   0  0  0  0  0  0  0  0  0  0  0  0
   13.6447    0.1868   24.3443 C   0  0  0  0  0  0  0  0  0  0  0  0
    7.3170   -0.1610   19.8550 C   0  0  0  0  0  0  0  0  0  0  0  0
    9.0420    0.3700   21.5280 C   0  0  0  0  0  0  0  0  0  0  0  0
    9.5333   -6.0236   25.0414 C   0  0  0  0  0  0  0  0  0  0  0  0
   10.6330   -7.3746   26.8775 C   0  0  0  0  0  0  0  0  0  0  0  0
   10.0942    1.2904   23.6018 C   0  0  0  0  0  0  0  0  0  0  0  0
    8.1890   -0.7180   20.8700 C   0  0  0  0  0  0  0  0  0  0  0  0
    9.3522   -7.0865   26.1149 C   0  0  0  0  0  0  0  0  0  0  0  0
    6.7580    0.3810   17.8350 N   0  0  0  0  0  0  0  0  0  0  0  0
    7.6390   -0.2680   18.5410 N   0  0  0  0  0  0  0  0  0  0  0  0
    9.2546   -4.7422   25.5438 N   0  0  0  0  0  0  0  0  0  0  0  0
    9.4560    0.1560   22.8130 N   0  0  0  0  0  0  0  0  0  0  0  0
    9.2690    1.4140   20.9380 O   0  0  0  0  0  0  0  0  0  0  0  0
    9.8805   -6.3053   23.8992 O   0  0  0  0  0  0  0  0  0  0  0  0
   14.4582   -0.9799   25.3133 Cl  0  0  0  0  0  0  0  0  0  0  0  0
    3.6562    2.0083   21.6780 H   0  0  0  0  0  0  0  0  0  0  0  0
    3.0225    2.6465   19.3867 H   0  0  0  0  0  0  0  0  0  0  0  0
   14.2907    2.6832   22.1276 H   0  0  0  0  0  0  0  0  0  0  0  0
    5.7084    0.6884   22.1515 H   0  0  0  0  0  0  0  0  0  0  0  0
   11.8219    2.8201   22.1600 H   0  0  0  0  0  0  0  0  0  0  0  0
    4.3943    1.9831   17.4240 H   0  0  0  0  0  0  0  0  0  0  0  0
    8.6895   -2.3529   26.5807 H   0  0  0  0  0  0  0  0  0  0  0  0
    9.9262   -4.3897   22.9916 H   0  0  0  0  0  0  0  0  0  0  0  0
    8.9224   -0.1998   25.4238 H   0  0  0  0  0  0  0  0  0  0  0  0
   10.0649   -2.2343   21.8258 H   0  0  0  0  0  0  0  0  0  0  0  0
   15.4644    1.0112   23.5138 H   0  0  0  0  0  0  0  0  0  0  0  0
   11.6753   -0.4156   24.9901 H   0  0  0  0  0  0  0  0  0  0  0  0
   11.4241   -7.7171   26.2024 H   0  0  0  0  0  0  0  0  0  0  0  0
   10.4629   -8.1531   27.6277 H   0  0  0  0  0  0  0  0  0  0  0  0
   10.9949   -6.4779   27.3911 H   0  0  0  0  0  0  0  0  0  0  0  0
    9.7199    1.2416   24.6302 H   0  0  0  0  0  0  0  0  0  0  0  0
    9.7461    2.2363   23.1736 H   0  0  0  0  0  0  0  0  0  0  0  0
    7.6090   -1.2088   21.6628 H   0  0  0  0  0  0  0  0  0  0  0  0
    8.8730   -1.4654   20.4463 H   0  0  0  0  0  0  0  0  0  0  0  0
    8.5795   -6.7462   26.8138 H   0  0  0  0  0  0  0  0  0  0  0  0
    8.9965   -8.0064   25.6368 H   0  0  0  0  0  0  0  0  0  0  0  0
    8.3933   -0.7388   18.1198 H   0  0  0  0  0  0  0  0  0  0  0  0
    8.9776   -4.7057   26.5317 H   0  0  0  0  0  0  0  0  0  0  0  0
  1  2  1  0  0  0  0
  1  4  2  0  0  0  0
  2  6  2  0  0  0  0
  3  5  2  0  0  0  0
  3 11  1  0  0  0  0
  4 13  1  0  0  0  0
  5 14  1  0  0  0  0
  6 15  1  0  0  0  0
  7  9  2  0  0  0  0
  7 16  1  0  0  0  0
  8 10  1  0  0  0  0
  8 16  2  0  0  0  0
  9 17  1  0  0  0  0
 10 17  2  0  0  0  0
 11 18  2  0  0  0  0
 12 14  2  0  0  0  0
 12 18  1  0  0  0  0
 13 15  1  0  0  0  0
 13 19  2  0  0  0  0
 14 23  1  0  0  0  0
 15 26  2  0  0  0  0
 16 28  1  0  0  0  0
 17 29  1  0  0  0  0
 18 32  1  0  0  0  0
 19 24  1  0  0  0  0
 19 27  1  0  0  0  0
 20 24  1  0  0  0  0
 20 29  1  0  0  0  0
 20 30  2  0  0  0  0
 21 25  1  0  0  0  0
 21 28  1  0  0  0  0
 21 31  2  0  0  0  0
 22 25  1  0  0  0  0
 23 29  1  0  0  0  0
 26 27  1  0  0  0  0
  1 33  1  0  0  0  0
  2 34  1  0  0  0  0
  3 35  1  0  0  0  0
  4 36  1  0  0  0  0
  5 37  1  0  0  0  0
  6 38  1  0  0  0  0
  7 39  1  0  0  0  0
  8 40  1  0  0  0  0
  9 41  1  0  0  0  0
 10 42  1  0  0  0  0
 11 43  1  0  0  0  0
 12 44  1  0  0  0  0
 22 45  1  0  0  0  0
 22 46  1  0  0  0  0
 22 47  1  0  0  0  0
 23 48  1  0  0  0  0
 23 49  1  0  0  0  0
 24 50  1  0  0  0  0
 24 51  1  0  0  0  0
 25 52  1  0  0  0  0
 25 53  1  0  0  0  0
 27 54  1  0  0  0  0
 28 55  1  0  0  0  0
M  END
> <clash_score>
2.238061175128792

> <docking_score>
-5.5498857498168945

> <overlap_score>
0.9844658374786377

$$$$
BENZO_400_1
  -OEChem-08232013473D

 57 61  0     0  0  0  0  0  0999 V2000
    4.2750    1.7050   20.8490 C   0  0  0  0  0  0  0  0  0  0  0  0
    3.9160    2.0630   19.5520 C   0  0  0  0  0  0  0  0  0  0  0  0
    5.4210    0.9600   21.0930 C   0  0  0  0  0  0  0  0  0  0  0  0
    4.6890    1.6810   18.4640 C   0  0  0  0  0  0  0  0  0  0  0  0
    8.9960   -2.3380   25.5320 C   0  0  0  0  0  0  0  0  0  0  0  0
    9.6730   -3.4710   23.5300 C   0  0  0  0  0  0  0  0  0  0  0  0
    9.0720   -1.1280   24.8640 C   0  0  0  0  0  0  0  0  0  0  0  0
    9.7200   -2.2600   22.8630 C   0  0  0  0  0  0  0  0  0  0  0  0
   12.3492    1.3945   22.5898 C   0  0  0  0  0  0  0  0  0  0  0  0
   13.6791    1.3910   22.9490 C   0  0  0  0  0  0  0  0  0  0  0  0
   12.1936    1.2666   24.9054 C   0  0  0  0  0  0  0  0  0  0  0  0
    6.1790    0.5730   19.9990 C   0  0  0  0  0  0  0  0  0  0  0  0
   11.4886    1.3226   23.7231 C   0  0  0  0  0  0  0  0  0  0  0  0
    5.8300    0.9190   18.6970 C   0  0  0  0  0  0  0  0  0  0  0  0
    9.3070   -3.5340   24.8780 C   0  0  0  0  0  0  0  0  0  0  0  0
    9.3350   -1.0880   23.5010 C   0  0  0  0  0  0  0  0  0  0  0  0
    7.3170   -0.1610   19.8550 C   0  0  0  0  0  0  0  0  0  0  0  0
    9.0420    0.3700   21.5280 C   0  0  0  0  0  0  0  0  0  0  0  0
    7.2235   -6.6199   26.3009 C   0  0  0  0  0  0  0  0  0  0  0  0
    7.4293   -5.3101   27.0652 C   0  0  0  0  0  0  0  0  0  0  0  0
    7.7217   -6.5099   24.8580 C   0  0  0  0  0  0  0  0  0  0  0  0
    8.8782   -4.8357   26.9548 C   0  0  0  0  0  0  0  0  0  0  0  0
    9.1652   -6.0007   24.7995 C   0  0  0  0  0  0  0  0  0  0  0  0
    9.9898    1.3085   23.6366 C   0  0  0  0  0  0  0  0  0  0  0  0
    8.1890   -0.7180   20.8700 C   0  0  0  0  0  0  0  0  0  0  0  0
    6.7580    0.3810   17.8350 N   0  0  0  0  0  0  0  0  0  0  0  0
    7.6390   -0.2680   18.5410 N   0  0  0  0  0  0  0  0  0  0  0  0
    9.2562   -4.7384   25.5422 N   0  0  0  0  0  0  0  0  0  0  0  0
    9.4560    0.1560   22.8130 N   0  0  0  0  0  0  0  0  0  0  0  0
    9.2690    1.4140   20.9380 O   0  0  0  0  0  0  0  0  0  0  0  0
   13.8860    1.3012   24.6465 S   0  0  0  0  0  0  0  0  0  0  0  0
    3.6562    2.0083   21.6780 H   0  0  0  0  0  0  0  0  0  0  0  0
    3.0225    2.6465   19.3867 H   0  0  0  0  0  0  0  0  0  0  0  0
    5.7084    0.6884   22.1515 H   0  0  0  0  0  0  0  0  0  0  0  0
    4.3943    1.9831   17.4240 H   0  0  0  0  0  0  0  0  0  0  0  0
    8.6905   -2.3533   26.5810 H   0  0  0  0  0  0  0  0  0  0  0  0
    9.9266   -4.3896   22.9917 H   0  0  0  0  0  0  0  0  0  0  0  0
    8.9233   -0.1992   25.4231 H   0  0  0  0  0  0  0  0  0  0  0  0
   10.0650   -2.2330   21.8256 H   0  0  0  0  0  0  0  0  0  0  0  0
   12.0141    1.4459   21.5616 H   0  0  0  0  0  0  0  0  0  0  0  0
   14.5391    1.4362   22.2958 H   0  0  0  0  0  0  0  0  0  0  0  0
   11.7999    1.2059   25.9105 H   0  0  0  0  0  0  0  0  0  0  0  0
    7.7559   -7.4347   26.8149 H   0  0  0  0  0  0  0  0  0  0  0  0
    6.1572   -6.8883   26.3055 H   0  0  0  0  0  0  0  0  0  0  0  0
    6.7602   -4.5435   26.6651 H   0  0  0  0  0  0  0  0  0  0  0  0
    7.1684   -5.4551   28.1155 H   0  0  0  0  0  0  0  0  0  0  0  0
    7.6595   -7.4899   24.3736 H   0  0  0  0  0  0  0  0  0  0  0  0
    7.0706   -5.8317   24.2943 H   0  0  0  0  0  0  0  0  0  0  0  0
    8.9681   -3.8621   27.4435 H   0  0  0  0  0  0  0  0  0  0  0  0
    9.5387   -5.5390   27.4697 H   0  0  0  0  0  0  0  0  0  0  0  0
    9.8374   -6.7413   25.2344 H   0  0  0  0  0  0  0  0  0  0  0  0
    9.4414   -5.8515   23.7552 H   0  0  0  0  0  0  0  0  0  0  0  0
    9.5459    1.2490   24.6363 H   0  0  0  0  0  0  0  0  0  0  0  0
    9.6146    2.2245   23.1682 H   0  0  0  0  0  0  0  0  0  0  0  0
    7.5972   -1.2056   21.6500 H   0  0  0  0  0  0  0  0  0  0  0  0
    8.8612   -1.4622   20.4334 H   0  0  0  0  0  0  0  0  0  0  0  0
    8.3933   -0.7388   18.1198 H   0  0  0  0  0  0  0  0  0  0  0  0
  1  2  1  0  0  0  0
  1  3  2  0  0  0  0
  2  4  2  0  0  0  0
  3 12  1  0  0  0  0
  4 14  1  0  0  0  0
  5  7  2  0  0  0  0
  5 15  1  0  0  0  0
  6  8  1  0  0  0  0
  6 15  2  0  0  0  0
  7 16  1  0  0  0  0
  8 16  2  0  0  0  0
  9 10  2  0  0  0  0
  9 13  1  0  0  0  0
 10 31  1  0  0  0  0
 11 13  2  0  0  0  0
 11 31  1  0  0  0  0
 12 14  1  0  0  0  0
 12 17  2  0  0  0  0
 13 24  1  0  0  0  0
 14 26  2  0  0  0  0
 15 28  1  0  0  0  0
 16 29  1  0  0  0  0
 17 25  1  0  0  0  0
 17 27  1  0  0  0  0
 18 25  1  0  0  0  0
 18 29  1  0  0  0  0
 18 30  2  0  0  0  0
 19 20  1  0  0  0  0
 19 21  1  0  0  0  0
 20 22  1  0  0  0  0
 21 23  1  0  0  0  0
 22 28  1  0  0  0  0
 23 28  1  0  0  0  0
 24 29  1  0  0  0  0
 26 27  1  0  0  0  0
  1 32  1  0  0  0  0
  2 33  1  0  0  0  0
  3 34  1  0  0  0  0
  4 35  1  0  0  0  0
  5 36  1  0  0  0  0
  6 37  1  0  0  0  0
  7 38  1  0  0  0  0
  8 39  1  0  0  0  0
  9 40  1  0  0  0  0
 10 41  1  0  0  0  0
 11 42  1  0  0  0  0
 19 43  1  0  0  0  0
 19 44  1  0  0  0  0
 20 45  1  0  0  0  0
 20 46  1  0  0  0  0
 21 47  1  0  0  0  0
 21 48  1  0  0  0  0
 22 49  1  0  0  0  0
 22 50  1  0  0  0  0
 23 51  1  0  0  0  0
 23 52  1  0  0  0  0
 24 53  1  0  0  0  0
 24 54  1  0  0  0  0
 25 55  1  0  0  0  0
 25 56  1  0  0  0  0
 27 57  1  0  0  0  0
M  END
> <clash_score>
0

> <docking_score>
-8.755264282226562

> <overlap_score>
0.97699373960495

$$$$
BENZO_405_1
  -OEChem-08232013473D

 48 51  0     0  0  0  0  0  0999 V2000
   14.3783    1.0541   23.5390 C   0  0  0  0  0  0  0  0  0  0  0  0
    4.2750    1.7050   20.8490 C   0  0  0  0  0  0  0  0  0  0  0  0
   13.7499    2.2953   23.6403 C   0  0  0  0  0  0  0  0  0  0  0  0
   13.6141   -0.1100   23.4580 C   0  0  0  0  0  0  0  0  0  0  0  0
    3.9160    2.0630   19.5520 C   0  0  0  0  0  0  0  0  0  0  0  0
    5.4210    0.9600   21.0930 C   0  0  0  0  0  0  0  0  0  0  0  0
   12.3573    2.3723   23.6607 C   0  0  0  0  0  0  0  0  0  0  0  0
   12.2216   -0.0329   23.4784 C   0  0  0  0  0  0  0  0  0  0  0  0
    8.9960   -2.3380   25.5320 C   0  0  0  0  0  0  0  0  0  0  0  0
    9.6730   -3.4710   23.5300 C   0  0  0  0  0  0  0  0  0  0  0  0
    4.6890    1.6810   18.4640 C   0  0  0  0  0  0  0  0  0  0  0  0
    9.0720   -1.1280   24.8640 C   0  0  0  0  0  0  0  0  0  0  0  0
    9.7200   -2.2600   22.8630 C   0  0  0  0  0  0  0  0  0  0  0  0
    6.1790    0.5730   19.9990 C   0  0  0  0  0  0  0  0  0  0  0  0
    9.3070   -3.5340   24.8780 C   0  0  0  0  0  0  0  0  0  0  0  0
   11.5931    1.2082   23.5797 C   0  0  0  0  0  0  0  0  0  0  0  0
    5.8300    0.9190   18.6970 C   0  0  0  0  0  0  0  0  0  0  0  0
    9.3350   -1.0880   23.5010 C   0  0  0  0  0  0  0  0  0  0  0  0
    7.3170   -0.1610   19.8550 C   0  0  0  0  0  0  0  0  0  0  0  0
    9.0420    0.3700   21.5280 C   0  0  0  0  0  0  0  0  0  0  0  0
    9.2505   -4.8264   25.5904 C   0  0  0  0  0  0  0  0  0  0  0  0
   10.0942    1.2904   23.6018 C   0  0  0  0  0  0  0  0  0  0  0  0
    8.1890   -0.7180   20.8700 C   0  0  0  0  0  0  0  0  0  0  0  0
    6.7580    0.3810   17.8350 N   0  0  0  0  0  0  0  0  0  0  0  0
    7.6390   -0.2680   18.5410 N   0  0  0  0  0  0  0  0  0  0  0  0
    9.4560    0.1560   22.8130 N   0  0  0  0  0  0  0  0  0  0  0  0
    9.2690    1.4140   20.9380 O   0  0  0  0  0  0  0  0  0  0  0  0
   15.4627    0.9944   23.5218 H   0  0  0  0  0  0  0  0  0  0  0  0
    3.6562    2.0083   21.6780 H   0  0  0  0  0  0  0  0  0  0  0  0
   14.3448    3.2019   23.7023 H   0  0  0  0  0  0  0  0  0  0  0  0
   14.1031   -1.0764   23.3780 H   0  0  0  0  0  0  0  0  0  0  0  0
    3.0225    2.6465   19.3867 H   0  0  0  0  0  0  0  0  0  0  0  0
    5.7084    0.6884   22.1515 H   0  0  0  0  0  0  0  0  0  0  0  0
   11.8763    3.3437   23.7400 H   0  0  0  0  0  0  0  0  0  0  0  0
   11.6343   -0.9452   23.4149 H   0  0  0  0  0  0  0  0  0  0  0  0
    8.6919   -2.3557   26.5813 H   0  0  0  0  0  0  0  0  0  0  0  0
    9.9267   -4.3907   22.9939 H   0  0  0  0  0  0  0  0  0  0  0  0
    4.3943    1.9831   17.4240 H   0  0  0  0  0  0  0  0  0  0  0  0
    8.9217   -0.1995   25.4231 H   0  0  0  0  0  0  0  0  0  0  0  0
   10.0653   -2.2339   21.8256 H   0  0  0  0  0  0  0  0  0  0  0  0
    8.2503   -5.2678   25.5020 H   0  0  0  0  0  0  0  0  0  0  0  0
    9.9817   -5.5374   25.1845 H   0  0  0  0  0  0  0  0  0  0  0  0
    9.4841   -4.7043   26.6562 H   0  0  0  0  0  0  0  0  0  0  0  0
    9.7199    1.2416   24.6302 H   0  0  0  0  0  0  0  0  0  0  0  0
    9.7461    2.2363   23.1736 H   0  0  0  0  0  0  0  0  0  0  0  0
    7.6090   -1.2088   21.6628 H   0  0  0  0  0  0  0  0  0  0  0  0
    8.8730   -1.4654   20.4463 H   0  0  0  0  0  0  0  0  0  0  0  0
    8.3933   -0.7388   18.1198 H   0  0  0  0  0  0  0  0  0  0  0  0
  1  3  1  0  0  0  0
  1  4  2  0  0  0  0
  2  5  1  0  0  0  0
  2  6  2  0  0  0  0
  3  7  2  0  0  0  0
  4  8  1  0  0  0  0
  5 11  2  0  0  0  0
  6 14  1  0  0  0  0
  7 16  1  0  0  0  0
  8 16  2  0  0  0  0
  9 12  2  0  0  0  0
  9 15  1  0  0  0  0
 10 13  1  0  0  0  0
 10 15  2  0  0  0  0
 11 17  1  0  0  0  0
 12 18  1  0  0  0  0
 13 18  2  0  0  0  0
 14 17  1  0  0  0  0
 14 19  2  0  0  0  0
 15 21  1  0  0  0  0
 16 22  1  0  0  0  0
 17 24  2  0  0  0  0
 18 26  1  0  0  0  0
 19 23  1  0  0  0  0
 19 25  1  0  0  0  0
 20 23  1  0  0  0  0
 20 26  1  0  0  0  0
 20 27  2  0  0  0  0
 22 26  1  0  0  0  0
 24 25  1  0  0  0  0
  1 28  1  0  0  0  0
  2 29  1  0  0  0  0
  3 30  1  0  0  0  0
  4 31  1  0  0  0  0
  5 32  1  0  0  0  0
  6 33  1  0  0  0  0
  7 34  1  0  0  0  0
  8 35  1  0  0  0  0
  9 36  1  0  0  0  0
 10 37  1  0  0  0  0
 11 38  1  0  0  0  0
 12 39  1  0  0  0  0
 13 40  1  0  0  0  0
 21 41  1  0  0  0  0
 21 42  1  0  0  0  0
 21 43  1  0  0  0  0
 22 44  1  0  0  0  0
 22 45  1  0  0  0  0
 23 46  1  0  0  0  0
 23 47  1  0  0  0  0
 25 48  1  0  0  0  0
M  END
> <clash_score>
0

> <docking_score>
-7.775557041168213

> <overlap_score>
0.942147970199585

$$$$
BENZO_404_1
  -OEChem-08232013473D

 45 48  0     0  0  0  0  0  0999 V2000
    4.2750    1.7050   20.8490 C   0  0  0  0  0  0  0  0  0  0  0  0
    3.9160    2.0630   19.5520 C   0  0  0  0  0  0  0  0  0  0  0  0
    5.4210    0.9600   21.0930 C   0  0  0  0  0  0  0  0  0  0  0  0
    8.9960   -2.3380   25.5320 C   0  0  0  0  0  0  0  0  0  0  0  0
    9.6730   -3.4710   23.5300 C   0  0  0  0  0  0  0  0  0  0  0  0
    4.6890    1.6810   18.4640 C   0  0  0  0  0  0  0  0  0  0  0  0
    9.0720   -1.1280   24.8640 C   0  0  0  0  0  0  0  0  0  0  0  0
    9.7200   -2.2600   22.8630 C   0  0  0  0  0  0  0  0  0  0  0  0
   12.4522    2.3429   23.6478 C   0  0  0  0  0  0  0  0  0  0  0  0
   13.7826    1.9879   23.6082 C   0  0  0  0  0  0  0  0  0  0  0  0
   12.2998    0.0290   23.4904 C   0  0  0  0  0  0  0  0  0  0  0  0
    6.1790    0.5730   19.9990 C   0  0  0  0  0  0  0  0  0  0  0  0
    9.3070   -3.5340   24.8780 C   0  0  0  0  0  0  0  0  0  0  0  0
   11.5931    1.2082   23.5797 C   0  0  0  0  0  0  0  0  0  0  0  0
    5.8300    0.9190   18.6970 C   0  0  0  0  0  0  0  0  0  0  0  0
    9.3350   -1.0880   23.5010 C   0  0  0  0  0  0  0  0  0  0  0  0
    7.3170   -0.1610   19.8550 C   0  0  0  0  0  0  0  0  0  0  0  0
    9.0420    0.3700   21.5280 C   0  0  0  0  0  0  0  0  0  0  0  0
    9.2505   -4.8264   25.5904 C   0  0  0  0  0  0  0  0  0  0  0  0
   10.0942    1.2904   23.6018 C   0  0  0  0  0  0  0  0  0  0  0  0
    8.1890   -0.7180   20.8700 C   0  0  0  0  0  0  0  0  0  0  0  0
    6.7580    0.3810   17.8350 N   0  0  0  0  0  0  0  0  0  0  0  0
    7.6390   -0.2680   18.5410 N   0  0  0  0  0  0  0  0  0  0  0  0
    9.4560    0.1560   22.8130 N   0  0  0  0  0  0  0  0  0  0  0  0
    9.2690    1.4140   20.9380 O   0  0  0  0  0  0  0  0  0  0  0  0
   13.9918    0.2924   23.4892 S   0  0  0  0  0  0  0  0  0  0  0  0
    3.6562    2.0083   21.6780 H   0  0  0  0  0  0  0  0  0  0  0  0
    3.0225    2.6465   19.3867 H   0  0  0  0  0  0  0  0  0  0  0  0
    5.7084    0.6884   22.1515 H   0  0  0  0  0  0  0  0  0  0  0  0
    8.6919   -2.3557   26.5813 H   0  0  0  0  0  0  0  0  0  0  0  0
    9.9267   -4.3907   22.9939 H   0  0  0  0  0  0  0  0  0  0  0  0
    4.3943    1.9831   17.4240 H   0  0  0  0  0  0  0  0  0  0  0  0
    8.9217   -0.1995   25.4231 H   0  0  0  0  0  0  0  0  0  0  0  0
   10.0653   -2.2339   21.8256 H   0  0  0  0  0  0  0  0  0  0  0  0
   12.1156    3.3693   23.7217 H   0  0  0  0  0  0  0  0  0  0  0  0
   14.6416    2.6428   23.6427 H   0  0  0  0  0  0  0  0  0  0  0  0
   11.9074   -0.9764   23.4244 H   0  0  0  0  0  0  0  0  0  0  0  0
    8.2503   -5.2678   25.5020 H   0  0  0  0  0  0  0  0  0  0  0  0
    9.9817   -5.5374   25.1845 H   0  0  0  0  0  0  0  0  0  0  0  0
    9.4841   -4.7043   26.6562 H   0  0  0  0  0  0  0  0  0  0  0  0
    9.7199    1.2416   24.6302 H   0  0  0  0  0  0  0  0  0  0  0  0
    9.7461    2.2363   23.1736 H   0  0  0  0  0  0  0  0  0  0  0  0
    7.6090   -1.2088   21.6628 H   0  0  0  0  0  0  0  0  0  0  0  0
    8.8730   -1.4654   20.4463 H   0  0  0  0  0  0  0  0  0  0  0  0
    8.3933   -0.7388   18.1198 H   0  0  0  0  0  0  0  0  0  0  0  0
  1  2  1  0  0  0  0
  1  3  2  0  0  0  0
  2  6  2  0  0  0  0
  3 12  1  0  0  0  0
  4  7  2  0  0  0  0
  4 13  1  0  0  0  0
  5  8  1  0  0  0  0
  5 13  2  0  0  0  0
  6 15  1  0  0  0  0
  7 16  1  0  0  0  0
  8 16  2  0  0  0  0
  9 10  2  0  0  0  0
  9 14  1  0  0  0  0
 10 26  1  0  0  0  0
 11 14  2  0  0  0  0
 11 26  1  0  0  0  0
 12 15  1  0  0  0  0
 12 17  2  0  0  0  0
 13 19  1  0  0  0  0
 14 20  1  0  0  0  0
 15 22  2  0  0  0  0
 16 24  1  0  0  0  0
 17 21  1  0  0  0  0
 17 23  1  0  0  0  0
 18 21  1  0  0  0  0
 18 24  1  0  0  0  0
 18 25  2  0  0  0  0
 20 24  1  0  0  0  0
 22 23  1  0  0  0  0
  1 27  1  0  0  0  0
  2 28  1  0  0  0  0
  3 29  1  0  0  0  0
  4 30  1  0  0  0  0
  5 31  1  0  0  0  0
  6 32  1  0  0  0  0
  7 33  1  0  0  0  0
  8 34  1  0  0  0  0
  9 35  1  0  0  0  0
 10 36  1  0  0  0  0
 11 37  1  0  0  0  0
 19 38  1  0  0  0  0
 19 39  1  0  0  0  0
 19 40  1  0  0  0  0
 20 41  1  0  0  0  0
 20 42  1  0  0  0  0
 21 43  1  0  0  0  0
 21 44  1  0  0  0  0
 23 45  1  0  0  0  0
M  END
> <clash_score>
0

> <docking_score>
-8.547266006469727

> <overlap_score>
0.9304887056350708

$$$$
BENZO_403_1
  -OEChem-08232013473D

 60 64  0     0  0  0  0  0  0999 V2000
    4.2750    1.7050   20.8490 C   0  0  0  0  0  0  0  0  0  0  0  0
    3.9160    2.0630   19.5520 C   0  0  0  0  0  0  0  0  0  0  0  0
    5.4210    0.9600   21.0930 C   0  0  0  0  0  0  0  0  0  0  0  0
    4.6890    1.6810   18.4640 C   0  0  0  0  0  0  0  0  0  0  0  0
    8.9960   -2.3380   25.5320 C   0  0  0  0  0  0  0  0  0  0  0  0
    9.6730   -3.4710   23.5300 C   0  0  0  0  0  0  0  0  0  0  0  0
    9.0720   -1.1280   24.8640 C   0  0  0  0  0  0  0  0  0  0  0  0
    9.7200   -2.2600   22.8630 C   0  0  0  0  0  0  0  0  0  0  0  0
   12.2876    1.2701   24.8810 C   0  0  0  0  0  0  0  0  0  0  0  0
   12.3886    1.3870   22.6876 C   0  0  0  0  0  0  0  0  0  0  0  0
    6.1790    0.5730   19.9990 C   0  0  0  0  0  0  0  0  0  0  0  0
   11.4886    1.3226   23.7231 C   0  0  0  0  0  0  0  0  0  0  0  0
    5.8300    0.9190   18.6970 C   0  0  0  0  0  0  0  0  0  0  0  0
    9.3070   -3.5340   24.8780 C   0  0  0  0  0  0  0  0  0  0  0  0
    9.3350   -1.0880   23.5010 C   0  0  0  0  0  0  0  0  0  0  0  0
    7.3170   -0.1610   19.8550 C   0  0  0  0  0  0  0  0  0  0  0  0
    9.0420    0.3700   21.5280 C   0  0  0  0  0  0  0  0  0  0  0  0
    7.3635   -6.1361   27.1888 C   0  0  0  0  0  0  0  0  0  0  0  0
    8.1961   -4.9735   27.7341 C   0  0  0  0  0  0  0  0  0  0  0  0
    7.1942   -6.0394   25.6709 C   0  0  0  0  0  0  0  0  0  0  0  0
    9.5196   -4.8490   26.9797 C   0  0  0  0  0  0  0  0  0  0  0  0
    8.5442   -5.8838   24.9639 C   0  0  0  0  0  0  0  0  0  0  0  0
   14.8917    1.4193   22.5779 C   0  0  0  0  0  0  0  0  0  0  0  0
    9.9898    1.3085   23.6366 C   0  0  0  0  0  0  0  0  0  0  0  0
    8.1890   -0.7180   20.8700 C   0  0  0  0  0  0  0  0  0  0  0  0
   13.5946    1.2985   24.6073 N   0  0  0  0  0  0  0  0  0  0  0  0
    6.7580    0.3810   17.8350 N   0  0  0  0  0  0  0  0  0  0  0  0
    7.6390   -0.2680   18.5410 N   0  0  0  0  0  0  0  0  0  0  0  0
   13.6238    1.3695   23.2656 N   0  0  0  0  0  0  0  0  0  0  0  0
    9.2562   -4.7384   25.5422 N   0  0  0  0  0  0  0  0  0  0  0  0
    9.4560    0.1560   22.8130 N   0  0  0  0  0  0  0  0  0  0  0  0
    9.2690    1.4140   20.9380 O   0  0  0  0  0  0  0  0  0  0  0  0
    3.6562    2.0083   21.6780 H   0  0  0  0  0  0  0  0  0  0  0  0
    3.0225    2.6465   19.3867 H   0  0  0  0  0  0  0  0  0  0  0  0
    5.7084    0.6884   22.1515 H   0  0  0  0  0  0  0  0  0  0  0  0
    4.3943    1.9831   17.4240 H   0  0  0  0  0  0  0  0  0  0  0  0
    8.6905   -2.3533   26.5810 H   0  0  0  0  0  0  0  0  0  0  0  0
    9.9266   -4.3896   22.9917 H   0  0  0  0  0  0  0  0  0  0  0  0
    8.9233   -0.1992   25.4231 H   0  0  0  0  0  0  0  0  0  0  0  0
   10.0650   -2.2330   21.8256 H   0  0  0  0  0  0  0  0  0  0  0  0
   11.9742    1.2113   25.9137 H   0  0  0  0  0  0  0  0  0  0  0  0
   12.2585    1.4412   21.6152 H   0  0  0  0  0  0  0  0  0  0  0  0
    7.8482   -7.0901   27.4469 H   0  0  0  0  0  0  0  0  0  0  0  0
    6.3760   -6.1438   27.6724 H   0  0  0  0  0  0  0  0  0  0  0  0
    7.6307   -4.0424   27.6403 H   0  0  0  0  0  0  0  0  0  0  0  0
    8.3915   -5.1310   28.7968 H   0  0  0  0  0  0  0  0  0  0  0  0
    6.6888   -6.9376   25.3010 H   0  0  0  0  0  0  0  0  0  0  0  0
    6.5515   -5.1859   25.4257 H   0  0  0  0  0  0  0  0  0  0  0  0
   10.0492   -3.9640   27.3414 H   0  0  0  0  0  0  0  0  0  0  0  0
   10.1431   -5.7254   27.1778 H   0  0  0  0  0  0  0  0  0  0  0  0
    9.1338   -6.7931   25.0868 H   0  0  0  0  0  0  0  0  0  0  0  0
    8.3656   -5.7264   23.8998 H   0  0  0  0  0  0  0  0  0  0  0  0
   15.1771    2.4693   22.4722 H   0  0  0  0  0  0  0  0  0  0  0  0
   15.6424    0.8757   23.1584 H   0  0  0  0  0  0  0  0  0  0  0  0
   14.7889    0.9492   21.5959 H   0  0  0  0  0  0  0  0  0  0  0  0
    9.5459    1.2490   24.6363 H   0  0  0  0  0  0  0  0  0  0  0  0
    9.6146    2.2245   23.1682 H   0  0  0  0  0  0  0  0  0  0  0  0
    7.5972   -1.2056   21.6500 H   0  0  0  0  0  0  0  0  0  0  0  0
    8.8612   -1.4622   20.4334 H   0  0  0  0  0  0  0  0  0  0  0  0
    8.3933   -0.7388   18.1198 H   0  0  0  0  0  0  0  0  0  0  0  0
  1  2  1  0  0  0  0
  1  3  2  0  0  0  0
  2  4  2  0  0  0  0
  3 11  1  0  0  0  0
  4 13  1  0  0  0  0
  5  7  2  0  0  0  0
  5 14  1  0  0  0  0
  6  8  1  0  0  0  0
  6 14  2  0  0  0  0
  7 15  1  0  0  0  0
  8 15  2  0  0  0  0
  9 12  1  0  0  0  0
  9 26  2  0  0  0  0
 10 12  2  0  0  0  0
 10 29  1  0  0  0  0
 11 13  1  0  0  0  0
 11 16  2  0  0  0  0
 12 24  1  0  0  0  0
 13 27  2  0  0  0  0
 14 30  1  0  0  0  0
 15 31  1  0  0  0  0
 16 25  1  0  0  0  0
 16 28  1  0  0  0  0
 17 25  1  0  0  0  0
 17 31  1  0  0  0  0
 17 32  2  0  0  0  0
 18 19  1  0  0  0  0
 18 20  1  0  0  0  0
 19 21  1  0  0  0  0
 20 22  1  0  0  0  0
 21 30  1  0  0  0  0
 22 30  1  0  0  0  0
 23 29  1  0  0  0  0
 24 31  1  0  0  0  0
 26 29  1  0  0  0  0
 27 28  1  0  0  0  0
  1 33  1  0  0  0  0
  2 34  1  0  0  0  0
  3 35  1  0  0  0  0
  4 36  1  0  0  0  0
  5 37  1  0  0  0  0
  6 38  1  0  0  0  0
  7 39  1  0  0  0  0
  8 40  1  0  0  0  0
  9 41  1  0  0  0  0
 10 42  1  0  0  0  0
 18 43  1  0  0  0  0
 18 44  1  0  0  0  0
 19 45  1  0  0  0  0
 19 46  1  0  0  0  0
 20 47  1  0  0  0  0
 20 48  1  0  0  0  0
 21 49  1  0  0  0  0
 21 50  1  0  0  0  0
 22 51  1  0  0  0  0
 22 52  1  0  0  0  0
 23 53  1  0  0  0  0
 23 54  1  0  0  0  0
 23 55  1  0  0  0  0
 24 56  1  0  0  0  0
 24 57  1  0  0  0  0
 25 58  1  0  0  0  0
 25 59  1  0  0  0  0
 28 60  1  0  0  0  0
M  END
> <clash_score>
0

> <docking_score>
-8.639206886291504

> <overlap_score>
0.985912561416626

$$$$
BENZO_402_1
  -OEChem-08232013473D

 60 64  0     0  0  0  0  0  0999 V2000
    4.2750    1.7050   20.8490 C   0  0  0  0  0  0  0  0  0  0  0  0
    3.9160    2.0630   19.5520 C   0  0  0  0  0  0  0  0  0  0  0  0
   13.5386    0.4411   24.6489 C   0  0  0  0  0  0  0  0  0  0  0  0
    5.4210    0.9600   21.0930 C   0  0  0  0  0  0  0  0  0  0  0  0
   12.1462    0.4294   24.5690 C   0  0  0  0  0  0  0  0  0  0  0  0
    4.6890    1.6810   18.4640 C   0  0  0  0  0  0  0  0  0  0  0  0
    8.9960   -2.3380   25.5320 C   0  0  0  0  0  0  0  0  0  0  0  0
    9.6730   -3.4710   23.5300 C   0  0  0  0  0  0  0  0  0  0  0  0
    9.0720   -1.1280   24.8640 C   0  0  0  0  0  0  0  0  0  0  0  0
    9.7200   -2.2600   22.8630 C   0  0  0  0  0  0  0  0  0  0  0  0
   14.2736    1.3462   23.8831 C   0  0  0  0  0  0  0  0  0  0  0  0
   12.2236    2.2276   22.9572 C   0  0  0  0  0  0  0  0  0  0  0  0
    6.1790    0.5730   19.9990 C   0  0  0  0  0  0  0  0  0  0  0  0
   11.4886    1.3226   23.7231 C   0  0  0  0  0  0  0  0  0  0  0  0
    5.8300    0.9190   18.6970 C   0  0  0  0  0  0  0  0  0  0  0  0
    9.3070   -3.5340   24.8780 C   0  0  0  0  0  0  0  0  0  0  0  0
    9.3350   -1.0880   23.5010 C   0  0  0  0  0  0  0  0  0  0  0  0
   13.6161    2.2394   23.0373 C   0  0  0  0  0  0  0  0  0  0  0  0
    7.3170   -0.1610   19.8550 C   0  0  0  0  0  0  0  0  0  0  0  0
    9.0420    0.3700   21.5280 C   0  0  0  0  0  0  0  0  0  0  0  0
    7.3635   -6.1361   27.1888 C   0  0  0  0  0  0  0  0  0  0  0  0
    8.1961   -4.9735   27.7341 C   0  0  0  0  0  0  0  0  0  0  0  0
    7.1942   -6.0394   25.6709 C   0  0  0  0  0  0  0  0  0  0  0  0
    9.5196   -4.8490   26.9797 C   0  0  0  0  0  0  0  0  0  0  0  0
    8.5442   -5.8838   24.9639 C   0  0  0  0  0  0  0  0  0  0  0  0
    9.9898    1.3085   23.6366 C   0  0  0  0  0  0  0  0  0  0  0  0
    8.1890   -0.7180   20.8700 C   0  0  0  0  0  0  0  0  0  0  0  0
    6.7580    0.3810   17.8350 N   0  0  0  0  0  0  0  0  0  0  0  0
    7.6390   -0.2680   18.5410 N   0  0  0  0  0  0  0  0  0  0  0  0
    9.2562   -4.7384   25.5422 N   0  0  0  0  0  0  0  0  0  0  0  0
    9.4560    0.1560   22.8130 N   0  0  0  0  0  0  0  0  0  0  0  0
    9.2690    1.4140   20.9380 O   0  0  0  0  0  0  0  0  0  0  0  0
   14.5235    3.3549   22.0918 Cl  0  0  0  0  0  0  0  0  0  0  0  0
    3.6562    2.0083   21.6780 H   0  0  0  0  0  0  0  0  0  0  0  0
    3.0225    2.6465   19.3867 H   0  0  0  0  0  0  0  0  0  0  0  0
   14.0503   -0.2547   25.3076 H   0  0  0  0  0  0  0  0  0  0  0  0
    5.7084    0.6884   22.1515 H   0  0  0  0  0  0  0  0  0  0  0  0
   11.5816   -0.2793   25.1692 H   0  0  0  0  0  0  0  0  0  0  0  0
    4.3943    1.9831   17.4240 H   0  0  0  0  0  0  0  0  0  0  0  0
    8.6905   -2.3533   26.5810 H   0  0  0  0  0  0  0  0  0  0  0  0
    9.9266   -4.3896   22.9917 H   0  0  0  0  0  0  0  0  0  0  0  0
    8.9233   -0.1992   25.4231 H   0  0  0  0  0  0  0  0  0  0  0  0
   10.0650   -2.2330   21.8256 H   0  0  0  0  0  0  0  0  0  0  0  0
   15.3585    1.3438   23.9554 H   0  0  0  0  0  0  0  0  0  0  0  0
   11.7062    2.9223   22.2996 H   0  0  0  0  0  0  0  0  0  0  0  0
    7.8482   -7.0901   27.4469 H   0  0  0  0  0  0  0  0  0  0  0  0
    6.3760   -6.1438   27.6724 H   0  0  0  0  0  0  0  0  0  0  0  0
    7.6307   -4.0424   27.6403 H   0  0  0  0  0  0  0  0  0  0  0  0
    8.3915   -5.1310   28.7968 H   0  0  0  0  0  0  0  0  0  0  0  0
    6.6888   -6.9376   25.3010 H   0  0  0  0  0  0  0  0  0  0  0  0
    6.5515   -5.1859   25.4257 H   0  0  0  0  0  0  0  0  0  0  0  0
   10.0492   -3.9640   27.3414 H   0  0  0  0  0  0  0  0  0  0  0  0
   10.1431   -5.7254   27.1778 H   0  0  0  0  0  0  0  0  0  0  0  0
    9.1338   -6.7931   25.0868 H   0  0  0  0  0  0  0  0  0  0  0  0
    8.3656   -5.7264   23.8998 H   0  0  0  0  0  0  0  0  0  0  0  0
    9.5459    1.2490   24.6363 H   0  0  0  0  0  0  0  0  0  0  0  0
    9.6146    2.2245   23.1682 H   0  0  0  0  0  0  0  0  0  0  0  0
    7.5972   -1.2056   21.6500 H   0  0  0  0  0  0  0  0  0  0  0  0
    8.8612   -1.4622   20.4334 H   0  0  0  0  0  0  0  0  0  0  0  0
    8.3933   -0.7388   18.1198 H   0  0  0  0  0  0  0  0  0  0  0  0
  1  2  1  0  0  0  0
  1  4  2  0  0  0  0
  2  6  2  0  0  0  0
  3  5  2  0  0  0  0
  3 11  1  0  0  0  0
  4 13  1  0  0  0  0
  5 14  1  0  0  0  0
  6 15  1  0  0  0  0
  7  9  2  0  0  0  0
  7 16  1  0  0  0  0
  8 10  1  0  0  0  0
  8 16  2  0  0  0  0
  9 17  1  0  0  0  0
 10 17  2  0  0  0  0
 11 18  2  0  0  0  0
 12 14  2  0  0  0  0
 12 18  1  0  0  0  0
 13 15  1  0  0  0  0
 13 19  2  0  0  0  0
 14 26  1  0  0  0  0
 15 28  2  0  0  0  0
 16 30  1  0  0  0  0
 17 31  1  0  0  0  0
 18 33  1  0  0  0  0
 19 27  1  0  0  0  0
 19 29  1  0  0  0  0
 20 27  1  0  0  0  0
 20 31  1  0  0  0  0
 20 32  2  0  0  0  0
 21 22  1  0  0  0  0
 21 23  1  0  0  0  0
 22 24  1  0  0  0  0
 23 25  1  0  0  0  0
 24 30  1  0  0  0  0
 25 30  1  0  0  0  0
 26 31  1  0  0  0  0
 28 29  1  0  0  0  0
  1 34  1  0  0  0  0
  2 35  1  0  0  0  0
  3 36  1  0  0  0  0
  4 37  1  0  0  0  0
  5 38  1  0  0  0  0
  6 39  1  0  0  0  0
  7 40  1  0  0  0  0
  8 41  1  0  0  0  0
  9 42  1  0  0  0  0
 10 43  1  0  0  0  0
 11 44  1  0  0  0  0
 12 45  1  0  0  0  0
 21 46  1  0  0  0  0
 21 47  1  0  0  0  0
 22 48  1  0  0  0  0
 22 49  1  0  0  0  0
 23 50  1  0  0  0  0
 23 51  1  0  0  0  0
 24 52  1  0  0  0  0
 24 53  1  0  0  0  0
 25 54  1  0  0  0  0
 25 55  1  0  0  0  0
 26 56  1  0  0  0  0
 26 57  1  0  0  0  0
 27 58  1  0  0  0  0
 27 59  1  0  0  0  0
 29 60  1  0  0  0  0
M  END
> <clash_score>
0

> <docking_score>
-7.746042728424072

> <overlap_score>
1.0036605596542358

$$$$
BENZO_407_1
  -OEChem-08232013473D

 48 51  0     0  0  0  0  0  0999 V2000
    4.2750    1.7050   20.8490 C   0  0  0  0  0  0  0  0  0  0  0  0
    3.9160    2.0630   19.5520 C   0  0  0  0  0  0  0  0  0  0  0  0
    5.4210    0.9600   21.0930 C   0  0  0  0  0  0  0  0  0  0  0  0
    8.9960   -2.3380   25.5320 C   0  0  0  0  0  0  0  0  0  0  0  0
    9.6730   -3.4710   23.5300 C   0  0  0  0  0  0  0  0  0  0  0  0
    4.6890    1.6810   18.4640 C   0  0  0  0  0  0  0  0  0  0  0  0
    9.0720   -1.1280   24.8640 C   0  0  0  0  0  0  0  0  0  0  0  0
    9.7200   -2.2600   22.8630 C   0  0  0  0  0  0  0  0  0  0  0  0
   12.4906    1.9975   22.8359 C   0  0  0  0  0  0  0  0  0  0  0  0
   12.3970    0.3459   24.2844 C   0  0  0  0  0  0  0  0  0  0  0  0
    6.1790    0.5730   19.9990 C   0  0  0  0  0  0  0  0  0  0  0  0
    9.3070   -3.5340   24.8780 C   0  0  0  0  0  0  0  0  0  0  0  0
   11.5931    1.2082   23.5797 C   0  0  0  0  0  0  0  0  0  0  0  0
    5.8300    0.9190   18.6970 C   0  0  0  0  0  0  0  0  0  0  0  0
    9.3350   -1.0880   23.5010 C   0  0  0  0  0  0  0  0  0  0  0  0
    7.3170   -0.1610   19.8550 C   0  0  0  0  0  0  0  0  0  0  0  0
    9.0420    0.3700   21.5280 C   0  0  0  0  0  0  0  0  0  0  0  0
    9.2505   -4.8264   25.5904 C   0  0  0  0  0  0  0  0  0  0  0  0
   14.8781    0.0216   24.4183 C   0  0  0  0  0  0  0  0  0  0  0  0
   10.0942    1.2904   23.6018 C   0  0  0  0  0  0  0  0  0  0  0  0
    8.1890   -0.7180   20.8700 C   0  0  0  0  0  0  0  0  0  0  0  0
   13.7670    1.6661   23.0484 N   0  0  0  0  0  0  0  0  0  0  0  0
    6.7580    0.3810   17.8350 N   0  0  0  0  0  0  0  0  0  0  0  0
    7.6390   -0.2680   18.5410 N   0  0  0  0  0  0  0  0  0  0  0  0
   13.6773    0.6591   23.9338 N   0  0  0  0  0  0  0  0  0  0  0  0
    9.4560    0.1560   22.8130 N   0  0  0  0  0  0  0  0  0  0  0  0
    9.2690    1.4140   20.9380 O   0  0  0  0  0  0  0  0  0  0  0  0
    3.6562    2.0083   21.6780 H   0  0  0  0  0  0  0  0  0  0  0  0
    3.0225    2.6465   19.3867 H   0  0  0  0  0  0  0  0  0  0  0  0
    5.7084    0.6884   22.1515 H   0  0  0  0  0  0  0  0  0  0  0  0
    8.6919   -2.3557   26.5813 H   0  0  0  0  0  0  0  0  0  0  0  0
    9.9267   -4.3907   22.9939 H   0  0  0  0  0  0  0  0  0  0  0  0
    4.3943    1.9831   17.4240 H   0  0  0  0  0  0  0  0  0  0  0  0
    8.9217   -0.1995   25.4231 H   0  0  0  0  0  0  0  0  0  0  0  0
   10.0653   -2.2339   21.8256 H   0  0  0  0  0  0  0  0  0  0  0  0
   12.2703    2.8015   22.1479 H   0  0  0  0  0  0  0  0  0  0  0  0
   12.1727   -0.4435   24.9890 H   0  0  0  0  0  0  0  0  0  0  0  0
    8.2503   -5.2678   25.5020 H   0  0  0  0  0  0  0  0  0  0  0  0
    9.9817   -5.5374   25.1845 H   0  0  0  0  0  0  0  0  0  0  0  0
    9.4841   -4.7043   26.6562 H   0  0  0  0  0  0  0  0  0  0  0  0
   15.1116   -0.8107   23.7491 H   0  0  0  0  0  0  0  0  0  0  0  0
   15.6969    0.7464   24.4271 H   0  0  0  0  0  0  0  0  0  0  0  0
   14.7094   -0.3405   25.4363 H   0  0  0  0  0  0  0  0  0  0  0  0
    9.7199    1.2416   24.6302 H   0  0  0  0  0  0  0  0  0  0  0  0
    9.7461    2.2363   23.1736 H   0  0  0  0  0  0  0  0  0  0  0  0
    7.6090   -1.2088   21.6628 H   0  0  0  0  0  0  0  0  0  0  0  0
    8.8730   -1.4654   20.4463 H   0  0  0  0  0  0  0  0  0  0  0  0
    8.3933   -0.7388   18.1198 H   0  0  0  0  0  0  0  0  0  0  0  0
  1  2  1  0  0  0  0
  1  3  2  0  0  0  0
  2  6  2  0  0  0  0
  3 11  1  0  0  0  0
  4  7  2  0  0  0  0
  4 12  1  0  0  0  0
  5  8  1  0  0  0  0
  5 12  2  0  0  0  0
  6 14  1  0  0  0  0
  7 15  1  0  0  0  0
  8 15  2  0  0  0  0
  9 13  1  0  0  0  0
  9 22  2  0  0  0  0
 10 13  2  0  0  0  0
 10 25  1  0  0  0  0
 11 14  1  0  0  0  0
 11 16  2  0  0  0  0
 12 18  1  0  0  0  0
 13 20  1  0  0  0  0
 14 23  2  0  0  0  0
 15 26  1  0  0  0  0
 16 21  1  0  0  0  0
 16 24  1  0  0  0  0
 17 21  1  0  0  0  0
 17 26  1  0  0  0  0
 17 27  2  0  0  0  0
 19 25  1  0  0  0  0
 20 26  1  0  0  0  0
 22 25  1  0  0  0  0
 23 24  1  0  0  0  0
  1 28  1  0  0  0  0
  2 29  1  0  0  0  0
  3 30  1  0  0  0  0
  4 31  1  0  0  0  0
  5 32  1  0  0  0  0
  6 33  1  0  0  0  0
  7 34  1  0  0  0  0
  8 35  1  0  0  0  0
  9 36  1  0  0  0  0
 10 37  1  0  0  0  0
 18 38  1  0  0  0  0
 18 39  1  0  0  0  0
 18 40  1  0  0  0  0
 19 41  1  0  0  0  0
 19 42  1  0  0  0  0
 19 43  1  0  0  0  0
 20 44  1  0  0  0  0
 20 45  1  0  0  0  0
 21 46  1  0  0  0  0
 21 47  1  0  0  0  0
 24 48  1  0  0  0  0
M  END
> <clash_score>
0

> <docking_score>
-8.765472412109375

> <overlap_score>
0.9407615065574646

$$$$
BENZO_406_1
  -OEChem-08232013473D

 48 51  0     0  0  0  0  0  0999 V2000
    4.2750    1.7050   20.8490 C   0  0  0  0  0  0  0  0  0  0  0  0
    3.9160    2.0630   19.5520 C   0  0  0  0  0  0  0  0  0  0  0  0
   13.7196    2.0044   22.7545 C   0  0  0  0  0  0  0  0  0  0  0  0
    5.4210    0.9600   21.0930 C   0  0  0  0  0  0  0  0  0  0  0  0
   12.3269    2.0795   22.7747 C   0  0  0  0  0  0  0  0  0  0  0  0
    8.9960   -2.3380   25.5320 C   0  0  0  0  0  0  0  0  0  0  0  0
    9.6730   -3.4710   23.5300 C   0  0  0  0  0  0  0  0  0  0  0  0
    4.6890    1.6810   18.4640 C   0  0  0  0  0  0  0  0  0  0  0  0
    9.0720   -1.1280   24.8640 C   0  0  0  0  0  0  0  0  0  0  0  0
    9.7200   -2.2600   22.8630 C   0  0  0  0  0  0  0  0  0  0  0  0
   14.3785    1.0580   23.5393 C   0  0  0  0  0  0  0  0  0  0  0  0
   12.2520    0.2618   24.3645 C   0  0  0  0  0  0  0  0  0  0  0  0
    6.1790    0.5730   19.9990 C   0  0  0  0  0  0  0  0  0  0  0  0
    9.3070   -3.5340   24.8780 C   0  0  0  0  0  0  0  0  0  0  0  0
   11.5931    1.2082   23.5797 C   0  0  0  0  0  0  0  0  0  0  0  0
    5.8300    0.9190   18.6970 C   0  0  0  0  0  0  0  0  0  0  0  0
    9.3350   -1.0880   23.5010 C   0  0  0  0  0  0  0  0  0  0  0  0
   13.6447    0.1868   24.3443 C   0  0  0  0  0  0  0  0  0  0  0  0
    7.3170   -0.1610   19.8550 C   0  0  0  0  0  0  0  0  0  0  0  0
    9.0420    0.3700   21.5280 C   0  0  0  0  0  0  0  0  0  0  0  0
    9.2505   -4.8264   25.5904 C   0  0  0  0  0  0  0  0  0  0  0  0
   10.0942    1.2904   23.6018 C   0  0  0  0  0  0  0  0  0  0  0  0
    8.1890   -0.7180   20.8700 C   0  0  0  0  0  0  0  0  0  0  0  0
    6.7580    0.3810   17.8350 N   0  0  0  0  0  0  0  0  0  0  0  0
    7.6390   -0.2680   18.5410 N   0  0  0  0  0  0  0  0  0  0  0  0
    9.4560    0.1560   22.8130 N   0  0  0  0  0  0  0  0  0  0  0  0
    9.2690    1.4140   20.9380 O   0  0  0  0  0  0  0  0  0  0  0  0
   14.4582   -0.9799   25.3133 Cl  0  0  0  0  0  0  0  0  0  0  0  0
    3.6562    2.0083   21.6780 H   0  0  0  0  0  0  0  0  0  0  0  0
    3.0225    2.6465   19.3867 H   0  0  0  0  0  0  0  0  0  0  0  0
   14.2907    2.6832   22.1276 H   0  0  0  0  0  0  0  0  0  0  0  0
    5.7084    0.6884   22.1515 H   0  0  0  0  0  0  0  0  0  0  0  0
   11.8219    2.8201   22.1600 H   0  0  0  0  0  0  0  0  0  0  0  0
    8.6919   -2.3557   26.5813 H   0  0  0  0  0  0  0  0  0  0  0  0
    9.9267   -4.3907   22.9939 H   0  0  0  0  0  0  0  0  0  0  0  0
    4.3943    1.9831   17.4240 H   0  0  0  0  0  0  0  0  0  0  0  0
    8.9217   -0.1995   25.4231 H   0  0  0  0  0  0  0  0  0  0  0  0
   10.0653   -2.2339   21.8256 H   0  0  0  0  0  0  0  0  0  0  0  0
   15.4644    1.0112   23.5138 H   0  0  0  0  0  0  0  0  0  0  0  0
   11.6753   -0.4156   24.9901 H   0  0  0  0  0  0  0  0  0  0  0  0
    8.2503   -5.2678   25.5020 H   0  0  0  0  0  0  0  0  0  0  0  0
    9.9817   -5.5374   25.1845 H   0  0  0  0  0  0  0  0  0  0  0  0
    9.4841   -4.7043   26.6562 H   0  0  0  0  0  0  0  0  0  0  0  0
    9.7199    1.2416   24.6302 H   0  0  0  0  0  0  0  0  0  0  0  0
    9.7461    2.2363   23.1736 H   0  0  0  0  0  0  0  0  0  0  0  0
    7.6090   -1.2088   21.6628 H   0  0  0  0  0  0  0  0  0  0  0  0
    8.8730   -1.4654   20.4463 H   0  0  0  0  0  0  0  0  0  0  0  0
    8.3933   -0.7388   18.1198 H   0  0  0  0  0  0  0  0  0  0  0  0
  1  2  1  0  0  0  0
  1  4  2  0  0  0  0
  2  8  2  0  0  0  0
  3  5  2  0  0  0  0
  3 11  1  0  0  0  0
  4 13  1  0  0  0  0
  5 15  1  0  0  0  0
  6  9  2  0  0  0  0
  6 14  1  0  0  0  0
  7 10  1  0  0  0  0
  7 14  2  0  0  0  0
  8 16  1  0  0  0  0
  9 17  1  0  0  0  0
 10 17  2  0  0  0  0
 11 18  2  0  0  0  0
 12 15  2  0  0  0  0
 12 18  1  0  0  0  0
 13 16  1  0  0  0  0
 13 19  2  0  0  0  0
 14 21  1  0  0  0  0
 15 22  1  0  0  0  0
 16 24  2  0  0  0  0
 17 26  1  0  0  0  0
 18 28  1  0  0  0  0
 19 23  1  0  0  0  0
 19 25  1  0  0  0  0
 20 23  1  0  0  0  0
 20 26  1  0  0  0  0
 20 27  2  0  0  0  0
 22 26  1  0  0  0  0
 24 25  1  0  0  0  0
  1 29  1  0  0  0  0
  2 30  1  0  0  0  0
  3 31  1  0  0  0  0
  4 32  1  0  0  0  0
  5 33  1  0  0  0  0
  6 34  1  0  0  0  0
  7 35  1  0  0  0  0
  8 36  1  0  0  0  0
  9 37  1  0  0  0  0
 10 38  1  0  0  0  0
 11 39  1  0  0  0  0
 12 40  1  0  0  0  0
 21 41  1  0  0  0  0
 21 42  1  0  0  0  0
 21 43  1  0  0  0  0
 22 44  1  0  0  0  0
 22 45  1  0  0  0  0
 23 46  1  0  0  0  0
 23 47  1  0  0  0  0
 25 48  1  0  0  0  0
M  END
> <clash_score>
0.739407045306671

> <docking_score>
-8.084962844848633

> <overlap_score>
0.9437699913978577

$$$$
BENZO_409_1
  -OEChem-08232013473D

 49 52  0     0  0  0  0  0  0999 V2000
   14.3783    1.0541   23.5390 C   0  0  0  0  0  0  0  0  0  0  0  0
    4.2750    1.7050   20.8490 C   0  0  0  0  0  0  0  0  0  0  0  0
   13.7499    2.2953   23.6403 C   0  0  0  0  0  0  0  0  0  0  0  0
   13.6141   -0.1100   23.4580 C   0  0  0  0  0  0  0  0  0  0  0  0
    3.9160    2.0630   19.5520 C   0  0  0  0  0  0  0  0  0  0  0  0
    5.4210    0.9600   21.0930 C   0  0  0  0  0  0  0  0  0  0  0  0
   12.3573    2.3723   23.6607 C   0  0  0  0  0  0  0  0  0  0  0  0
   12.2216   -0.0329   23.4784 C   0  0  0  0  0  0  0  0  0  0  0  0
    4.6890    1.6810   18.4640 C   0  0  0  0  0  0  0  0  0  0  0  0
    9.0720   -1.1280   24.8640 C   0  0  0  0  0  0  0  0  0  0  0  0
    9.7200   -2.2600   22.8630 C   0  0  0  0  0  0  0  0  0  0  0  0
    8.9960   -2.3380   25.5320 C   0  0  0  0  0  0  0  0  0  0  0  0
    9.6730   -3.4710   23.5300 C   0  0  0  0  0  0  0  0  0  0  0  0
    6.1790    0.5730   19.9990 C   0  0  0  0  0  0  0  0  0  0  0  0
   11.5931    1.2082   23.5797 C   0  0  0  0  0  0  0  0  0  0  0  0
    5.8300    0.9190   18.6970 C   0  0  0  0  0  0  0  0  0  0  0  0
    9.3350   -1.0880   23.5010 C   0  0  0  0  0  0  0  0  0  0  0  0
    9.3070   -3.5340   24.8780 C   0  0  0  0  0  0  0  0  0  0  0  0
    7.3170   -0.1610   19.8550 C   0  0  0  0  0  0  0  0  0  0  0  0
    9.0420    0.3700   21.5280 C   0  0  0  0  0  0  0  0  0  0  0  0
    8.8720   -4.6805   26.9013 C   0  0  0  0  0  0  0  0  0  0  0  0
   10.0942    1.2904   23.6018 C   0  0  0  0  0  0  0  0  0  0  0  0
    8.1890   -0.7180   20.8700 C   0  0  0  0  0  0  0  0  0  0  0  0
    6.7580    0.3810   17.8350 N   0  0  0  0  0  0  0  0  0  0  0  0
    7.6390   -0.2680   18.5410 N   0  0  0  0  0  0  0  0  0  0  0  0
    9.4560    0.1560   22.8130 N   0  0  0  0  0  0  0  0  0  0  0  0
    9.2690    1.4140   20.9380 O   0  0  0  0  0  0  0  0  0  0  0  0
    9.2555   -4.7124   25.5274 O   0  0  0  0  0  0  0  0  0  0  0  0
   15.4627    0.9944   23.5218 H   0  0  0  0  0  0  0  0  0  0  0  0
    3.6562    2.0083   21.6780 H   0  0  0  0  0  0  0  0  0  0  0  0
   14.3448    3.2019   23.7023 H   0  0  0  0  0  0  0  0  0  0  0  0
   14.1031   -1.0764   23.3780 H   0  0  0  0  0  0  0  0  0  0  0  0
    3.0225    2.6465   19.3867 H   0  0  0  0  0  0  0  0  0  0  0  0
    5.7084    0.6884   22.1515 H   0  0  0  0  0  0  0  0  0  0  0  0
   11.8763    3.3437   23.7400 H   0  0  0  0  0  0  0  0  0  0  0  0
   11.6343   -0.9452   23.4149 H   0  0  0  0  0  0  0  0  0  0  0  0
    4.3943    1.9831   17.4240 H   0  0  0  0  0  0  0  0  0  0  0  0
    8.9221   -0.1995   25.4231 H   0  0  0  0  0  0  0  0  0  0  0  0
   10.0642   -2.2347   21.8253 H   0  0  0  0  0  0  0  0  0  0  0  0
    8.6902   -2.3588   26.5805 H   0  0  0  0  0  0  0  0  0  0  0  0
    9.9254   -4.3921   22.9961 H   0  0  0  0  0  0  0  0  0  0  0  0
    8.8711   -5.6964   27.3038 H   0  0  0  0  0  0  0  0  0  0  0  0
    7.8758   -4.2402   26.9923 H   0  0  0  0  0  0  0  0  0  0  0  0
    9.5894   -4.0716   27.4566 H   0  0  0  0  0  0  0  0  0  0  0  0
    9.7199    1.2416   24.6302 H   0  0  0  0  0  0  0  0  0  0  0  0
    9.7461    2.2363   23.1736 H   0  0  0  0  0  0  0  0  0  0  0  0
    7.6090   -1.2088   21.6628 H   0  0  0  0  0  0  0  0  0  0  0  0
    8.8730   -1.4654   20.4463 H   0  0  0  0  0  0  0  0  0  0  0  0
    8.3933   -0.7388   18.1198 H   0  0  0  0  0  0  0  0  0  0  0  0
  1  3  1  0  0  0  0
  1  4  2  0  0  0  0
  2  5  1  0  0  0  0
  2  6  2  0  0  0  0
  3  7  2  0  0  0  0
  4  8  1  0  0  0  0
  5  9  2  0  0  0  0
  6 14  1  0  0  0  0
  7 15  1  0  0  0  0
  8 15  2  0  0  0  0
  9 16  1  0  0  0  0
 10 12  2  0  0  0  0
 10 17  1  0  0  0  0
 11 13  1  0  0  0  0
 11 17  2  0  0  0  0
 12 18  1  0  0  0  0
 13 18  2  0  0  0  0
 14 16  1  0  0  0  0
 14 19  2  0  0  0  0
 15 22  1  0  0  0  0
 16 24  2  0  0  0  0
 17 26  1  0  0  0  0
 18 28  1  0  0  0  0
 19 23  1  0  0  0  0
 19 25  1  0  0  0  0
 20 23  1  0  0  0  0
 20 26  1  0  0  0  0
 20 27  2  0  0  0  0
 21 28  1  0  0  0  0
 22 26  1  0  0  0  0
 24 25  1  0  0  0  0
  1 29  1  0  0  0  0
  2 30  1  0  0  0  0
  3 31  1  0  0  0  0
  4 32  1  0  0  0  0
  5 33  1  0  0  0  0
  6 34  1  0  0  0  0
  7 35  1  0  0  0  0
  8 36  1  0  0  0  0
  9 37  1  0  0  0  0
 10 38  1  0  0  0  0
 11 39  1  0  0  0  0
 12 40  1  0  0  0  0
 13 41  1  0  0  0  0
 21 42  1  0  0  0  0
 21 43  1  0  0  0  0
 21 44  1  0  0  0  0
 22 45  1  0  0  0  0
 22 46  1  0  0  0  0
 23 47  1  0  0  0  0
 23 48  1  0  0  0  0
 25 49  1  0  0  0  0
M  END
> <clash_score>
0

> <docking_score>
-7.511858940124512

> <overlap_score>
0.9645010828971863

$$$$
BENZO_408_1
  -OEChem-08232013473D

 46 49  0     0  0  0  0  0  0999 V2000
    4.2750    1.7050   20.8490 C   0  0  0  0  0  0  0  0  0  0  0  0
    3.9160    2.0630   19.5520 C   0  0  0  0  0  0  0  0  0  0  0  0
    5.4210    0.9600   21.0930 C   0  0  0  0  0  0  0  0  0  0  0  0
    4.6890    1.6810   18.4640 C   0  0  0  0  0  0  0  0  0  0  0  0
    9.0720   -1.1280   24.8640 C   0  0  0  0  0  0  0  0  0  0  0  0
    9.7200   -2.2600   22.8630 C   0  0  0  0  0  0  0  0  0  0  0  0
    8.9960   -2.3380   25.5320 C   0  0  0  0  0  0  0  0  0  0  0  0
    9.6730   -3.4710   23.5300 C   0  0  0  0  0  0  0  0  0  0  0  0
   12.4522    2.3429   23.6478 C   0  0  0  0  0  0  0  0  0  0  0  0
   13.7826    1.9879   23.6082 C   0  0  0  0  0  0  0  0  0  0  0  0
   12.2998    0.0290   23.4904 C   0  0  0  0  0  0  0  0  0  0  0  0
    6.1790    0.5730   19.9990 C   0  0  0  0  0  0  0  0  0  0  0  0
   11.5931    1.2082   23.5797 C   0  0  0  0  0  0  0  0  0  0  0  0
    5.8300    0.9190   18.6970 C   0  0  0  0  0  0  0  0  0  0  0  0
    9.3350   -1.0880   23.5010 C   0  0  0  0  0  0  0  0  0  0  0  0
    9.3070   -3.5340   24.8780 C   0  0  0  0  0  0  0  0  0  0  0  0
    7.3170   -0.1610   19.8550 C   0  0  0  0  0  0  0  0  0  0  0  0
    9.0420    0.3700   21.5280 C   0  0  0  0  0  0  0  0  0  0  0  0
    8.8720   -4.6805   26.9013 C   0  0  0  0  0  0  0  0  0  0  0  0
   10.0942    1.2904   23.6018 C   0  0  0  0  0  0  0  0  0  0  0  0
    8.1890   -0.7180   20.8700 C   0  0  0  0  0  0  0  0  0  0  0  0
    6.7580    0.3810   17.8350 N   0  0  0  0  0  0  0  0  0  0  0  0
    7.6390   -0.2680   18.5410 N   0  0  0  0  0  0  0  0  0  0  0  0
    9.4560    0.1560   22.8130 N   0  0  0  0  0  0  0  0  0  0  0  0
    9.2690    1.4140   20.9380 O   0  0  0  0  0  0  0  0  0  0  0  0
    9.2555   -4.7124   25.5274 O   0  0  0  0  0  0  0  0  0  0  0  0
   13.9918    0.2924   23.4892 S   0  0  0  0  0  0  0  0  0  0  0  0
    3.6562    2.0083   21.6780 H   0  0  0  0  0  0  0  0  0  0  0  0
    3.0225    2.6465   19.3867 H   0  0  0  0  0  0  0  0  0  0  0  0
    5.7084    0.6884   22.1515 H   0  0  0  0  0  0  0  0  0  0  0  0
    4.3943    1.9831   17.4240 H   0  0  0  0  0  0  0  0  0  0  0  0
    8.9221   -0.1995   25.4231 H   0  0  0  0  0  0  0  0  0  0  0  0
   10.0642   -2.2347   21.8253 H   0  0  0  0  0  0  0  0  0  0  0  0
    8.6902   -2.3588   26.5805 H   0  0  0  0  0  0  0  0  0  0  0  0
    9.9254   -4.3921   22.9961 H   0  0  0  0  0  0  0  0  0  0  0  0
   12.1156    3.3693   23.7217 H   0  0  0  0  0  0  0  0  0  0  0  0
   14.6416    2.6428   23.6427 H   0  0  0  0  0  0  0  0  0  0  0  0
   11.9074   -0.9764   23.4244 H   0  0  0  0  0  0  0  0  0  0  0  0
    8.8711   -5.6964   27.3038 H   0  0  0  0  0  0  0  0  0  0  0  0
    7.8758   -4.2402   26.9923 H   0  0  0  0  0  0  0  0  0  0  0  0
    9.5894   -4.0716   27.4566 H   0  0  0  0  0  0  0  0  0  0  0  0
    9.7199    1.2416   24.6302 H   0  0  0  0  0  0  0  0  0  0  0  0
    9.7461    2.2363   23.1736 H   0  0  0  0  0  0  0  0  0  0  0  0
    7.6090   -1.2088   21.6628 H   0  0  0  0  0  0  0  0  0  0  0  0
    8.8730   -1.4654   20.4463 H   0  0  0  0  0  0  0  0  0  0  0  0
    8.3933   -0.7388   18.1198 H   0  0  0  0  0  0  0  0  0  0  0  0
  1  2  1  0  0  0  0
  1  3  2  0  0  0  0
  2  4  2  0  0  0  0
  3 12  1  0  0  0  0
  4 14  1  0  0  0  0
  5  7  2  0  0  0  0
  5 15  1  0  0  0  0
  6  8  1  0  0  0  0
  6 15  2  0  0  0  0
  7 16  1  0  0  0  0
  8 16  2  0  0  0  0
  9 10  2  0  0  0  0
  9 13  1  0  0  0  0
 10 27  1  0  0  0  0
 11 13  2  0  0  0  0
 11 27  1  0  0  0  0
 12 14  1  0  0  0  0
 12 17  2  0  0  0  0
 13 20  1  0  0  0  0
 14 22  2  0  0  0  0
 15 24  1  0  0  0  0
 16 26  1  0  0  0  0
 17 21  1  0  0  0  0
 17 23  1  0  0  0  0
 18 21  1  0  0  0  0
 18 24  1  0  0  0  0
 18 25  2  0  0  0  0
 19 26  1  0  0  0  0
 20 24  1  0  0  0  0
 22 23  1  0  0  0  0
  1 28  1  0  0  0  0
  2 29  1  0  0  0  0
  3 30  1  0  0  0  0
  4 31  1  0  0  0  0
  5 32  1  0  0  0  0
  6 33  1  0  0  0  0
  7 34  1  0  0  0  0
  8 35  1  0  0  0  0
  9 36  1  0  0  0  0
 10 37  1  0  0  0  0
 11 38  1  0  0  0  0
 19 39  1  0  0  0  0
 19 40  1  0  0  0  0
 19 41  1  0  0  0  0
 20 42  1  0  0  0  0
 20 43  1  0  0  0  0
 21 44  1  0  0  0  0
 21 45  1  0  0  0  0
 23 46  1  0  0  0  0
M  END
> <clash_score>
0

> <docking_score>
-8.283570289611816

> <overlap_score>
0.9529157280921936

$$$$
BENZO_411_1
  -OEChem-08232013473D

 49 52  0     0  0  0  0  0  0999 V2000
    4.2750    1.7050   20.8490 C   0  0  0  0  0  0  0  0  0  0  0  0
    3.9160    2.0630   19.5520 C   0  0  0  0  0  0  0  0  0  0  0  0
    5.4210    0.9600   21.0930 C   0  0  0  0  0  0  0  0  0  0  0  0
    4.6890    1.6810   18.4640 C   0  0  0  0  0  0  0  0  0  0  0  0
    9.0720   -1.1280   24.8640 C   0  0  0  0  0  0  0  0  0  0  0  0
    9.7200   -2.2600   22.8630 C   0  0  0  0  0  0  0  0  0  0  0  0
    8.9960   -2.3380   25.5320 C   0  0  0  0  0  0  0  0  0  0  0  0
    9.6730   -3.4710   23.5300 C   0  0  0  0  0  0  0  0  0  0  0  0
   12.4906    1.9975   22.8359 C   0  0  0  0  0  0  0  0  0  0  0  0
   12.3970    0.3459   24.2844 C   0  0  0  0  0  0  0  0  0  0  0  0
    6.1790    0.5730   19.9990 C   0  0  0  0  0  0  0  0  0  0  0  0
   11.5931    1.2082   23.5797 C   0  0  0  0  0  0  0  0  0  0  0  0
    5.8300    0.9190   18.6970 C   0  0  0  0  0  0  0  0  0  0  0  0
    9.3350   -1.0880   23.5010 C   0  0  0  0  0  0  0  0  0  0  0  0
    9.3070   -3.5340   24.8780 C   0  0  0  0  0  0  0  0  0  0  0  0
    7.3170   -0.1610   19.8550 C   0  0  0  0  0  0  0  0  0  0  0  0
    9.0420    0.3700   21.5280 C   0  0  0  0  0  0  0  0  0  0  0  0
   14.8781    0.0216   24.4183 C   0  0  0  0  0  0  0  0  0  0  0  0
    8.8720   -4.6805   26.9013 C   0  0  0  0  0  0  0  0  0  0  0  0
   10.0942    1.2904   23.6018 C   0  0  0  0  0  0  0  0  0  0  0  0
    8.1890   -0.7180   20.8700 C   0  0  0  0  0  0  0  0  0  0  0  0
   13.7670    1.6661   23.0484 N   0  0  0  0  0  0  0  0  0  0  0  0
    6.7580    0.3810   17.8350 N   0  0  0  0  0  0  0  0  0  0  0  0
    7.6390   -0.2680   18.5410 N   0  0  0  0  0  0  0  0  0  0  0  0
   13.6773    0.6591   23.9338 N   0  0  0  0  0  0  0  0  0  0  0  0
    9.4560    0.1560   22.8130 N   0  0  0  0  0  0  0  0  0  0  0  0
    9.2690    1.4140   20.9380 O   0  0  0  0  0  0  0  0  0  0  0  0
    9.2555   -4.7124   25.5274 O   0  0  0  0  0  0  0  0  0  0  0  0
    3.6562    2.0083   21.6780 H   0  0  0  0  0  0  0  0  0  0  0  0
    3.0225    2.6465   19.3867 H   0  0  0  0  0  0  0  0  0  0  0  0
    5.7084    0.6884   22.1515 H   0  0  0  0  0  0  0  0  0  0  0  0
    4.3943    1.9831   17.4240 H   0  0  0  0  0  0  0  0  0  0  0  0
    8.9221   -0.1995   25.4231 H   0  0  0  0  0  0  0  0  0  0  0  0
   10.0642   -2.2347   21.8253 H   0  0  0  0  0  0  0  0  0  0  0  0
    8.6902   -2.3588   26.5805 H   0  0  0  0  0  0  0  0  0  0  0  0
    9.9254   -4.3921   22.9961 H   0  0  0  0  0  0  0  0  0  0  0  0
   12.2703    2.8015   22.1479 H   0  0  0  0  0  0  0  0  0  0  0  0
   12.1727   -0.4435   24.9890 H   0  0  0  0  0  0  0  0  0  0  0  0
   15.1116   -0.8107   23.7491 H   0  0  0  0  0  0  0  0  0  0  0  0
   15.6969    0.7464   24.4271 H   0  0  0  0  0  0  0  0  0  0  0  0
   14.7094   -0.3405   25.4363 H   0  0  0  0  0  0  0  0  0  0  0  0
    8.8711   -5.6964   27.3038 H   0  0  0  0  0  0  0  0  0  0  0  0
    7.8758   -4.2402   26.9923 H   0  0  0  0  0  0  0  0  0  0  0  0
    9.5894   -4.0716   27.4566 H   0  0  0  0  0  0  0  0  0  0  0  0
    9.7199    1.2416   24.6302 H   0  0  0  0  0  0  0  0  0  0  0  0
    9.7461    2.2363   23.1736 H   0  0  0  0  0  0  0  0  0  0  0  0
    7.6090   -1.2088   21.6628 H   0  0  0  0  0  0  0  0  0  0  0  0
    8.8730   -1.4654   20.4463 H   0  0  0  0  0  0  0  0  0  0  0  0
    8.3933   -0.7388   18.1198 H   0  0  0  0  0  0  0  0  0  0  0  0
  1  2  1  0  0  0  0
  1  3  2  0  0  0  0
  2  4  2  0  0  0  0
  3 11  1  0  0  0  0
  4 13  1  0  0  0  0
  5  7  2  0  0  0  0
  5 14  1  0  0  0  0
  6  8  1  0  0  0  0
  6 14  2  0  0  0  0
  7 15  1  0  0  0  0
  8 15  2  0  0  0  0
  9 12  1  0  0  0  0
  9 22  2  0  0  0  0
 10 12  2  0  0  0  0
 10 25  1  0  0  0  0
 11 13  1  0  0  0  0
 11 16  2  0  0  0  0
 12 20  1  0  0  0  0
 13 23  2  0  0  0  0
 14 26  1  0  0  0  0
 15 28  1  0  0  0  0
 16 21  1  0  0  0  0
 16 24  1  0  0  0  0
 17 21  1  0  0  0  0
 17 26  1  0  0  0  0
 17 27  2  0  0  0  0
 18 25  1  0  0  0  0
 19 28  1  0  0  0  0
 20 26  1  0  0  0  0
 22 25  1  0  0  0  0
 23 24  1  0  0  0  0
  1 29  1  0  0  0  0
  2 30  1  0  0  0  0
  3 31  1  0  0  0  0
  4 32  1  0  0  0  0
  5 33  1  0  0  0  0
  6 34  1  0  0  0  0
  7 35  1  0  0  0  0
  8 36  1  0  0  0  0
  9 37  1  0  0  0  0
 10 38  1  0  0  0  0
 18 39  1  0  0  0  0
 18 40  1  0  0  0  0
 18 41  1  0  0  0  0
 19 42  1  0  0  0  0
 19 43  1  0  0  0  0
 19 44  1  0  0  0  0
 20 45  1  0  0  0  0
 20 46  1  0  0  0  0
 21 47  1  0  0  0  0
 21 48  1  0  0  0  0
 24 49  1  0  0  0  0
M  END
> <clash_score>
0

> <docking_score>
-8.501773834228516

> <overlap_score>
0.9631112217903137

$$$$
BENZO_410_1
  -OEChem-08232013473D

 49 52  0     0  0  0  0  0  0999 V2000
    4.2750    1.7050   20.8490 C   0  0  0  0  0  0  0  0  0  0  0  0
    3.9160    2.0630   19.5520 C   0  0  0  0  0  0  0  0  0  0  0  0
   13.7196    2.0044   22.7545 C   0  0  0  0  0  0  0  0  0  0  0  0
    5.4210    0.9600   21.0930 C   0  0  0  0  0  0  0  0  0  0  0  0
   12.3269    2.0795   22.7747 C   0  0  0  0  0  0  0  0  0  0  0  0
    4.6890    1.6810   18.4640 C   0  0  0  0  0  0  0  0  0  0  0  0
    9.0720   -1.1280   24.8640 C   0  0  0  0  0  0  0  0  0  0  0  0
    9.7200   -2.2600   22.8630 C   0  0  0  0  0  0  0  0  0  0  0  0
    8.9960   -2.3380   25.5320 C   0  0  0  0  0  0  0  0  0  0  0  0
    9.6730   -3.4710   23.5300 C   0  0  0  0  0  0  0  0  0  0  0  0
   14.3785    1.0580   23.5393 C   0  0  0  0  0  0  0  0  0  0  0  0
   12.2520    0.2618   24.3645 C   0  0  0  0  0  0  0  0  0  0  0  0
    6.1790    0.5730   19.9990 C   0  0  0  0  0  0  0  0  0  0  0  0
   11.5931    1.2082   23.5797 C   0  0  0  0  0  0  0  0  0  0  0  0
    5.8300    0.9190   18.6970 C   0  0  0  0  0  0  0  0  0  0  0  0
    9.3350   -1.0880   23.5010 C   0  0  0  0  0  0  0  0  0  0  0  0
    9.3070   -3.5340   24.8780 C   0  0  0  0  0  0  0  0  0  0  0  0
   13.6447    0.1868   24.3443 C   0  0  0  0  0  0  0  0  0  0  0  0
    7.3170   -0.1610   19.8550 C   0  0  0  0  0  0  0  0  0  0  0  0
    9.0420    0.3700   21.5280 C   0  0  0  0  0  0  0  0  0  0  0  0
    9.5894   -5.8809   24.7798 C   0  0  0  0  0  0  0  0  0  0  0  0
   10.0942    1.2904   23.6018 C   0  0  0  0  0  0  0  0  0  0  0  0
    8.1890   -0.7180   20.8700 C   0  0  0  0  0  0  0  0  0  0  0  0
    6.7580    0.3810   17.8350 N   0  0  0  0  0  0  0  0  0  0  0  0
    7.6390   -0.2680   18.5410 N   0  0  0  0  0  0  0  0  0  0  0  0
    9.4560    0.1560   22.8130 N   0  0  0  0  0  0  0  0  0  0  0  0
    9.2690    1.4140   20.9380 O   0  0  0  0  0  0  0  0  0  0  0  0
    9.2555   -4.7124   25.5274 O   0  0  0  0  0  0  0  0  0  0  0  0
   14.4582   -0.9799   25.3133 Cl  0  0  0  0  0  0  0  0  0  0  0  0
    3.6562    2.0083   21.6780 H   0  0  0  0  0  0  0  0  0  0  0  0
    3.0225    2.6465   19.3867 H   0  0  0  0  0  0  0  0  0  0  0  0
   14.2907    2.6832   22.1276 H   0  0  0  0  0  0  0  0  0  0  0  0
    5.7084    0.6884   22.1515 H   0  0  0  0  0  0  0  0  0  0  0  0
   11.8219    2.8201   22.1600 H   0  0  0  0  0  0  0  0  0  0  0  0
    4.3943    1.9831   17.4240 H   0  0  0  0  0  0  0  0  0  0  0  0
    8.9221   -0.1995   25.4231 H   0  0  0  0  0  0  0  0  0  0  0  0
   10.0642   -2.2347   21.8253 H   0  0  0  0  0  0  0  0  0  0  0  0
    8.6902   -2.3588   26.5805 H   0  0  0  0  0  0  0  0  0  0  0  0
    9.9254   -4.3921   22.9961 H   0  0  0  0  0  0  0  0  0  0  0  0
   15.4644    1.0112   23.5138 H   0  0  0  0  0  0  0  0  0  0  0  0
   11.6753   -0.4156   24.9901 H   0  0  0  0  0  0  0  0  0  0  0  0
    9.5074   -6.7611   25.4222 H   0  0  0  0  0  0  0  0  0  0  0  0
   10.6088   -5.7902   24.3963 H   0  0  0  0  0  0  0  0  0  0  0  0
    8.8944   -5.9778   23.9424 H   0  0  0  0  0  0  0  0  0  0  0  0
    9.7199    1.2416   24.6302 H   0  0  0  0  0  0  0  0  0  0  0  0
    9.7461    2.2363   23.1736 H   0  0  0  0  0  0  0  0  0  0  0  0
    7.6090   -1.2088   21.6628 H   0  0  0  0  0  0  0  0  0  0  0  0
    8.8730   -1.4654   20.4463 H   0  0  0  0  0  0  0  0  0  0  0  0
    8.3933   -0.7388   18.1198 H   0  0  0  0  0  0  0  0  0  0  0  0
  1  2  1  0  0  0  0
  1  4  2  0  0  0  0
  2  6  2  0  0  0  0
  3  5  2  0  0  0  0
  3 11  1  0  0  0  0
  4 13  1  0  0  0  0
  5 14  1  0  0  0  0
  6 15  1  0  0  0  0
  7  9  2  0  0  0  0
  7 16  1  0  0  0  0
  8 10  1  0  0  0  0
  8 16  2  0  0  0  0
  9 17  1  0  0  0  0
 10 17  2  0  0  0  0
 11 18  2  0  0  0  0
 12 14  2  0  0  0  0
 12 18  1  0  0  0  0
 13 15  1  0  0  0  0
 13 19  2  0  0  0  0
 14 22  1  0  0  0  0
 15 24  2  0  0  0  0
 16 26  1  0  0  0  0
 17 28  1  0  0  0  0
 18 29  1  0  0  0  0
 19 23  1  0  0  0  0
 19 25  1  0  0  0  0
 20 23  1  0  0  0  0
 20 26  1  0  0  0  0
 20 27  2  0  0  0  0
 21 28  1  0  0  0  0
 22 26  1  0  0  0  0
 24 25  1  0  0  0  0
  1 30  1  0  0  0  0
  2 31  1  0  0  0  0
  3 32  1  0  0  0  0
  4 33  1  0  0  0  0
  5 34  1  0  0  0  0
  6 35  1  0  0  0  0
  7 36  1  0  0  0  0
  8 37  1  0  0  0  0
  9 38  1  0  0  0  0
 10 39  1  0  0  0  0
 11 40  1  0  0  0  0
 12 41  1  0  0  0  0
 21 42  1  0  0  0  0
 21 43  1  0  0  0  0
 21 44  1  0  0  0  0
 22 45  1  0  0  0  0
 22 46  1  0  0  0  0
 23 47  1  0  0  0  0
 23 48  1  0  0  0  0
 25 49  1  0  0  0  0
M  END
> <clash_score>
0.739407045306671

> <docking_score>
-7.791079521179199

> <overlap_score>
0.9685326814651489

$$$$
BENZO_413_1
  -OEChem-08232013473D

 59 63  0     0  0  0  0  0  0999 V2000
   14.2723    1.3590   23.9041 C   0  0  0  0  0  0  0  0  0  0  0  0
    4.2750    1.7050   20.8490 C   0  0  0  0  0  0  0  0  0  0  0  0
   13.5225    0.6658   24.8543 C   0  0  0  0  0  0  0  0  0  0  0  0
   13.6300    2.0357   22.8672 C   0  0  0  0  0  0  0  0  0  0  0  0
    3.9160    2.0630   19.5520 C   0  0  0  0  0  0  0  0  0  0  0  0
    5.4210    0.9600   21.0930 C   0  0  0  0  0  0  0  0  0  0  0  0
   12.1304    0.6493   24.7676 C   0  0  0  0  0  0  0  0  0  0  0  0
   12.2379    2.0193   22.7805 C   0  0  0  0  0  0  0  0  0  0  0  0
    4.6890    1.6810   18.4640 C   0  0  0  0  0  0  0  0  0  0  0  0
    8.9960   -2.3380   25.5320 C   0  0  0  0  0  0  0  0  0  0  0  0
    9.6730   -3.4710   23.5300 C   0  0  0  0  0  0  0  0  0  0  0  0
    9.0720   -1.1280   24.8640 C   0  0  0  0  0  0  0  0  0  0  0  0
    9.7200   -2.2600   22.8630 C   0  0  0  0  0  0  0  0  0  0  0  0
    6.1790    0.5730   19.9990 C   0  0  0  0  0  0  0  0  0  0  0  0
   11.4881    1.3261   23.7307 C   0  0  0  0  0  0  0  0  0  0  0  0
    5.8300    0.9190   18.6970 C   0  0  0  0  0  0  0  0  0  0  0  0
    9.3070   -3.5340   24.8780 C   0  0  0  0  0  0  0  0  0  0  0  0
    9.3350   -1.0880   23.5010 C   0  0  0  0  0  0  0  0  0  0  0  0
    7.3170   -0.1610   19.8550 C   0  0  0  0  0  0  0  0  0  0  0  0
    8.3597   -5.0073   26.6307 C   0  0  0  0  0  0  0  0  0  0  0  0
    9.0420    0.3700   21.5280 C   0  0  0  0  0  0  0  0  0  0  0  0
    8.4720   -6.3981   27.2296 C   0  0  0  0  0  0  0  0  0  0  0  0
    9.9252   -6.7605   27.4803 C   0  0  0  0  0  0  0  0  0  0  0  0
   10.7833   -6.6094   26.2282 C   0  0  0  0  0  0  0  0  0  0  0  0
   10.0539   -5.9099   25.0823 C   0  0  0  0  0  0  0  0  0  0  0  0
    9.9898    1.3085   23.6366 C   0  0  0  0  0  0  0  0  0  0  0  0
    8.1890   -0.7180   20.8700 C   0  0  0  0  0  0  0  0  0  0  0  0
    6.7580    0.3810   17.8350 N   0  0  0  0  0  0  0  0  0  0  0  0
    7.6390   -0.2680   18.5410 N   0  0  0  0  0  0  0  0  0  0  0  0
    9.2529   -4.7797   25.5644 N   0  0  0  0  0  0  0  0  0  0  0  0
    9.4560    0.1560   22.8130 N   0  0  0  0  0  0  0  0  0  0  0  0
    7.4954   -4.2356   27.0449 O   0  0  0  0  0  0  0  0  0  0  0  0
    9.2690    1.4140   20.9380 O   0  0  0  0  0  0  0  0  0  0  0  0
   15.3561    1.3728   23.9725 H   0  0  0  0  0  0  0  0  0  0  0  0
    3.6562    2.0083   21.6780 H   0  0  0  0  0  0  0  0  0  0  0  0
   14.0223    0.1397   25.6624 H   0  0  0  0  0  0  0  0  0  0  0  0
   14.2134    2.5764   22.1278 H   0  0  0  0  0  0  0  0  0  0  0  0
    3.0225    2.6465   19.3867 H   0  0  0  0  0  0  0  0  0  0  0  0
    5.7084    0.6884   22.1515 H   0  0  0  0  0  0  0  0  0  0  0  0
   11.5543    0.1064   25.5124 H   0  0  0  0  0  0  0  0  0  0  0  0
   11.7461    2.5493   21.9691 H   0  0  0  0  0  0  0  0  0  0  0  0
    4.3943    1.9831   17.4240 H   0  0  0  0  0  0  0  0  0  0  0  0
    8.6895   -2.3529   26.5807 H   0  0  0  0  0  0  0  0  0  0  0  0
    9.9262   -4.3897   22.9916 H   0  0  0  0  0  0  0  0  0  0  0  0
    8.9224   -0.1998   25.4238 H   0  0  0  0  0  0  0  0  0  0  0  0
   10.0649   -2.2343   21.8258 H   0  0  0  0  0  0  0  0  0  0  0  0
    7.9325   -6.4148   28.1641 H   0  0  0  0  0  0  0  0  0  0  0  0
    8.0254   -7.0920   26.5333 H   0  0  0  0  0  0  0  0  0  0  0  0
   10.3387   -6.1267   28.2923 H   0  0  0  0  0  0  0  0  0  0  0  0
    9.9904   -7.8023   27.8537 H   0  0  0  0  0  0  0  0  0  0  0  0
   11.7037   -6.0404   26.4771 H   0  0  0  0  0  0  0  0  0  0  0  0
   11.1411   -7.6068   25.8918 H   0  0  0  0  0  0  0  0  0  0  0  0
   10.7782   -5.5162   24.3756 H   0  0  0  0  0  0  0  0  0  0  0  0
    9.4042   -6.6189   24.5807 H   0  0  0  0  0  0  0  0  0  0  0  0
    9.5411    1.2412   24.6337 H   0  0  0  0  0  0  0  0  0  0  0  0
    9.6144    2.2265   23.1724 H   0  0  0  0  0  0  0  0  0  0  0  0
    7.5972   -1.2056   21.6500 H   0  0  0  0  0  0  0  0  0  0  0  0
    8.8612   -1.4622   20.4334 H   0  0  0  0  0  0  0  0  0  0  0  0
    8.3933   -0.7388   18.1198 H   0  0  0  0  0  0  0  0  0  0  0  0
  1  3  1  0  0  0  0
  1  4  2  0  0  0  0
  2  5  1  0  0  0  0
  2  6  2  0  0  0  0
  3  7  2  0  0  0  0
  4  8  1  0  0  0  0
  5  9  2  0  0  0  0
  6 14  1  0  0  0  0
  7 15  1  0  0  0  0
  8 15  2  0  0  0  0
  9 16  1  0  0  0  0
 10 12  2  0  0  0  0
 10 17  1  0  0  0  0
 11 13  1  0  0  0  0
 11 17  2  0  0  0  0
 12 18  1  0  0  0  0
 13 18  2  0  0  0  0
 14 16  1  0  0  0  0
 14 19  2  0  0  0  0
 15 26  1  0  0  0  0
 16 28  2  0  0  0  0
 17 30  1  0  0  0  0
 18 31  1  0  0  0  0
 19 27  1  0  0  0  0
 19 29  1  0  0  0  0
 20 22  1  0  0  0  0
 20 30  1  0  0  0  0
 20 32  2  0  0  0  0
 21 27  1  0  0  0  0
 21 31  1  0  0  0  0
 21 33  2  0  0  0  0
 22 23  1  0  0  0  0
 23 24  1  0  0  0  0
 24 25  1  0  0  0  0
 25 30  1  0  0  0  0
 26 31  1  0  0  0  0
 28 29  1  0  0  0  0
  1 34  1  0  0  0  0
  2 35  1  0  0  0  0
  3 36  1  0  0  0  0
  4 37  1  0  0  0  0
  5 38  1  0  0  0  0
  6 39  1  0  0  0  0
  7 40  1  0  0  0  0
  8 41  1  0  0  0  0
  9 42  1  0  0  0  0
 10 43  1  0  0  0  0
 11 44  1  0  0  0  0
 12 45  1  0  0  0  0
 13 46  1  0  0  0  0
 22 47  1  0  0  0  0
 22 48  1  0  0  0  0
 23 49  1  0  0  0  0
 23 50  1  0  0  0  0
 24 51  1  0  0  0  0
 24 52  1  0  0  0  0
 25 53  1  0  0  0  0
 25 54  1  0  0  0  0
 26 55  1  0  0  0  0
 26 56  1  0  0  0  0
 27 57  1  0  0  0  0
 27 58  1  0  0  0  0
 29 59  1  0  0  0  0
M  END
> <clash_score>
0.7790751876189459

> <docking_score>
-8.148672103881836

> <overlap_score>
1.0036615133285522

$$$$
BENZO_412_1
  -OEChem-08232013473D

 56 60  0     0  0  0  0  0  0999 V2000
    4.2750    1.7050   20.8490 C   0  0  0  0  0  0  0  0  0  0  0  0
    3.9160    2.0630   19.5520 C   0  0  0  0  0  0  0  0  0  0  0  0
    5.4210    0.9600   21.0930 C   0  0  0  0  0  0  0  0  0  0  0  0
    4.6890    1.6810   18.4640 C   0  0  0  0  0  0  0  0  0  0  0  0
    8.9960   -2.3380   25.5320 C   0  0  0  0  0  0  0  0  0  0  0  0
    9.6730   -3.4710   23.5300 C   0  0  0  0  0  0  0  0  0  0  0  0
    9.0720   -1.1280   24.8640 C   0  0  0  0  0  0  0  0  0  0  0  0
    9.7200   -2.2600   22.8630 C   0  0  0  0  0  0  0  0  0  0  0  0
   12.3542    1.4078   22.6022 C   0  0  0  0  0  0  0  0  0  0  0  0
   13.6822    1.4056   22.9680 C   0  0  0  0  0  0  0  0  0  0  0  0
   12.1874    1.2641   24.9161 C   0  0  0  0  0  0  0  0  0  0  0  0
    6.1790    0.5730   19.9990 C   0  0  0  0  0  0  0  0  0  0  0  0
   11.4881    1.3261   23.7307 C   0  0  0  0  0  0  0  0  0  0  0  0
    5.8300    0.9190   18.6970 C   0  0  0  0  0  0  0  0  0  0  0  0
    9.3070   -3.5340   24.8780 C   0  0  0  0  0  0  0  0  0  0  0  0
    9.3350   -1.0880   23.5010 C   0  0  0  0  0  0  0  0  0  0  0  0
    7.3170   -0.1610   19.8550 C   0  0  0  0  0  0  0  0  0  0  0  0
    8.3596   -5.0074   26.6308 C   0  0  0  0  0  0  0  0  0  0  0  0
    9.0420    0.3700   21.5280 C   0  0  0  0  0  0  0  0  0  0  0  0
    8.4579   -6.4047   27.2169 C   0  0  0  0  0  0  0  0  0  0  0  0
    8.4717   -7.4504   26.1159 C   0  0  0  0  0  0  0  0  0  0  0  0
    9.5645   -7.1893   25.0842 C   0  0  0  0  0  0  0  0  0  0  0  0
   10.2327   -5.8252   25.2501 C   0  0  0  0  0  0  0  0  0  0  0  0
    9.9898    1.3085   23.6366 C   0  0  0  0  0  0  0  0  0  0  0  0
    8.1890   -0.7180   20.8700 C   0  0  0  0  0  0  0  0  0  0  0  0
    6.7580    0.3810   17.8350 N   0  0  0  0  0  0  0  0  0  0  0  0
    7.6390   -0.2680   18.5410 N   0  0  0  0  0  0  0  0  0  0  0  0
    9.2529   -4.7798   25.5645 N   0  0  0  0  0  0  0  0  0  0  0  0
    9.4560    0.1560   22.8130 N   0  0  0  0  0  0  0  0  0  0  0  0
    7.5990   -4.1865   27.1424 O   0  0  0  0  0  0  0  0  0  0  0  0
    9.2690    1.4140   20.9380 O   0  0  0  0  0  0  0  0  0  0  0  0
   13.8809    1.3050   24.6659 S   0  0  0  0  0  0  0  0  0  0  0  0
    3.6562    2.0083   21.6780 H   0  0  0  0  0  0  0  0  0  0  0  0
    3.0225    2.6465   19.3867 H   0  0  0  0  0  0  0  0  0  0  0  0
    5.7084    0.6884   22.1515 H   0  0  0  0  0  0  0  0  0  0  0  0
    4.3943    1.9831   17.4240 H   0  0  0  0  0  0  0  0  0  0  0  0
    8.6895   -2.3529   26.5807 H   0  0  0  0  0  0  0  0  0  0  0  0
    9.9262   -4.3897   22.9916 H   0  0  0  0  0  0  0  0  0  0  0  0
    8.9224   -0.1998   25.4238 H   0  0  0  0  0  0  0  0  0  0  0  0
   10.0649   -2.2343   21.8258 H   0  0  0  0  0  0  0  0  0  0  0  0
   12.0240    1.4652   21.5727 H   0  0  0  0  0  0  0  0  0  0  0  0
   14.5454    1.4574   22.3195 H   0  0  0  0  0  0  0  0  0  0  0  0
   11.7888    1.1956   25.9188 H   0  0  0  0  0  0  0  0  0  0  0  0
    9.3706   -6.4745   27.7885 H   0  0  0  0  0  0  0  0  0  0  0  0
    7.6055   -6.5497   27.8636 H   0  0  0  0  0  0  0  0  0  0  0  0
    8.6095   -8.4604   26.5550 H   0  0  0  0  0  0  0  0  0  0  0  0
    7.4835   -7.4763   25.6142 H   0  0  0  0  0  0  0  0  0  0  0  0
   10.3359   -7.9850   25.1531 H   0  0  0  0  0  0  0  0  0  0  0  0
    9.1458   -7.2796   24.0582 H   0  0  0  0  0  0  0  0  0  0  0  0
   10.9408   -5.8640   26.0725 H   0  0  0  0  0  0  0  0  0  0  0  0
   10.7521   -5.5631   24.3347 H   0  0  0  0  0  0  0  0  0  0  0  0
    9.5411    1.2412   24.6337 H   0  0  0  0  0  0  0  0  0  0  0  0
    9.6144    2.2265   23.1724 H   0  0  0  0  0  0  0  0  0  0  0  0
    7.5972   -1.2056   21.6500 H   0  0  0  0  0  0  0  0  0  0  0  0
    8.8612   -1.4622   20.4334 H   0  0  0  0  0  0  0  0  0  0  0  0
    8.3933   -0.7388   18.1198 H   0  0  0  0  0  0  0  0  0  0  0  0
  1  2  1  0  0  0  0
  1  3  2  0  0  0  0
  2  4  2  0  0  0  0
  3 12  1  0  0  0  0
  4 14  1  0  0  0  0
  5  7  2  0  0  0  0
  5 15  1  0  0  0  0
  6  8  1  0  0  0  0
  6 15  2  0  0  0  0
  7 16  1  0  0  0  0
  8 16  2  0  0  0  0
  9 10  2  0  0  0  0
  9 13  1  0  0  0  0
 10 32  1  0  0  0  0
 11 13  2  0  0  0  0
 11 32  1  0  0  0  0
 12 14  1  0  0  0  0
 12 17  2  0  0  0  0
 13 24  1  0  0  0  0
 14 26  2  0  0  0  0
 15 28  1  0  0  0  0
 16 29  1  0  0  0  0
 17 25  1  0  0  0  0
 17 27  1  0  0  0  0
 18 20  1  0  0  0  0
 18 28  1  0  0  0  0
 18 30  2  0  0  0  0
 19 25  1  0  0  0  0
 19 29  1  0  0  0  0
 19 31  2  0  0  0  0
 20 21  1  0  0  0  0
 21 22  1  0  0  0  0
 22 23  1  0  0  0  0
 23 28  1  0  0  0  0
 24 29  1  0  0  0  0
 26 27  1  0  0  0  0
  1 33  1  0  0  0  0
  2 34  1  0  0  0  0
  3 35  1  0  0  0  0
  4 36  1  0  0  0  0
  5 37  1  0  0  0  0
  6 38  1  0  0  0  0
  7 39  1  0  0  0  0
  8 40  1  0  0  0  0
  9 41  1  0  0  0  0
 10 42  1  0  0  0  0
 11 43  1  0  0  0  0
 20 44  1  0  0  0  0
 20 45  1  0  0  0  0
 21 46  1  0  0  0  0
 21 47  1  0  0  0  0
 22 48  1  0  0  0  0
 22 49  1  0  0  0  0
 23 50  1  0  0  0  0
 23 51  1  0  0  0  0
 24 52  1  0  0  0  0
 24 53  1  0  0  0  0
 25 54  1  0  0  0  0
 25 55  1  0  0  0  0
 27 56  1  0  0  0  0
M  END
> <clash_score>
0.6354466317061015

> <docking_score>
-8.102131843566895

> <overlap_score>
0.98652583360672

$$$$
BENZO_417_1
  -OEChem-08232013473D

 58 62  0     0  0  0  0  0  0999 V2000
   14.2720    1.3593   23.9077 C   0  0  0  0  0  0  0  0  0  0  0  0
    4.2750    1.7050   20.8490 C   0  0  0  0  0  0  0  0  0  0  0  0
   13.5215    0.6664   24.8575 C   0  0  0  0  0  0  0  0  0  0  0  0
   13.6306    2.0358   22.8701 C   0  0  0  0  0  0  0  0  0  0  0  0
    3.9160    2.0630   19.5520 C   0  0  0  0  0  0  0  0  0  0  0  0
    5.4210    0.9600   21.0930 C   0  0  0  0  0  0  0  0  0  0  0  0
   12.1295    0.6498   24.7696 C   0  0  0  0  0  0  0  0  0  0  0  0
   12.2386    2.0192   22.7822 C   0  0  0  0  0  0  0  0  0  0  0  0
    4.6890    1.6810   18.4640 C   0  0  0  0  0  0  0  0  0  0  0  0
    8.9960   -2.3380   25.5320 C   0  0  0  0  0  0  0  0  0  0  0  0
    9.6730   -3.4710   23.5300 C   0  0  0  0  0  0  0  0  0  0  0  0
    9.0720   -1.1280   24.8640 C   0  0  0  0  0  0  0  0  0  0  0  0
    9.7200   -2.2600   22.8630 C   0  0  0  0  0  0  0  0  0  0  0  0
    6.1790    0.5730   19.9990 C   0  0  0  0  0  0  0  0  0  0  0  0
   11.4880    1.3262   23.7320 C   0  0  0  0  0  0  0  0  0  0  0  0
    5.8300    0.9190   18.6970 C   0  0  0  0  0  0  0  0  0  0  0  0
    9.3070   -3.5340   24.8780 C   0  0  0  0  0  0  0  0  0  0  0  0
    9.3350   -1.0880   23.5010 C   0  0  0  0  0  0  0  0  0  0  0  0
    7.3170   -0.1610   19.8550 C   0  0  0  0  0  0  0  0  0  0  0  0
    9.0420    0.3700   21.5280 C   0  0  0  0  0  0  0  0  0  0  0  0
   10.0771   -5.0255   26.7193 C   0  0  0  0  0  0  0  0  0  0  0  0
    8.0927   -5.6195   25.4071 C   0  0  0  0  0  0  0  0  0  0  0  0
    9.1933   -4.9427   27.9592 C   0  0  0  0  0  0  0  0  0  0  0  0
    7.2756   -5.5290   26.6967 C   0  0  0  0  0  0  0  0  0  0  0  0
    9.9898    1.3085   23.6366 C   0  0  0  0  0  0  0  0  0  0  0  0
    8.1890   -0.7180   20.8700 C   0  0  0  0  0  0  0  0  0  0  0  0
    6.7580    0.3810   17.8350 N   0  0  0  0  0  0  0  0  0  0  0  0
    7.6390   -0.2680   18.5410 N   0  0  0  0  0  0  0  0  0  0  0  0
    9.2563   -4.7368   25.5413 N   0  0  0  0  0  0  0  0  0  0  0  0
    9.4560    0.1560   22.8130 N   0  0  0  0  0  0  0  0  0  0  0  0
    9.2690    1.4140   20.9380 O   0  0  0  0  0  0  0  0  0  0  0  0
    8.0883   -5.8459   27.8325 O   0  0  0  0  0  0  0  0  0  0  0  0
   15.3558    1.3733   23.9771 H   0  0  0  0  0  0  0  0  0  0  0  0
    3.6562    2.0083   21.6780 H   0  0  0  0  0  0  0  0  0  0  0  0
   14.0207    0.1405   25.6662 H   0  0  0  0  0  0  0  0  0  0  0  0
   14.2146    2.5763   22.1311 H   0  0  0  0  0  0  0  0  0  0  0  0
    3.0225    2.6465   19.3867 H   0  0  0  0  0  0  0  0  0  0  0  0
    5.7084    0.6884   22.1515 H   0  0  0  0  0  0  0  0  0  0  0  0
   11.5528    0.1071   25.5140 H   0  0  0  0  0  0  0  0  0  0  0  0
   11.7475    2.5489   21.9702 H   0  0  0  0  0  0  0  0  0  0  0  0
    4.3943    1.9831   17.4240 H   0  0  0  0  0  0  0  0  0  0  0  0
    8.6905   -2.3533   26.5810 H   0  0  0  0  0  0  0  0  0  0  0  0
    9.9266   -4.3896   22.9917 H   0  0  0  0  0  0  0  0  0  0  0  0
    8.9233   -0.1992   25.4232 H   0  0  0  0  0  0  0  0  0  0  0  0
   10.0650   -2.2330   21.8256 H   0  0  0  0  0  0  0  0  0  0  0  0
   10.8985   -4.3115   26.8085 H   0  0  0  0  0  0  0  0  0  0  0  0
   10.4915   -6.0334   26.6323 H   0  0  0  0  0  0  0  0  0  0  0  0
    8.4327   -6.6456   25.2620 H   0  0  0  0  0  0  0  0  0  0  0  0
    7.4725   -5.3241   24.5619 H   0  0  0  0  0  0  0  0  0  0  0  0
    9.7636   -5.2398   28.8419 H   0  0  0  0  0  0  0  0  0  0  0  0
    8.8236   -3.9268   28.1248 H   0  0  0  0  0  0  0  0  0  0  0  0
    6.8339   -4.5337   26.8232 H   0  0  0  0  0  0  0  0  0  0  0  0
    6.4550   -6.2521   26.6643 H   0  0  0  0  0  0  0  0  0  0  0  0
    9.5403    1.2398   24.6332 H   0  0  0  0  0  0  0  0  0  0  0  0
    9.6146    2.2271   23.1732 H   0  0  0  0  0  0  0  0  0  0  0  0
    7.5972   -1.2056   21.6500 H   0  0  0  0  0  0  0  0  0  0  0  0
    8.8612   -1.4622   20.4334 H   0  0  0  0  0  0  0  0  0  0  0  0
    8.3933   -0.7388   18.1198 H   0  0  0  0  0  0  0  0  0  0  0  0
  1  3  1  0  0  0  0
  1  4  2  0  0  0  0
  2  5  1  0  0  0  0
  2  6  2  0  0  0  0
  3  7  2  0  0  0  0
  4  8  1  0  0  0  0
  5  9  2  0  0  0  0
  6 14  1  0  0  0  0
  7 15  1  0  0  0  0
  8 15  2  0  0  0  0
  9 16  1  0  0  0  0
 10 12  2  0  0  0  0
 10 17  1  0  0  0  0
 11 13  1  0  0  0  0
 11 17  2  0  0  0  0
 12 18  1  0  0  0  0
 13 18  2  0  0  0  0
 14 16  1  0  0  0  0
 14 19  2  0  0  0  0
 15 25  1  0  0  0  0
 16 27  2  0  0  0  0
 17 29  1  0  0  0  0
 18 30  1  0  0  0  0
 19 26  1  0  0  0  0
 19 28  1  0  0  0  0
 20 26  1  0  0  0  0
 20 30  1  0  0  0  0
 20 31  2  0  0  0  0
 21 23  1  0  0  0  0
 21 29  1  0  0  0  0
 22 24  1  0  0  0  0
 22 29  1  0  0  0  0
 23 32  1  0  0  0  0
 24 32  1  0  0  0  0
 25 30  1  0  0  0  0
 27 28  1  0  0  0  0
  1 33  1  0  0  0  0
  2 34  1  0  0  0  0
  3 35  1  0  0  0  0
  4 36  1  0  0  0  0
  5 37  1  0  0  0  0
  6 38  1  0  0  0  0
  7 39  1  0  0  0  0
  8 40  1  0  0  0  0
  9 41  1  0  0  0  0
 10 42  1  0  0  0  0
 11 43  1  0  0  0  0
 12 44  1  0  0  0  0
 13 45  1  0  0  0  0
 21 46  1  0  0  0  0
 21 47  1  0  0  0  0
 22 48  1  0  0  0  0
 22 49  1  0  0  0  0
 23 50  1  0  0  0  0
 23 51  1  0  0  0  0
 24 52  1  0  0  0  0
 24 53  1  0  0  0  0
 25 54  1  0  0  0  0
 25 55  1  0  0  0  0
 26 56  1  0  0  0  0
 26 57  1  0  0  0  0
 28 58  1  0  0  0  0
M  END
> <clash_score>
0

> <docking_score>
-9.12552547454834

> <overlap_score>
0.9898089170455933

$$$$
BENZO_415_1
  -OEChem-08232013473D

 59 63  0     0  0  0  0  0  0999 V2000
    4.2750    1.7050   20.8490 C   0  0  0  0  0  0  0  0  0  0  0  0
    3.9160    2.0630   19.5520 C   0  0  0  0  0  0  0  0  0  0  0  0
    5.4210    0.9600   21.0930 C   0  0  0  0  0  0  0  0  0  0  0  0
    4.6890    1.6810   18.4640 C   0  0  0  0  0  0  0  0  0  0  0  0
    8.9960   -2.3380   25.5320 C   0  0  0  0  0  0  0  0  0  0  0  0
    9.6730   -3.4710   23.5300 C   0  0  0  0  0  0  0  0  0  0  0  0
    9.0720   -1.1280   24.8640 C   0  0  0  0  0  0  0  0  0  0  0  0
    9.7200   -2.2600   22.8630 C   0  0  0  0  0  0  0  0  0  0  0  0
   12.2814    1.2680   24.8922 C   0  0  0  0  0  0  0  0  0  0  0  0
   12.3931    1.3998   22.7001 C   0  0  0  0  0  0  0  0  0  0  0  0
    6.1790    0.5730   19.9990 C   0  0  0  0  0  0  0  0  0  0  0  0
   11.4881    1.3261   23.7307 C   0  0  0  0  0  0  0  0  0  0  0  0
    5.8300    0.9190   18.6970 C   0  0  0  0  0  0  0  0  0  0  0  0
    9.3070   -3.5340   24.8780 C   0  0  0  0  0  0  0  0  0  0  0  0
    9.3350   -1.0880   23.5010 C   0  0  0  0  0  0  0  0  0  0  0  0
    7.3170   -0.1610   19.8550 C   0  0  0  0  0  0  0  0  0  0  0  0
    8.3597   -5.0073   26.6307 C   0  0  0  0  0  0  0  0  0  0  0  0
    9.0420    0.3700   21.5280 C   0  0  0  0  0  0  0  0  0  0  0  0
    8.4720   -6.3981   27.2296 C   0  0  0  0  0  0  0  0  0  0  0  0
    9.9252   -6.7605   27.4803 C   0  0  0  0  0  0  0  0  0  0  0  0
   10.7833   -6.6094   26.2282 C   0  0  0  0  0  0  0  0  0  0  0  0
   10.0539   -5.9099   25.0823 C   0  0  0  0  0  0  0  0  0  0  0  0
   14.8966    1.4396   22.6032 C   0  0  0  0  0  0  0  0  0  0  0  0
    9.9898    1.3085   23.6366 C   0  0  0  0  0  0  0  0  0  0  0  0
    8.1890   -0.7180   20.8700 C   0  0  0  0  0  0  0  0  0  0  0  0
   13.5897    1.3018   24.6252 N   0  0  0  0  0  0  0  0  0  0  0  0
    6.7580    0.3810   17.8350 N   0  0  0  0  0  0  0  0  0  0  0  0
    7.6390   -0.2680   18.5410 N   0  0  0  0  0  0  0  0  0  0  0  0
   13.6254    1.3818   23.2842 N   0  0  0  0  0  0  0  0  0  0  0  0
    9.2529   -4.7797   25.5644 N   0  0  0  0  0  0  0  0  0  0  0  0
    9.4560    0.1560   22.8130 N   0  0  0  0  0  0  0  0  0  0  0  0
    7.4954   -4.2356   27.0449 O   0  0  0  0  0  0  0  0  0  0  0  0
    9.2690    1.4140   20.9380 O   0  0  0  0  0  0  0  0  0  0  0  0
    3.6562    2.0083   21.6780 H   0  0  0  0  0  0  0  0  0  0  0  0
    3.0225    2.6465   19.3867 H   0  0  0  0  0  0  0  0  0  0  0  0
    5.7084    0.6884   22.1515 H   0  0  0  0  0  0  0  0  0  0  0  0
    4.3943    1.9831   17.4240 H   0  0  0  0  0  0  0  0  0  0  0  0
    8.6895   -2.3529   26.5807 H   0  0  0  0  0  0  0  0  0  0  0  0
    9.9262   -4.3897   22.9916 H   0  0  0  0  0  0  0  0  0  0  0  0
    8.9224   -0.1998   25.4238 H   0  0  0  0  0  0  0  0  0  0  0  0
   10.0649   -2.2343   21.8258 H   0  0  0  0  0  0  0  0  0  0  0  0
   11.9631    1.2015   25.9229 H   0  0  0  0  0  0  0  0  0  0  0  0
   12.2682    1.4607   21.6275 H   0  0  0  0  0  0  0  0  0  0  0  0
    7.9325   -6.4148   28.1641 H   0  0  0  0  0  0  0  0  0  0  0  0
    8.0254   -7.0920   26.5333 H   0  0  0  0  0  0  0  0  0  0  0  0
   10.3387   -6.1267   28.2923 H   0  0  0  0  0  0  0  0  0  0  0  0
    9.9904   -7.8023   27.8537 H   0  0  0  0  0  0  0  0  0  0  0  0
   11.7037   -6.0404   26.4771 H   0  0  0  0  0  0  0  0  0  0  0  0
   11.1411   -7.6068   25.8918 H   0  0  0  0  0  0  0  0  0  0  0  0
   10.7782   -5.5162   24.3756 H   0  0  0  0  0  0  0  0  0  0  0  0
    9.4042   -6.6189   24.5807 H   0  0  0  0  0  0  0  0  0  0  0  0
   15.1796    2.4910   22.5059 H   0  0  0  0  0  0  0  0  0  0  0  0
   15.6459    0.8942   23.1838 H   0  0  0  0  0  0  0  0  0  0  0  0
   14.8000    0.9757   21.6176 H   0  0  0  0  0  0  0  0  0  0  0  0
    9.5411    1.2412   24.6337 H   0  0  0  0  0  0  0  0  0  0  0  0
    9.6144    2.2265   23.1724 H   0  0  0  0  0  0  0  0  0  0  0  0
    7.5972   -1.2056   21.6500 H   0  0  0  0  0  0  0  0  0  0  0  0
    8.8612   -1.4622   20.4334 H   0  0  0  0  0  0  0  0  0  0  0  0
    8.3933   -0.7388   18.1198 H   0  0  0  0  0  0  0  0  0  0  0  0
  1  2  1  0  0  0  0
  1  3  2  0  0  0  0
  2  4  2  0  0  0  0
  3 11  1  0  0  0  0
  4 13  1  0  0  0  0
  5  7  2  0  0  0  0
  5 14  1  0  0  0  0
  6  8  1  0  0  0  0
  6 14  2  0  0  0  0
  7 15  1  0  0  0  0
  8 15  2  0  0  0  0
  9 12  1  0  0  0  0
  9 26  2  0  0  0  0
 10 12  2  0  0  0  0
 10 29  1  0  0  0  0
 11 13  1  0  0  0  0
 11 16  2  0  0  0  0
 12 24  1  0  0  0  0
 13 27  2  0  0  0  0
 14 30  1  0  0  0  0
 15 31  1  0  0  0  0
 16 25  1  0  0  0  0
 16 28  1  0  0  0  0
 17 19  1  0  0  0  0
 17 30  1  0  0  0  0
 17 32  2  0  0  0  0
 18 25  1  0  0  0  0
 18 31  1  0  0  0  0
 18 33  2  0  0  0  0
 19 20  1  0  0  0  0
 20 21  1  0  0  0  0
 21 22  1  0  0  0  0
 22 30  1  0  0  0  0
 23 29  1  0  0  0  0
 24 31  1  0  0  0  0
 26 29  1  0  0  0  0
 27 28  1  0  0  0  0
  1 34  1  0  0  0  0
  2 35  1  0  0  0  0
  3 36  1  0  0  0  0
  4 37  1  0  0  0  0
  5 38  1  0  0  0  0
  6 39  1  0  0  0  0
  7 40  1  0  0  0  0
  8 41  1  0  0  0  0
  9 42  1  0  0  0  0
 10 43  1  0  0  0  0
 19 44  1  0  0  0  0
 19 45  1  0  0  0  0
 20 46  1  0  0  0  0
 20 47  1  0  0  0  0
 21 48  1  0  0  0  0
 21 49  1  0  0  0  0
 22 50  1  0  0  0  0
 22 51  1  0  0  0  0
 23 52  1  0  0  0  0
 23 53  1  0  0  0  0
 23 54  1  0  0  0  0
 24 55  1  0  0  0  0
 24 56  1  0  0  0  0
 25 57  1  0  0  0  0
 25 58  1  0  0  0  0
 28 59  1  0  0  0  0
M  END
> <clash_score>
0.7790751876189459

> <docking_score>
-7.9482526779174805

> <overlap_score>
0.9967290759086609

$$$$
BENZO_414_1
  -OEChem-08232013473D

 59 63  0     0  0  0  0  0  0999 V2000
    4.2750    1.7050   20.8490 C   0  0  0  0  0  0  0  0  0  0  0  0
    3.9160    2.0630   19.5520 C   0  0  0  0  0  0  0  0  0  0  0  0
   13.5359    0.4440   24.6609 C   0  0  0  0  0  0  0  0  0  0  0  0
    5.4210    0.9600   21.0930 C   0  0  0  0  0  0  0  0  0  0  0  0
   12.1439    0.4290   24.5739 C   0  0  0  0  0  0  0  0  0  0  0  0
    4.6890    1.6810   18.4640 C   0  0  0  0  0  0  0  0  0  0  0  0
    8.9960   -2.3380   25.5320 C   0  0  0  0  0  0  0  0  0  0  0  0
    9.6730   -3.4710   23.5300 C   0  0  0  0  0  0  0  0  0  0  0  0
    9.0720   -1.1280   24.8640 C   0  0  0  0  0  0  0  0  0  0  0  0
    9.7200   -2.2600   22.8630 C   0  0  0  0  0  0  0  0  0  0  0  0
   14.2722    1.3561   23.9048 C   0  0  0  0  0  0  0  0  0  0  0  0
   12.2244    2.2381   22.9745 C   0  0  0  0  0  0  0  0  0  0  0  0
    6.1790    0.5730   19.9990 C   0  0  0  0  0  0  0  0  0  0  0  0
   11.4881    1.3261   23.7307 C   0  0  0  0  0  0  0  0  0  0  0  0
    5.8300    0.9190   18.6970 C   0  0  0  0  0  0  0  0  0  0  0  0
    9.3070   -3.5340   24.8780 C   0  0  0  0  0  0  0  0  0  0  0  0
    9.3350   -1.0880   23.5010 C   0  0  0  0  0  0  0  0  0  0  0  0
   13.6165    2.2531   23.0616 C   0  0  0  0  0  0  0  0  0  0  0  0
    7.3170   -0.1610   19.8550 C   0  0  0  0  0  0  0  0  0  0  0  0
    8.3597   -5.0073   26.6307 C   0  0  0  0  0  0  0  0  0  0  0  0
    9.0420    0.3700   21.5280 C   0  0  0  0  0  0  0  0  0  0  0  0
    8.4720   -6.3981   27.2296 C   0  0  0  0  0  0  0  0  0  0  0  0
    9.9252   -6.7605   27.4803 C   0  0  0  0  0  0  0  0  0  0  0  0
   10.7833   -6.6094   26.2282 C   0  0  0  0  0  0  0  0  0  0  0  0
   10.0539   -5.9099   25.0823 C   0  0  0  0  0  0  0  0  0  0  0  0
    9.9898    1.3085   23.6366 C   0  0  0  0  0  0  0  0  0  0  0  0
    8.1890   -0.7180   20.8700 C   0  0  0  0  0  0  0  0  0  0  0  0
    6.7580    0.3810   17.8350 N   0  0  0  0  0  0  0  0  0  0  0  0
    7.6390   -0.2680   18.5410 N   0  0  0  0  0  0  0  0  0  0  0  0
    9.2529   -4.7797   25.5644 N   0  0  0  0  0  0  0  0  0  0  0  0
    9.4560    0.1560   22.8130 N   0  0  0  0  0  0  0  0  0  0  0  0
    7.4954   -4.2356   27.0449 O   0  0  0  0  0  0  0  0  0  0  0  0
    9.2690    1.4140   20.9380 O   0  0  0  0  0  0  0  0  0  0  0  0
   14.5255    3.3774   22.1281 Cl  0  0  0  0  0  0  0  0  0  0  0  0
    3.6562    2.0083   21.6780 H   0  0  0  0  0  0  0  0  0  0  0  0
    3.0225    2.6465   19.3867 H   0  0  0  0  0  0  0  0  0  0  0  0
   14.0462   -0.2547   25.3175 H   0  0  0  0  0  0  0  0  0  0  0  0
    5.7084    0.6884   22.1515 H   0  0  0  0  0  0  0  0  0  0  0  0
   11.5782   -0.2852   25.1666 H   0  0  0  0  0  0  0  0  0  0  0  0
    4.3943    1.9831   17.4240 H   0  0  0  0  0  0  0  0  0  0  0  0
    8.6895   -2.3529   26.5807 H   0  0  0  0  0  0  0  0  0  0  0  0
    9.9262   -4.3897   22.9916 H   0  0  0  0  0  0  0  0  0  0  0  0
    8.9224   -0.1998   25.4238 H   0  0  0  0  0  0  0  0  0  0  0  0
   10.0649   -2.2343   21.8258 H   0  0  0  0  0  0  0  0  0  0  0  0
   15.3567    1.3562   23.9825 H   0  0  0  0  0  0  0  0  0  0  0  0
   11.7084    2.9358   22.3190 H   0  0  0  0  0  0  0  0  0  0  0  0
    7.9325   -6.4148   28.1641 H   0  0  0  0  0  0  0  0  0  0  0  0
    8.0254   -7.0920   26.5333 H   0  0  0  0  0  0  0  0  0  0  0  0
   10.3387   -6.1267   28.2923 H   0  0  0  0  0  0  0  0  0  0  0  0
    9.9904   -7.8023   27.8537 H   0  0  0  0  0  0  0  0  0  0  0  0
   11.7037   -6.0404   26.4771 H   0  0  0  0  0  0  0  0  0  0  0  0
   11.1411   -7.6068   25.8918 H   0  0  0  0  0  0  0  0  0  0  0  0
   10.7782   -5.5162   24.3756 H   0  0  0  0  0  0  0  0  0  0  0  0
    9.4042   -6.6189   24.5807 H   0  0  0  0  0  0  0  0  0  0  0  0
    9.5411    1.2412   24.6337 H   0  0  0  0  0  0  0  0  0  0  0  0
    9.6144    2.2265   23.1724 H   0  0  0  0  0  0  0  0  0  0  0  0
    7.5972   -1.2056   21.6500 H   0  0  0  0  0  0  0  0  0  0  0  0
    8.8612   -1.4622   20.4334 H   0  0  0  0  0  0  0  0  0  0  0  0
    8.3933   -0.7388   18.1198 H   0  0  0  0  0  0  0  0  0  0  0  0
  1  2  1  0  0  0  0
  1  4  2  0  0  0  0
  2  6  2  0  0  0  0
  3  5  2  0  0  0  0
  3 11  1  0  0  0  0
  4 13  1  0  0  0  0
  5 14  1  0  0  0  0
  6 15  1  0  0  0  0
  7  9  2  0  0  0  0
  7 16  1  0  0  0  0
  8 10  1  0  0  0  0
  8 16  2  0  0  0  0
  9 17  1  0  0  0  0
 10 17  2  0  0  0  0
 11 18  2  0  0  0  0
 12 14  2  0  0  0  0
 12 18  1  0  0  0  0
 13 15  1  0  0  0  0
 13 19  2  0  0  0  0
 14 26  1  0  0  0  0
 15 28  2  0  0  0  0
 16 30  1  0  0  0  0
 17 31  1  0  0  0  0
 18 34  1  0  0  0  0
 19 27  1  0  0  0  0
 19 29  1  0  0  0  0
 20 22  1  0  0  0  0
 20 30  1  0  0  0  0
 20 32  2  0  0  0  0
 21 27  1  0  0  0  0
 21 31  1  0  0  0  0
 21 33  2  0  0  0  0
 22 23  1  0  0  0  0
 23 24  1  0  0  0  0
 24 25  1  0  0  0  0
 25 30  1  0  0  0  0
 26 31  1  0  0  0  0
 28 29  1  0  0  0  0
  1 35  1  0  0  0  0
  2 36  1  0  0  0  0
  3 37  1  0  0  0  0
  4 38  1  0  0  0  0
  5 39  1  0  0  0  0
  6 40  1  0  0  0  0
  7 41  1  0  0  0  0
  8 42  1  0  0  0  0
  9 43  1  0  0  0  0
 10 44  1  0  0  0  0
 11 45  1  0  0  0  0
 12 46  1  0  0  0  0
 22 47  1  0  0  0  0
 22 48  1  0  0  0  0
 23 49  1  0  0  0  0
 23 50  1  0  0  0  0
 24 51  1  0  0  0  0
 24 52  1  0  0  0  0
 25 53  1  0  0  0  0
 25 54  1  0  0  0  0
 26 55  1  0  0  0  0
 26 56  1  0  0  0  0
 27 57  1  0  0  0  0
 27 58  1  0  0  0  0
 29 59  1  0  0  0  0
M  END
> <clash_score>
0.7790751876189459

> <docking_score>
-7.058582305908203

> <overlap_score>
1.0141552686691284

$$$$
BENZO_416_1
  -OEChem-08232013473D

 55 59  0     0  0  0  0  0  0999 V2000
    4.2750    1.7050   20.8490 C   0  0  0  0  0  0  0  0  0  0  0  0
    3.9160    2.0630   19.5520 C   0  0  0  0  0  0  0  0  0  0  0  0
    5.4210    0.9600   21.0930 C   0  0  0  0  0  0  0  0  0  0  0  0
    4.6890    1.6810   18.4640 C   0  0  0  0  0  0  0  0  0  0  0  0
    8.9960   -2.3380   25.5320 C   0  0  0  0  0  0  0  0  0  0  0  0
    9.6730   -3.4710   23.5300 C   0  0  0  0  0  0  0  0  0  0  0  0
    9.0720   -1.1280   24.8640 C   0  0  0  0  0  0  0  0  0  0  0  0
    9.7200   -2.2600   22.8630 C   0  0  0  0  0  0  0  0  0  0  0  0
   12.2995    0.1552   23.7094 C   0  0  0  0  0  0  0  0  0  0  0  0
   13.6405    0.4528   23.8132 C   0  0  0  0  0  0  0  0  0  0  0  0
   12.2399    2.4743   23.8523 C   0  0  0  0  0  0  0  0  0  0  0  0
    6.1790    0.5730   19.9990 C   0  0  0  0  0  0  0  0  0  0  0  0
   11.4880    1.3262   23.7320 C   0  0  0  0  0  0  0  0  0  0  0  0
    5.8300    0.9190   18.6970 C   0  0  0  0  0  0  0  0  0  0  0  0
    9.3070   -3.5340   24.8780 C   0  0  0  0  0  0  0  0  0  0  0  0
    9.3350   -1.0880   23.5010 C   0  0  0  0  0  0  0  0  0  0  0  0
    7.3170   -0.1610   19.8550 C   0  0  0  0  0  0  0  0  0  0  0  0
    9.0420    0.3700   21.5280 C   0  0  0  0  0  0  0  0  0  0  0  0
   10.0771   -5.0255   26.7193 C   0  0  0  0  0  0  0  0  0  0  0  0
    8.0927   -5.6195   25.4071 C   0  0  0  0  0  0  0  0  0  0  0  0
    9.1933   -4.9427   27.9592 C   0  0  0  0  0  0  0  0  0  0  0  0
    7.2756   -5.5290   26.6967 C   0  0  0  0  0  0  0  0  0  0  0  0
    9.9898    1.3085   23.6366 C   0  0  0  0  0  0  0  0  0  0  0  0
    8.1890   -0.7180   20.8700 C   0  0  0  0  0  0  0  0  0  0  0  0
    6.7580    0.3810   17.8350 N   0  0  0  0  0  0  0  0  0  0  0  0
    7.6390   -0.2680   18.5410 N   0  0  0  0  0  0  0  0  0  0  0  0
    9.2563   -4.7368   25.5413 N   0  0  0  0  0  0  0  0  0  0  0  0
    9.4560    0.1560   22.8130 N   0  0  0  0  0  0  0  0  0  0  0  0
    9.2690    1.4140   20.9380 O   0  0  0  0  0  0  0  0  0  0  0  0
    8.0883   -5.8459   27.8325 O   0  0  0  0  0  0  0  0  0  0  0  0
   13.9168    2.1382   23.9372 S   0  0  0  0  0  0  0  0  0  0  0  0
    3.6562    2.0083   21.6780 H   0  0  0  0  0  0  0  0  0  0  0  0
    3.0225    2.6465   19.3867 H   0  0  0  0  0  0  0  0  0  0  0  0
    5.7084    0.6884   22.1515 H   0  0  0  0  0  0  0  0  0  0  0  0
    4.3943    1.9831   17.4240 H   0  0  0  0  0  0  0  0  0  0  0  0
    8.6905   -2.3533   26.5810 H   0  0  0  0  0  0  0  0  0  0  0  0
    9.9266   -4.3896   22.9917 H   0  0  0  0  0  0  0  0  0  0  0  0
    8.9233   -0.1992   25.4232 H   0  0  0  0  0  0  0  0  0  0  0  0
   10.0650   -2.2330   21.8256 H   0  0  0  0  0  0  0  0  0  0  0  0
   11.9228   -0.8561   23.6221 H   0  0  0  0  0  0  0  0  0  0  0  0
   14.4710   -0.2387   23.8228 H   0  0  0  0  0  0  0  0  0  0  0  0
   11.8886    3.4960   23.8960 H   0  0  0  0  0  0  0  0  0  0  0  0
   10.8985   -4.3115   26.8085 H   0  0  0  0  0  0  0  0  0  0  0  0
   10.4915   -6.0334   26.6323 H   0  0  0  0  0  0  0  0  0  0  0  0
    8.4327   -6.6456   25.2620 H   0  0  0  0  0  0  0  0  0  0  0  0
    7.4725   -5.3241   24.5619 H   0  0  0  0  0  0  0  0  0  0  0  0
    9.7636   -5.2398   28.8419 H   0  0  0  0  0  0  0  0  0  0  0  0
    8.8236   -3.9268   28.1248 H   0  0  0  0  0  0  0  0  0  0  0  0
    6.8339   -4.5337   26.8232 H   0  0  0  0  0  0  0  0  0  0  0  0
    6.4550   -6.2521   26.6643 H   0  0  0  0  0  0  0  0  0  0  0  0
    9.5403    1.2398   24.6332 H   0  0  0  0  0  0  0  0  0  0  0  0
    9.6146    2.2271   23.1732 H   0  0  0  0  0  0  0  0  0  0  0  0
    7.5972   -1.2056   21.6500 H   0  0  0  0  0  0  0  0  0  0  0  0
    8.8612   -1.4622   20.4334 H   0  0  0  0  0  0  0  0  0  0  0  0
    8.3933   -0.7388   18.1198 H   0  0  0  0  0  0  0  0  0  0  0  0
  1  2  1  0  0  0  0
  1  3  2  0  0  0  0
  2  4  2  0  0  0  0
  3 12  1  0  0  0  0
  4 14  1  0  0  0  0
  5  7  2  0  0  0  0
  5 15  1  0  0  0  0
  6  8  1  0  0  0  0
  6 15  2  0  0  0  0
  7 16  1  0  0  0  0
  8 16  2  0  0  0  0
  9 10  2  0  0  0  0
  9 13  1  0  0  0  0
 10 31  1  0  0  0  0
 11 13  2  0  0  0  0
 11 31  1  0  0  0  0
 12 14  1  0  0  0  0
 12 17  2  0  0  0  0
 13 23  1  0  0  0  0
 14 25  2  0  0  0  0
 15 27  1  0  0  0  0
 16 28  1  0  0  0  0
 17 24  1  0  0  0  0
 17 26  1  0  0  0  0
 18 24  1  0  0  0  0
 18 28  1  0  0  0  0
 18 29  2  0  0  0  0
 19 21  1  0  0  0  0
 19 27  1  0  0  0  0
 20 22  1  0  0  0  0
 20 27  1  0  0  0  0
 21 30  1  0  0  0  0
 22 30  1  0  0  0  0
 23 28  1  0  0  0  0
 25 26  1  0  0  0  0
  1 32  1  0  0  0  0
  2 33  1  0  0  0  0
  3 34  1  0  0  0  0
  4 35  1  0  0  0  0
  5 36  1  0  0  0  0
  6 37  1  0  0  0  0
  7 38  1  0  0  0  0
  8 39  1  0  0  0  0
  9 40  1  0  0  0  0
 10 41  1  0  0  0  0
 11 42  1  0  0  0  0
 19 43  1  0  0  0  0
 19 44  1  0  0  0  0
 20 45  1  0  0  0  0
 20 46  1  0  0  0  0
 21 47  1  0  0  0  0
 21 48  1  0  0  0  0
 22 49  1  0  0  0  0
 22 50  1  0  0  0  0
 23 51  1  0  0  0  0
 23 52  1  0  0  0  0
 24 53  1  0  0  0  0
 24 54  1  0  0  0  0
 26 55  1  0  0  0  0
M  END
> <clash_score>
0

> <docking_score>
-8.229757308959961

> <overlap_score>
0.9743606448173523

$$$$
BENZO_421_1
  -OEChem-08232013473D

 52 55  0     0  0  0  0  0  0999 V2000
   14.3804    1.0922   23.5496 C   0  0  0  0  0  0  0  0  0  0  0  0
   13.6646    0.4423   24.5549 C   0  0  0  0  0  0  0  0  0  0  0  0
   13.7029    1.8066   22.5614 C   0  0  0  0  0  0  0  0  0  0  0  0
   12.2713    0.5066   24.5722 C   0  0  0  0  0  0  0  0  0  0  0  0
   12.3097    1.8709   22.5786 C   0  0  0  0  0  0  0  0  0  0  0  0
    9.0720   -1.1280   24.8640 C   0  0  0  0  0  0  0  0  0  0  0  0
    9.7200   -2.2600   22.8630 C   0  0  0  0  0  0  0  0  0  0  0  0
    8.9960   -2.3380   25.5320 C   0  0  0  0  0  0  0  0  0  0  0  0
    9.6730   -3.4710   23.5300 C   0  0  0  0  0  0  0  0  0  0  0  0
   11.5938    1.2209   23.5840 C   0  0  0  0  0  0  0  0  0  0  0  0
    9.3350   -1.0880   23.5010 C   0  0  0  0  0  0  0  0  0  0  0  0
    9.3070   -3.5340   24.8780 C   0  0  0  0  0  0  0  0  0  0  0  0
    6.1790    0.5730   19.9990 C   0  0  0  0  0  0  0  0  0  0  0  0
    7.3170   -0.1610   19.8550 C   0  0  0  0  0  0  0  0  0  0  0  0
    5.4210    0.9600   21.0930 C   0  0  0  0  0  0  0  0  0  0  0  0
    4.2750    1.7050   20.8490 C   0  0  0  0  0  0  0  0  0  0  0  0
    3.9160    2.0630   19.5520 C   0  0  0  0  0  0  0  0  0  0  0  0
    4.6890    1.6810   18.4640 C   0  0  0  0  0  0  0  0  0  0  0  0
    9.0420    0.3700   21.5280 C   0  0  0  0  0  0  0  0  0  0  0  0
    8.8742   -4.8064   26.9496 C   0  0  0  0  0  0  0  0  0  0  0  0
    9.5655   -5.9897   24.8591 C   0  0  0  0  0  0  0  0  0  0  0  0
   10.0942    1.2904   23.6018 C   0  0  0  0  0  0  0  0  0  0  0  0
    8.1890   -0.7180   20.8700 C   0  0  0  0  0  0  0  0  0  0  0  0
    7.6390   -0.2680   18.5410 N   0  0  0  0  0  0  0  0  0  0  0  0
    6.7580    0.3810   17.8350 N   0  0  0  0  0  0  0  0  0  0  0  0
    5.8300    0.9190   18.6970 N   0  0  0  0  0  0  0  0  0  0  0  0
    9.4560    0.1560   22.8130 N   0  0  0  0  0  0  0  0  0  0  0  0
    9.2543   -4.7552   25.5519 N   0  0  0  0  0  0  0  0  0  0  0  0
    9.2690    1.4140   20.9380 O   0  0  0  0  0  0  0  0  0  0  0  0
   15.4653    1.0431   23.5371 H   0  0  0  0  0  0  0  0  0  0  0  0
   14.1920   -0.1131   25.3251 H   0  0  0  0  0  0  0  0  0  0  0  0
   14.2600    2.3136   21.7791 H   0  0  0  0  0  0  0  0  0  0  0  0
   11.7219   -0.0031   25.3593 H   0  0  0  0  0  0  0  0  0  0  0  0
   11.7903    2.4297   21.8046 H   0  0  0  0  0  0  0  0  0  0  0  0
    8.9217   -0.1995   25.4232 H   0  0  0  0  0  0  0  0  0  0  0  0
   10.0643   -2.2341   21.8254 H   0  0  0  0  0  0  0  0  0  0  0  0
    8.6893   -2.3540   26.5808 H   0  0  0  0  0  0  0  0  0  0  0  0
    9.9257   -4.3898   22.9921 H   0  0  0  0  0  0  0  0  0  0  0  0
    5.6859    0.7081   22.1001 H   0  0  0  0  0  0  0  0  0  0  0  0
    3.6634    2.0033   21.6928 H   0  0  0  0  0  0  0  0  0  0  0  0
    3.0114    2.6564   19.3629 H   0  0  0  0  0  0  0  0  0  0  0  0
    4.4373    1.9516   17.4622 H   0  0  0  0  0  0  0  0  0  0  0  0
    8.8922   -5.8499   27.2971 H   0  0  0  0  0  0  0  0  0  0  0  0
    9.5819   -4.2099   27.5440 H   0  0  0  0  0  0  0  0  0  0  0  0
    7.8598   -4.3978   27.0688 H   0  0  0  0  0  0  0  0  0  0  0  0
    9.4683   -6.8360   25.5551 H   0  0  0  0  0  0  0  0  0  0  0  0
    8.8685   -6.1243   24.0189 H   0  0  0  0  0  0  0  0  0  0  0  0
   10.5962   -5.9459   24.4772 H   0  0  0  0  0  0  0  0  0  0  0  0
    9.7174    1.2380   24.6291 H   0  0  0  0  0  0  0  0  0  0  0  0
    9.7393    2.2335   23.1730 H   0  0  0  0  0  0  0  0  0  0  0  0
    7.6102   -1.2091   21.6640 H   0  0  0  0  0  0  0  0  0  0  0  0
    8.8741   -1.4657   20.4475 H   0  0  0  0  0  0  0  0  0  0  0  0
  1  2  1  0  0  0  0
  1  3  2  0  0  0  0
  2  4  2  0  0  0  0
  3  5  1  0  0  0  0
  4 10  1  0  0  0  0
  5 10  2  0  0  0  0
  6  8  2  0  0  0  0
  6 11  1  0  0  0  0
  7  9  1  0  0  0  0
  7 11  2  0  0  0  0
  8 12  1  0  0  0  0
  9 12  2  0  0  0  0
 10 22  1  0  0  0  0
 11 27  1  0  0  0  0
 12 28  1  0  0  0  0
 13 14  2  0  0  0  0
 13 15  1  0  0  0  0
 13 26  1  0  0  0  0
 14 23  1  0  0  0  0
 14 24  1  0  0  0  0
 15 16  2  0  0  0  0
 16 17  1  0  0  0  0
 17 18  2  0  0  0  0
 18 26  1  0  0  0  0
 19 23  1  0  0  0  0
 19 27  1  0  0  0  0
 19 29  2  0  0  0  0
 20 28  1  0  0  0  0
 21 28  1  0  0  0  0
 22 27  1  0  0  0  0
 24 25  2  0  0  0  0
 25 26  1  0  0  0  0
  1 30  1  0  0  0  0
  2 31  1  0  0  0  0
  3 32  1  0  0  0  0
  4 33  1  0  0  0  0
  5 34  1  0  0  0  0
  6 35  1  0  0  0  0
  7 36  1  0  0  0  0
  8 37  1  0  0  0  0
  9 38  1  0  0  0  0
 15 39  1  0  0  0  0
 16 40  1  0  0  0  0
 17 41  1  0  0  0  0
 18 42  1  0  0  0  0
 20 43  1  0  0  0  0
 20 44  1  0  0  0  0
 20 45  1  0  0  0  0
 21 46  1  0  0  0  0
 21 47  1  0  0  0  0
 21 48  1  0  0  0  0
 22 49  1  0  0  0  0
 22 50  1  0  0  0  0
 23 51  1  0  0  0  0
 23 52  1  0  0  0  0
M  END
> <clash_score>
0

> <docking_score>
-9.566339492797852

> <overlap_score>
0.9834865927696228

$$$$
BENZO_420_1
  -OEChem-08232013473D

 49 52  0     0  0  0  0  0  0999 V2000
    9.0720   -1.1280   24.8640 C   0  0  0  0  0  0  0  0  0  0  0  0
    9.7200   -2.2600   22.8630 C   0  0  0  0  0  0  0  0  0  0  0  0
    8.9960   -2.3380   25.5320 C   0  0  0  0  0  0  0  0  0  0  0  0
    9.6730   -3.4710   23.5300 C   0  0  0  0  0  0  0  0  0  0  0  0
   12.4430    2.3628   23.6551 C   0  0  0  0  0  0  0  0  0  0  0  0
   13.7765    2.0191   23.6192 C   0  0  0  0  0  0  0  0  0  0  0  0
   12.3107    0.0478   23.4962 C   0  0  0  0  0  0  0  0  0  0  0  0
   11.5938    1.2209   23.5840 C   0  0  0  0  0  0  0  0  0  0  0  0
    9.3350   -1.0880   23.5010 C   0  0  0  0  0  0  0  0  0  0  0  0
    9.3070   -3.5340   24.8780 C   0  0  0  0  0  0  0  0  0  0  0  0
    6.1790    0.5730   19.9990 C   0  0  0  0  0  0  0  0  0  0  0  0
    7.3170   -0.1610   19.8550 C   0  0  0  0  0  0  0  0  0  0  0  0
    5.4210    0.9600   21.0930 C   0  0  0  0  0  0  0  0  0  0  0  0
    4.2750    1.7050   20.8490 C   0  0  0  0  0  0  0  0  0  0  0  0
    3.9160    2.0630   19.5520 C   0  0  0  0  0  0  0  0  0  0  0  0
    4.6890    1.6810   18.4640 C   0  0  0  0  0  0  0  0  0  0  0  0
    9.0420    0.3700   21.5280 C   0  0  0  0  0  0  0  0  0  0  0  0
    8.0128   -5.2151   26.1416 C   0  0  0  0  0  0  0  0  0  0  0  0
   10.4372   -5.5860   25.6589 C   0  0  0  0  0  0  0  0  0  0  0  0
   10.0942    1.2904   23.6018 C   0  0  0  0  0  0  0  0  0  0  0  0
    8.1890   -0.7180   20.8700 C   0  0  0  0  0  0  0  0  0  0  0  0
    7.6390   -0.2680   18.5410 N   0  0  0  0  0  0  0  0  0  0  0  0
    6.7580    0.3810   17.8350 N   0  0  0  0  0  0  0  0  0  0  0  0
    5.8300    0.9190   18.6970 N   0  0  0  0  0  0  0  0  0  0  0  0
    9.4560    0.1560   22.8130 N   0  0  0  0  0  0  0  0  0  0  0  0
    9.2543   -4.7552   25.5519 N   0  0  0  0  0  0  0  0  0  0  0  0
    9.2690    1.4140   20.9380 O   0  0  0  0  0  0  0  0  0  0  0  0
   14.0004    0.3256   23.5001 S   0  0  0  0  0  0  0  0  0  0  0  0
    8.9217   -0.1995   25.4232 H   0  0  0  0  0  0  0  0  0  0  0  0
   10.0643   -2.2341   21.8254 H   0  0  0  0  0  0  0  0  0  0  0  0
    8.6893   -2.3540   26.5808 H   0  0  0  0  0  0  0  0  0  0  0  0
    9.9257   -4.3898   22.9921 H   0  0  0  0  0  0  0  0  0  0  0  0
   12.0976    3.3863   23.7286 H   0  0  0  0  0  0  0  0  0  0  0  0
   14.6299    2.6813   23.6565 H   0  0  0  0  0  0  0  0  0  0  0  0
   11.9271   -0.9608   23.4286 H   0  0  0  0  0  0  0  0  0  0  0  0
    5.6859    0.7081   22.1001 H   0  0  0  0  0  0  0  0  0  0  0  0
    3.6634    2.0033   21.6928 H   0  0  0  0  0  0  0  0  0  0  0  0
    3.0114    2.6564   19.3629 H   0  0  0  0  0  0  0  0  0  0  0  0
    4.4373    1.9516   17.4622 H   0  0  0  0  0  0  0  0  0  0  0  0
    8.1744   -6.1904   26.6238 H   0  0  0  0  0  0  0  0  0  0  0  0
    7.6718   -4.4870   26.8924 H   0  0  0  0  0  0  0  0  0  0  0  0
    7.2494   -5.3166   25.3561 H   0  0  0  0  0  0  0  0  0  0  0  0
   10.1946   -6.4995   26.2216 H   0  0  0  0  0  0  0  0  0  0  0  0
   10.7865   -5.8577   24.6518 H   0  0  0  0  0  0  0  0  0  0  0  0
   11.2285   -5.0312   26.1842 H   0  0  0  0  0  0  0  0  0  0  0  0
    9.7174    1.2380   24.6291 H   0  0  0  0  0  0  0  0  0  0  0  0
    9.7393    2.2335   23.1730 H   0  0  0  0  0  0  0  0  0  0  0  0
    7.6102   -1.2091   21.6640 H   0  0  0  0  0  0  0  0  0  0  0  0
    8.8741   -1.4657   20.4475 H   0  0  0  0  0  0  0  0  0  0  0  0
  1  3  2  0  0  0  0
  1  9  1  0  0  0  0
  2  4  1  0  0  0  0
  2  9  2  0  0  0  0
  3 10  1  0  0  0  0
  4 10  2  0  0  0  0
  5  6  2  0  0  0  0
  5  8  1  0  0  0  0
  6 28  1  0  0  0  0
  7  8  2  0  0  0  0
  7 28  1  0  0  0  0
  8 20  1  0  0  0  0
  9 25  1  0  0  0  0
 10 26  1  0  0  0  0
 11 12  2  0  0  0  0
 11 13  1  0  0  0  0
 11 24  1  0  0  0  0
 12 21  1  0  0  0  0
 12 22  1  0  0  0  0
 13 14  2  0  0  0  0
 14 15  1  0  0  0  0
 15 16  2  0  0  0  0
 16 24  1  0  0  0  0
 17 21  1  0  0  0  0
 17 25  1  0  0  0  0
 17 27  2  0  0  0  0
 18 26  1  0  0  0  0
 19 26  1  0  0  0  0
 20 25  1  0  0  0  0
 22 23  2  0  0  0  0
 23 24  1  0  0  0  0
  1 29  1  0  0  0  0
  2 30  1  0  0  0  0
  3 31  1  0  0  0  0
  4 32  1  0  0  0  0
  5 33  1  0  0  0  0
  6 34  1  0  0  0  0
  7 35  1  0  0  0  0
 13 36  1  0  0  0  0
 14 37  1  0  0  0  0
 15 38  1  0  0  0  0
 16 39  1  0  0  0  0
 18 40  1  0  0  0  0
 18 41  1  0  0  0  0
 18 42  1  0  0  0  0
 19 43  1  0  0  0  0
 19 44  1  0  0  0  0
 19 45  1  0  0  0  0
 20 46  1  0  0  0  0
 20 47  1  0  0  0  0
 21 48  1  0  0  0  0
 21 49  1  0  0  0  0
M  END
> <clash_score>
0

> <docking_score>
-9.365458488464355

> <overlap_score>
0.9693946838378906

$$$$
BENZO_418_1
  -OEChem-08232013473D

 58 62  0     0  0  0  0  0  0999 V2000
    4.2750    1.7050   20.8490 C   0  0  0  0  0  0  0  0  0  0  0  0
    3.9160    2.0630   19.5520 C   0  0  0  0  0  0  0  0  0  0  0  0
   13.5352    0.4433   24.6627 C   0  0  0  0  0  0  0  0  0  0  0  0
    5.4210    0.9600   21.0930 C   0  0  0  0  0  0  0  0  0  0  0  0
   12.1432    0.4282   24.5746 C   0  0  0  0  0  0  0  0  0  0  0  0
    4.6890    1.6810   18.4640 C   0  0  0  0  0  0  0  0  0  0  0  0
    8.9960   -2.3380   25.5320 C   0  0  0  0  0  0  0  0  0  0  0  0
    9.6730   -3.4710   23.5300 C   0  0  0  0  0  0  0  0  0  0  0  0
    9.0720   -1.1280   24.8640 C   0  0  0  0  0  0  0  0  0  0  0  0
    9.7200   -2.2600   22.8630 C   0  0  0  0  0  0  0  0  0  0  0  0
   14.2720    1.3564   23.9084 C   0  0  0  0  0  0  0  0  0  0  0  0
   12.2248    2.2393   22.9776 C   0  0  0  0  0  0  0  0  0  0  0  0
    6.1790    0.5730   19.9990 C   0  0  0  0  0  0  0  0  0  0  0  0
   11.4880    1.3262   23.7320 C   0  0  0  0  0  0  0  0  0  0  0  0
    5.8300    0.9190   18.6970 C   0  0  0  0  0  0  0  0  0  0  0  0
    9.3070   -3.5340   24.8780 C   0  0  0  0  0  0  0  0  0  0  0  0
    9.3350   -1.0880   23.5010 C   0  0  0  0  0  0  0  0  0  0  0  0
   13.6168    2.2544   23.0658 C   0  0  0  0  0  0  0  0  0  0  0  0
    7.3170   -0.1610   19.8550 C   0  0  0  0  0  0  0  0  0  0  0  0
    9.0420    0.3700   21.5280 C   0  0  0  0  0  0  0  0  0  0  0  0
   10.0771   -5.0255   26.7193 C   0  0  0  0  0  0  0  0  0  0  0  0
    8.0927   -5.6195   25.4071 C   0  0  0  0  0  0  0  0  0  0  0  0
    9.1933   -4.9427   27.9592 C   0  0  0  0  0  0  0  0  0  0  0  0
    7.2756   -5.5290   26.6967 C   0  0  0  0  0  0  0  0  0  0  0  0
    9.9898    1.3085   23.6366 C   0  0  0  0  0  0  0  0  0  0  0  0
    8.1890   -0.7180   20.8700 C   0  0  0  0  0  0  0  0  0  0  0  0
    6.7580    0.3810   17.8350 N   0  0  0  0  0  0  0  0  0  0  0  0
    7.6390   -0.2680   18.5410 N   0  0  0  0  0  0  0  0  0  0  0  0
    9.2563   -4.7368   25.5413 N   0  0  0  0  0  0  0  0  0  0  0  0
    9.4560    0.1560   22.8130 N   0  0  0  0  0  0  0  0  0  0  0  0
    9.2690    1.4140   20.9380 O   0  0  0  0  0  0  0  0  0  0  0  0
    8.0883   -5.8459   27.8325 O   0  0  0  0  0  0  0  0  0  0  0  0
   14.5264    3.3800   22.1345 Cl  0  0  0  0  0  0  0  0  0  0  0  0
    3.6562    2.0083   21.6780 H   0  0  0  0  0  0  0  0  0  0  0  0
    3.0225    2.6465   19.3867 H   0  0  0  0  0  0  0  0  0  0  0  0
   14.0450   -0.2562   25.3189 H   0  0  0  0  0  0  0  0  0  0  0  0
    5.7084    0.6884   22.1515 H   0  0  0  0  0  0  0  0  0  0  0  0
   11.5772   -0.2868   25.1659 H   0  0  0  0  0  0  0  0  0  0  0  0
    4.3943    1.9831   17.4240 H   0  0  0  0  0  0  0  0  0  0  0  0
    8.6905   -2.3533   26.5810 H   0  0  0  0  0  0  0  0  0  0  0  0
    9.9266   -4.3896   22.9917 H   0  0  0  0  0  0  0  0  0  0  0  0
    8.9233   -0.1992   25.4232 H   0  0  0  0  0  0  0  0  0  0  0  0
   10.0650   -2.2330   21.8256 H   0  0  0  0  0  0  0  0  0  0  0  0
   15.3564    1.3566   23.9870 H   0  0  0  0  0  0  0  0  0  0  0  0
   11.7092    2.9378   22.3225 H   0  0  0  0  0  0  0  0  0  0  0  0
   10.8985   -4.3115   26.8085 H   0  0  0  0  0  0  0  0  0  0  0  0
   10.4915   -6.0334   26.6323 H   0  0  0  0  0  0  0  0  0  0  0  0
    8.4327   -6.6456   25.2620 H   0  0  0  0  0  0  0  0  0  0  0  0
    7.4725   -5.3241   24.5619 H   0  0  0  0  0  0  0  0  0  0  0  0
    9.7636   -5.2398   28.8419 H   0  0  0  0  0  0  0  0  0  0  0  0
    8.8236   -3.9268   28.1248 H   0  0  0  0  0  0  0  0  0  0  0  0
    6.8339   -4.5337   26.8232 H   0  0  0  0  0  0  0  0  0  0  0  0
    6.4550   -6.2521   26.6643 H   0  0  0  0  0  0  0  0  0  0  0  0
    9.5403    1.2398   24.6332 H   0  0  0  0  0  0  0  0  0  0  0  0
    9.6146    2.2271   23.1732 H   0  0  0  0  0  0  0  0  0  0  0  0
    7.5972   -1.2056   21.6500 H   0  0  0  0  0  0  0  0  0  0  0  0
    8.8612   -1.4622   20.4334 H   0  0  0  0  0  0  0  0  0  0  0  0
    8.3933   -0.7388   18.1198 H   0  0  0  0  0  0  0  0  0  0  0  0
  1  2  1  0  0  0  0
  1  4  2  0  0  0  0
  2  6  2  0  0  0  0
  3  5  2  0  0  0  0
  3 11  1  0  0  0  0
  4 13  1  0  0  0  0
  5 14  1  0  0  0  0
  6 15  1  0  0  0  0
  7  9  2  0  0  0  0
  7 16  1  0  0  0  0
  8 10  1  0  0  0  0
  8 16  2  0  0  0  0
  9 17  1  0  0  0  0
 10 17  2  0  0  0  0
 11 18  2  0  0  0  0
 12 14  2  0  0  0  0
 12 18  1  0  0  0  0
 13 15  1  0  0  0  0
 13 19  2  0  0  0  0
 14 25  1  0  0  0  0
 15 27  2  0  0  0  0
 16 29  1  0  0  0  0
 17 30  1  0  0  0  0
 18 33  1  0  0  0  0
 19 26  1  0  0  0  0
 19 28  1  0  0  0  0
 20 26  1  0  0  0  0
 20 30  1  0  0  0  0
 20 31  2  0  0  0  0
 21 23  1  0  0  0  0
 21 29  1  0  0  0  0
 22 24  1  0  0  0  0
 22 29  1  0  0  0  0
 23 32  1  0  0  0  0
 24 32  1  0  0  0  0
 25 30  1  0  0  0  0
 27 28  1  0  0  0  0
  1 34  1  0  0  0  0
  2 35  1  0  0  0  0
  3 36  1  0  0  0  0
  4 37  1  0  0  0  0
  5 38  1  0  0  0  0
  6 39  1  0  0  0  0
  7 40  1  0  0  0  0
  8 41  1  0  0  0  0
  9 42  1  0  0  0  0
 10 43  1  0  0  0  0
 11 44  1  0  0  0  0
 12 45  1  0  0  0  0
 21 46  1  0  0  0  0
 21 47  1  0  0  0  0
 22 48  1  0  0  0  0
 22 49  1  0  0  0  0
 23 50  1  0  0  0  0
 23 51  1  0  0  0  0
 24 52  1  0  0  0  0
 24 53  1  0  0  0  0
 25 54  1  0  0  0  0
 25 55  1  0  0  0  0
 26 56  1  0  0  0  0
 26 57  1  0  0  0  0
 28 58  1  0  0  0  0
M  END
> <clash_score>
0

> <docking_score>
-8.034370422363281

> <overlap_score>
1.0003458261489868

$$$$
BENZO_419_1
  -OEChem-08232013473D

 58 62  0     0  0  0  0  0  0999 V2000
    4.2750    1.7050   20.8490 C   0  0  0  0  0  0  0  0  0  0  0  0
    3.9160    2.0630   19.5520 C   0  0  0  0  0  0  0  0  0  0  0  0
    5.4210    0.9600   21.0930 C   0  0  0  0  0  0  0  0  0  0  0  0
    4.6890    1.6810   18.4640 C   0  0  0  0  0  0  0  0  0  0  0  0
    8.9960   -2.3380   25.5320 C   0  0  0  0  0  0  0  0  0  0  0  0
    9.6730   -3.4710   23.5300 C   0  0  0  0  0  0  0  0  0  0  0  0
    9.0720   -1.1280   24.8640 C   0  0  0  0  0  0  0  0  0  0  0  0
    9.7200   -2.2600   22.8630 C   0  0  0  0  0  0  0  0  0  0  0  0
   12.2804    1.2668   24.8940 C   0  0  0  0  0  0  0  0  0  0  0  0
   12.3938    1.4014   22.7022 C   0  0  0  0  0  0  0  0  0  0  0  0
    6.1790    0.5730   19.9990 C   0  0  0  0  0  0  0  0  0  0  0  0
   11.4880    1.3262   23.7320 C   0  0  0  0  0  0  0  0  0  0  0  0
    5.8300    0.9190   18.6970 C   0  0  0  0  0  0  0  0  0  0  0  0
    9.3070   -3.5340   24.8780 C   0  0  0  0  0  0  0  0  0  0  0  0
    9.3350   -1.0880   23.5010 C   0  0  0  0  0  0  0  0  0  0  0  0
    7.3170   -0.1610   19.8550 C   0  0  0  0  0  0  0  0  0  0  0  0
    9.0420    0.3700   21.5280 C   0  0  0  0  0  0  0  0  0  0  0  0
    9.5175   -4.8597   26.9771 C   0  0  0  0  0  0  0  0  0  0  0  0
    8.5165   -5.8725   24.9808 C   0  0  0  0  0  0  0  0  0  0  0  0
    8.1868   -5.0439   27.6987 C   0  0  0  0  0  0  0  0  0  0  0  0
    7.2200   -6.0347   25.7755 C   0  0  0  0  0  0  0  0  0  0  0  0
   14.8975    1.4417   22.6075 C   0  0  0  0  0  0  0  0  0  0  0  0
    9.9898    1.3085   23.6366 C   0  0  0  0  0  0  0  0  0  0  0  0
    8.1890   -0.7180   20.8700 C   0  0  0  0  0  0  0  0  0  0  0  0
   13.5889    1.3011   24.6282 N   0  0  0  0  0  0  0  0  0  0  0  0
    6.7580    0.3810   17.8350 N   0  0  0  0  0  0  0  0  0  0  0  0
    7.6390   -0.2680   18.5410 N   0  0  0  0  0  0  0  0  0  0  0  0
   13.6257    1.3828   23.2873 N   0  0  0  0  0  0  0  0  0  0  0  0
    9.2563   -4.7368   25.5413 N   0  0  0  0  0  0  0  0  0  0  0  0
    9.4560    0.1560   22.8130 N   0  0  0  0  0  0  0  0  0  0  0  0
    9.2690    1.4140   20.9380 O   0  0  0  0  0  0  0  0  0  0  0  0
    7.4994   -6.1853   27.1719 O   0  0  0  0  0  0  0  0  0  0  0  0
    3.6562    2.0083   21.6780 H   0  0  0  0  0  0  0  0  0  0  0  0
    3.0225    2.6465   19.3867 H   0  0  0  0  0  0  0  0  0  0  0  0
    5.7084    0.6884   22.1515 H   0  0  0  0  0  0  0  0  0  0  0  0
    4.3943    1.9831   17.4240 H   0  0  0  0  0  0  0  0  0  0  0  0
    8.6905   -2.3533   26.5810 H   0  0  0  0  0  0  0  0  0  0  0  0
    9.9266   -4.3896   22.9917 H   0  0  0  0  0  0  0  0  0  0  0  0
    8.9233   -0.1992   25.4232 H   0  0  0  0  0  0  0  0  0  0  0  0
   10.0650   -2.2330   21.8256 H   0  0  0  0  0  0  0  0  0  0  0  0
   11.9612    1.1990   25.9244 H   0  0  0  0  0  0  0  0  0  0  0  0
   12.2699    1.4636   21.6296 H   0  0  0  0  0  0  0  0  0  0  0  0
   10.0205   -3.9698   27.3609 H   0  0  0  0  0  0  0  0  0  0  0  0
   10.1535   -5.7310   27.1549 H   0  0  0  0  0  0  0  0  0  0  0  0
    9.1181   -6.7773   25.0755 H   0  0  0  0  0  0  0  0  0  0  0  0
    8.2812   -5.7064   23.9305 H   0  0  0  0  0  0  0  0  0  0  0  0
    8.3629   -5.2252   28.7611 H   0  0  0  0  0  0  0  0  0  0  0  0
    7.5530   -4.1570   27.6103 H   0  0  0  0  0  0  0  0  0  0  0  0
    6.5459   -5.1839   25.6221 H   0  0  0  0  0  0  0  0  0  0  0  0
    6.6948   -6.9354   25.4436 H   0  0  0  0  0  0  0  0  0  0  0  0
   15.1803    2.4933   22.5117 H   0  0  0  0  0  0  0  0  0  0  0  0
   15.6463    0.8957   23.1880 H   0  0  0  0  0  0  0  0  0  0  0  0
   14.8017    0.9790   21.6212 H   0  0  0  0  0  0  0  0  0  0  0  0
    9.5403    1.2398   24.6332 H   0  0  0  0  0  0  0  0  0  0  0  0
    9.6146    2.2271   23.1732 H   0  0  0  0  0  0  0  0  0  0  0  0
    7.5972   -1.2056   21.6500 H   0  0  0  0  0  0  0  0  0  0  0  0
    8.8612   -1.4622   20.4334 H   0  0  0  0  0  0  0  0  0  0  0  0
    8.3933   -0.7388   18.1198 H   0  0  0  0  0  0  0  0  0  0  0  0
  1  2  1  0  0  0  0
  1  3  2  0  0  0  0
  2  4  2  0  0  0  0
  3 11  1  0  0  0  0
  4 13  1  0  0  0  0
  5  7  2  0  0  0  0
  5 14  1  0  0  0  0
  6  8  1  0  0  0  0
  6 14  2  0  0  0  0
  7 15  1  0  0  0  0
  8 15  2  0  0  0  0
  9 12  1  0  0  0  0
  9 25  2  0  0  0  0
 10 12  2  0  0  0  0
 10 28  1  0  0  0  0
 11 13  1  0  0  0  0
 11 16  2  0  0  0  0
 12 23  1  0  0  0  0
 13 26  2  0  0  0  0
 14 29  1  0  0  0  0
 15 30  1  0  0  0  0
 16 24  1  0  0  0  0
 16 27  1  0  0  0  0
 17 24  1  0  0  0  0
 17 30  1  0  0  0  0
 17 31  2  0  0  0  0
 18 20  1  0  0  0  0
 18 29  1  0  0  0  0
 19 21  1  0  0  0  0
 19 29  1  0  0  0  0
 20 32  1  0  0  0  0
 21 32  1  0  0  0  0
 22 28  1  0  0  0  0
 23 30  1  0  0  0  0
 25 28  1  0  0  0  0
 26 27  1  0  0  0  0
  1 33  1  0  0  0  0
  2 34  1  0  0  0  0
  3 35  1  0  0  0  0
  4 36  1  0  0  0  0
  5 37  1  0  0  0  0
  6 38  1  0  0  0  0
  7 39  1  0  0  0  0
  8 40  1  0  0  0  0
  9 41  1  0  0  0  0
 10 42  1  0  0  0  0
 18 43  1  0  0  0  0
 18 44  1  0  0  0  0
 19 45  1  0  0  0  0
 19 46  1  0  0  0  0
 20 47  1  0  0  0  0
 20 48  1  0  0  0  0
 21 49  1  0  0  0  0
 21 50  1  0  0  0  0
 22 51  1  0  0  0  0
 22 52  1  0  0  0  0
 22 53  1  0  0  0  0
 23 54  1  0  0  0  0
 23 55  1  0  0  0  0
 24 56  1  0  0  0  0
 24 57  1  0  0  0  0
 27 58  1  0  0  0  0
M  END
> <clash_score>
0

> <docking_score>
-8.886442184448242

> <overlap_score>
0.9866517186164856

$$$$
BENZO_423_1
  -OEChem-08232013473D

 52 55  0     0  0  0  0  0  0999 V2000
    9.0720   -1.1280   24.8640 C   0  0  0  0  0  0  0  0  0  0  0  0
    9.7200   -2.2600   22.8630 C   0  0  0  0  0  0  0  0  0  0  0  0
    8.9960   -2.3380   25.5320 C   0  0  0  0  0  0  0  0  0  0  0  0
    9.6730   -3.4710   23.5300 C   0  0  0  0  0  0  0  0  0  0  0  0
   12.4868    2.0182   22.8432 C   0  0  0  0  0  0  0  0  0  0  0  0
   12.4029    0.3651   24.2906 C   0  0  0  0  0  0  0  0  0  0  0  0
   11.5938    1.2209   23.5840 C   0  0  0  0  0  0  0  0  0  0  0  0
    9.3350   -1.0880   23.5010 C   0  0  0  0  0  0  0  0  0  0  0  0
    9.3070   -3.5340   24.8780 C   0  0  0  0  0  0  0  0  0  0  0  0
    6.1790    0.5730   19.9990 C   0  0  0  0  0  0  0  0  0  0  0  0
    7.3170   -0.1610   19.8550 C   0  0  0  0  0  0  0  0  0  0  0  0
    5.4210    0.9600   21.0930 C   0  0  0  0  0  0  0  0  0  0  0  0
    4.2750    1.7050   20.8490 C   0  0  0  0  0  0  0  0  0  0  0  0
    3.9160    2.0630   19.5520 C   0  0  0  0  0  0  0  0  0  0  0  0
    4.6890    1.6810   18.4640 C   0  0  0  0  0  0  0  0  0  0  0  0
    9.0420    0.3700   21.5280 C   0  0  0  0  0  0  0  0  0  0  0  0
   14.8863    0.0618   24.4316 C   0  0  0  0  0  0  0  0  0  0  0  0
    8.0128   -5.2151   26.1416 C   0  0  0  0  0  0  0  0  0  0  0  0
   10.4372   -5.5860   25.6589 C   0  0  0  0  0  0  0  0  0  0  0  0
   10.0942    1.2904   23.6018 C   0  0  0  0  0  0  0  0  0  0  0  0
    8.1890   -0.7180   20.8700 C   0  0  0  0  0  0  0  0  0  0  0  0
   13.7652    1.6975   23.0592 N   0  0  0  0  0  0  0  0  0  0  0  0
    7.6390   -0.2680   18.5410 N   0  0  0  0  0  0  0  0  0  0  0  0
    6.7580    0.3810   17.8350 N   0  0  0  0  0  0  0  0  0  0  0  0
   13.6815    0.6893   23.9439 N   0  0  0  0  0  0  0  0  0  0  0  0
    5.8300    0.9190   18.6970 N   0  0  0  0  0  0  0  0  0  0  0  0
    9.4560    0.1560   22.8130 N   0  0  0  0  0  0  0  0  0  0  0  0
    9.2543   -4.7552   25.5519 N   0  0  0  0  0  0  0  0  0  0  0  0
    9.2690    1.4140   20.9380 O   0  0  0  0  0  0  0  0  0  0  0  0
    8.9217   -0.1995   25.4232 H   0  0  0  0  0  0  0  0  0  0  0  0
   10.0643   -2.2341   21.8254 H   0  0  0  0  0  0  0  0  0  0  0  0
    8.6893   -2.3540   26.5808 H   0  0  0  0  0  0  0  0  0  0  0  0
    9.9257   -4.3898   22.9921 H   0  0  0  0  0  0  0  0  0  0  0  0
   12.2616    2.8206   22.1550 H   0  0  0  0  0  0  0  0  0  0  0  0
   12.1833   -0.4265   24.9942 H   0  0  0  0  0  0  0  0  0  0  0  0
    5.6859    0.7081   22.1001 H   0  0  0  0  0  0  0  0  0  0  0  0
    3.6634    2.0033   21.6928 H   0  0  0  0  0  0  0  0  0  0  0  0
    3.0114    2.6564   19.3629 H   0  0  0  0  0  0  0  0  0  0  0  0
    4.4373    1.9516   17.4622 H   0  0  0  0  0  0  0  0  0  0  0  0
   15.1288   -0.7682   23.7627 H   0  0  0  0  0  0  0  0  0  0  0  0
   15.6989    0.7935   24.4431 H   0  0  0  0  0  0  0  0  0  0  0  0
   14.7177   -0.3023   25.4489 H   0  0  0  0  0  0  0  0  0  0  0  0
    8.1744   -6.1904   26.6238 H   0  0  0  0  0  0  0  0  0  0  0  0
    7.6718   -4.4870   26.8924 H   0  0  0  0  0  0  0  0  0  0  0  0
    7.2494   -5.3166   25.3561 H   0  0  0  0  0  0  0  0  0  0  0  0
   10.1946   -6.4995   26.2216 H   0  0  0  0  0  0  0  0  0  0  0  0
   10.7865   -5.8577   24.6518 H   0  0  0  0  0  0  0  0  0  0  0  0
   11.2285   -5.0312   26.1842 H   0  0  0  0  0  0  0  0  0  0  0  0
    9.7174    1.2380   24.6291 H   0  0  0  0  0  0  0  0  0  0  0  0
    9.7393    2.2335   23.1730 H   0  0  0  0  0  0  0  0  0  0  0  0
    7.6102   -1.2091   21.6640 H   0  0  0  0  0  0  0  0  0  0  0  0
    8.8741   -1.4657   20.4475 H   0  0  0  0  0  0  0  0  0  0  0  0
  1  3  2  0  0  0  0
  1  8  1  0  0  0  0
  2  4  1  0  0  0  0
  2  8  2  0  0  0  0
  3  9  1  0  0  0  0
  4  9  2  0  0  0  0
  5  7  1  0  0  0  0
  5 22  2  0  0  0  0
  6  7  2  0  0  0  0
  6 25  1  0  0  0  0
  7 20  1  0  0  0  0
  8 27  1  0  0  0  0
  9 28  1  0  0  0  0
 10 11  2  0  0  0  0
 10 12  1  0  0  0  0
 10 26  1  0  0  0  0
 11 21  1  0  0  0  0
 11 23  1  0  0  0  0
 12 13  2  0  0  0  0
 13 14  1  0  0  0  0
 14 15  2  0  0  0  0
 15 26  1  0  0  0  0
 16 21  1  0  0  0  0
 16 27  1  0  0  0  0
 16 29  2  0  0  0  0
 17 25  1  0  0  0  0
 18 28  1  0  0  0  0
 19 28  1  0  0  0  0
 20 27  1  0  0  0  0
 22 25  1  0  0  0  0
 23 24  2  0  0  0  0
 24 26  1  0  0  0  0
  1 30  1  0  0  0  0
  2 31  1  0  0  0  0
  3 32  1  0  0  0  0
  4 33  1  0  0  0  0
  5 34  1  0  0  0  0
  6 35  1  0  0  0  0
 12 36  1  0  0  0  0
 13 37  1  0  0  0  0
 14 38  1  0  0  0  0
 15 39  1  0  0  0  0
 17 40  1  0  0  0  0
 17 41  1  0  0  0  0
 17 42  1  0  0  0  0
 18 43  1  0  0  0  0
 18 44  1  0  0  0  0
 18 45  1  0  0  0  0
 19 46  1  0  0  0  0
 19 47  1  0  0  0  0
 19 48  1  0  0  0  0
 20 49  1  0  0  0  0
 20 50  1  0  0  0  0
 21 51  1  0  0  0  0
 21 52  1  0  0  0  0
M  END
> <clash_score>
0

> <docking_score>
-9.664543151855469

> <overlap_score>
0.9798265695571899

$$$$
BENZO_422_1
  -OEChem-08232013473D

 52 55  0     0  0  0  0  0  0999 V2000
   13.7159    2.0356   22.7654 C   0  0  0  0  0  0  0  0  0  0  0  0
   12.3226    2.0988   22.7815 C   0  0  0  0  0  0  0  0  0  0  0  0
    9.0720   -1.1280   24.8640 C   0  0  0  0  0  0  0  0  0  0  0  0
    9.7200   -2.2600   22.8630 C   0  0  0  0  0  0  0  0  0  0  0  0
    8.9960   -2.3380   25.5320 C   0  0  0  0  0  0  0  0  0  0  0  0
    9.6730   -3.4710   23.5300 C   0  0  0  0  0  0  0  0  0  0  0  0
   14.3805    1.0944   23.5516 C   0  0  0  0  0  0  0  0  0  0  0  0
   12.2584    0.2798   24.3703 C   0  0  0  0  0  0  0  0  0  0  0  0
   11.5938    1.2209   23.5840 C   0  0  0  0  0  0  0  0  0  0  0  0
    9.3350   -1.0880   23.5010 C   0  0  0  0  0  0  0  0  0  0  0  0
    9.3070   -3.5340   24.8780 C   0  0  0  0  0  0  0  0  0  0  0  0
   13.6518    0.2165   24.3541 C   0  0  0  0  0  0  0  0  0  0  0  0
    6.1790    0.5730   19.9990 C   0  0  0  0  0  0  0  0  0  0  0  0
    7.3170   -0.1610   19.8550 C   0  0  0  0  0  0  0  0  0  0  0  0
    5.4210    0.9600   21.0930 C   0  0  0  0  0  0  0  0  0  0  0  0
    4.2750    1.7050   20.8490 C   0  0  0  0  0  0  0  0  0  0  0  0
    3.9160    2.0630   19.5520 C   0  0  0  0  0  0  0  0  0  0  0  0
    4.6890    1.6810   18.4640 C   0  0  0  0  0  0  0  0  0  0  0  0
    9.0420    0.3700   21.5280 C   0  0  0  0  0  0  0  0  0  0  0  0
    8.0128   -5.2151   26.1416 C   0  0  0  0  0  0  0  0  0  0  0  0
   10.4372   -5.5860   25.6589 C   0  0  0  0  0  0  0  0  0  0  0  0
   10.0942    1.2904   23.6018 C   0  0  0  0  0  0  0  0  0  0  0  0
    8.1890   -0.7180   20.8700 C   0  0  0  0  0  0  0  0  0  0  0  0
    7.6390   -0.2680   18.5410 N   0  0  0  0  0  0  0  0  0  0  0  0
    6.7580    0.3810   17.8350 N   0  0  0  0  0  0  0  0  0  0  0  0
    5.8300    0.9190   18.6970 N   0  0  0  0  0  0  0  0  0  0  0  0
    9.4560    0.1560   22.8130 N   0  0  0  0  0  0  0  0  0  0  0  0
    9.2543   -4.7552   25.5519 N   0  0  0  0  0  0  0  0  0  0  0  0
    9.2690    1.4140   20.9380 O   0  0  0  0  0  0  0  0  0  0  0  0
   14.4724   -0.9437   25.3248 Cl  0  0  0  0  0  0  0  0  0  0  0  0
   14.2830    2.7195   22.1405 H   0  0  0  0  0  0  0  0  0  0  0  0
   11.8131    2.8354   22.1658 H   0  0  0  0  0  0  0  0  0  0  0  0
    8.9217   -0.1995   25.4232 H   0  0  0  0  0  0  0  0  0  0  0  0
   10.0643   -2.2341   21.8254 H   0  0  0  0  0  0  0  0  0  0  0  0
    8.6893   -2.3540   26.5808 H   0  0  0  0  0  0  0  0  0  0  0  0
    9.9257   -4.3898   22.9921 H   0  0  0  0  0  0  0  0  0  0  0  0
   15.4669    1.0568   23.5293 H   0  0  0  0  0  0  0  0  0  0  0  0
   11.6857   -0.4028   24.9939 H   0  0  0  0  0  0  0  0  0  0  0  0
    5.6859    0.7081   22.1001 H   0  0  0  0  0  0  0  0  0  0  0  0
    3.6634    2.0033   21.6928 H   0  0  0  0  0  0  0  0  0  0  0  0
    3.0114    2.6564   19.3629 H   0  0  0  0  0  0  0  0  0  0  0  0
    4.4373    1.9516   17.4622 H   0  0  0  0  0  0  0  0  0  0  0  0
    8.1744   -6.1904   26.6238 H   0  0  0  0  0  0  0  0  0  0  0  0
    7.6718   -4.4870   26.8924 H   0  0  0  0  0  0  0  0  0  0  0  0
    7.2494   -5.3166   25.3561 H   0  0  0  0  0  0  0  0  0  0  0  0
   10.1946   -6.4995   26.2216 H   0  0  0  0  0  0  0  0  0  0  0  0
   10.7865   -5.8577   24.6518 H   0  0  0  0  0  0  0  0  0  0  0  0
   11.2285   -5.0312   26.1842 H   0  0  0  0  0  0  0  0  0  0  0  0
    9.7174    1.2380   24.6291 H   0  0  0  0  0  0  0  0  0  0  0  0
    9.7393    2.2335   23.1730 H   0  0  0  0  0  0  0  0  0  0  0  0
    7.6102   -1.2091   21.6640 H   0  0  0  0  0  0  0  0  0  0  0  0
    8.8741   -1.4657   20.4475 H   0  0  0  0  0  0  0  0  0  0  0  0
  1  2  2  0  0  0  0
  1  7  1  0  0  0  0
  2  9  1  0  0  0  0
  3  5  2  0  0  0  0
  3 10  1  0  0  0  0
  4  6  1  0  0  0  0
  4 10  2  0  0  0  0
  5 11  1  0  0  0  0
  6 11  2  0  0  0  0
  7 12  2  0  0  0  0
  8  9  2  0  0  0  0
  8 12  1  0  0  0  0
  9 22  1  0  0  0  0
 10 27  1  0  0  0  0
 11 28  1  0  0  0  0
 12 30  1  0  0  0  0
 13 14  2  0  0  0  0
 13 15  1  0  0  0  0
 13 26  1  0  0  0  0
 14 23  1  0  0  0  0
 14 24  1  0  0  0  0
 15 16  2  0  0  0  0
 16 17  1  0  0  0  0
 17 18  2  0  0  0  0
 18 26  1  0  0  0  0
 19 23  1  0  0  0  0
 19 27  1  0  0  0  0
 19 29  2  0  0  0  0
 20 28  1  0  0  0  0
 21 28  1  0  0  0  0
 22 27  1  0  0  0  0
 24 25  2  0  0  0  0
 25 26  1  0  0  0  0
  1 31  1  0  0  0  0
  2 32  1  0  0  0  0
  3 33  1  0  0  0  0
  4 34  1  0  0  0  0
  5 35  1  0  0  0  0
  6 36  1  0  0  0  0
  7 37  1  0  0  0  0
  8 38  1  0  0  0  0
 15 39  1  0  0  0  0
 16 40  1  0  0  0  0
 17 41  1  0  0  0  0
 18 42  1  0  0  0  0
 20 43  1  0  0  0  0
 20 44  1  0  0  0  0
 20 45  1  0  0  0  0
 21 46  1  0  0  0  0
 21 47  1  0  0  0  0
 21 48  1  0  0  0  0
 22 49  1  0  0  0  0
 22 50  1  0  0  0  0
 23 51  1  0  0  0  0
 23 52  1  0  0  0  0
M  END
> <clash_score>
0.7279325331761322

> <docking_score>
-8.899168968200684

> <overlap_score>
0.9827960133552551

$$$$
BENZO_425_1
  -OEChem-08232013473D

 54 57  0     0  0  0  0  0  0999 V2000
   14.3804    1.0922   23.5496 C   0  0  0  0  0  0  0  0  0  0  0  0
   13.6646    0.4423   24.5549 C   0  0  0  0  0  0  0  0  0  0  0  0
   13.7029    1.8066   22.5614 C   0  0  0  0  0  0  0  0  0  0  0  0
   12.2713    0.5066   24.5722 C   0  0  0  0  0  0  0  0  0  0  0  0
   12.3097    1.8709   22.5786 C   0  0  0  0  0  0  0  0  0  0  0  0
    8.9960   -2.3380   25.5320 C   0  0  0  0  0  0  0  0  0  0  0  0
    9.6730   -3.4710   23.5300 C   0  0  0  0  0  0  0  0  0  0  0  0
    9.0720   -1.1280   24.8640 C   0  0  0  0  0  0  0  0  0  0  0  0
    9.7200   -2.2600   22.8630 C   0  0  0  0  0  0  0  0  0  0  0  0
   11.5938    1.2209   23.5840 C   0  0  0  0  0  0  0  0  0  0  0  0
    9.3070   -3.5340   24.8780 C   0  0  0  0  0  0  0  0  0  0  0  0
    9.3350   -1.0880   23.5010 C   0  0  0  0  0  0  0  0  0  0  0  0
    6.1790    0.5730   19.9990 C   0  0  0  0  0  0  0  0  0  0  0  0
    7.3170   -0.1610   19.8550 C   0  0  0  0  0  0  0  0  0  0  0  0
    5.4210    0.9600   21.0930 C   0  0  0  0  0  0  0  0  0  0  0  0
    4.2750    1.7050   20.8490 C   0  0  0  0  0  0  0  0  0  0  0  0
    3.9160    2.0630   19.5520 C   0  0  0  0  0  0  0  0  0  0  0  0
    4.6890    1.6810   18.4640 C   0  0  0  0  0  0  0  0  0  0  0  0
    9.0420    0.3700   21.5280 C   0  0  0  0  0  0  0  0  0  0  0  0
    9.5333   -6.0236   25.0413 C   0  0  0  0  0  0  0  0  0  0  0  0
   10.6330   -7.3747   26.8774 C   0  0  0  0  0  0  0  0  0  0  0  0
   10.0942    1.2904   23.6018 C   0  0  0  0  0  0  0  0  0  0  0  0
    8.1890   -0.7180   20.8700 C   0  0  0  0  0  0  0  0  0  0  0  0
    9.3523   -7.0865   26.1148 C   0  0  0  0  0  0  0  0  0  0  0  0
    7.6390   -0.2680   18.5410 N   0  0  0  0  0  0  0  0  0  0  0  0
    6.7580    0.3810   17.8350 N   0  0  0  0  0  0  0  0  0  0  0  0
    5.8300    0.9190   18.6970 N   0  0  0  0  0  0  0  0  0  0  0  0
    9.2546   -4.7422   25.5438 N   0  0  0  0  0  0  0  0  0  0  0  0
    9.4560    0.1560   22.8130 N   0  0  0  0  0  0  0  0  0  0  0  0
    9.2690    1.4140   20.9380 O   0  0  0  0  0  0  0  0  0  0  0  0
    9.8805   -6.3052   23.8991 O   0  0  0  0  0  0  0  0  0  0  0  0
   15.4653    1.0431   23.5371 H   0  0  0  0  0  0  0  0  0  0  0  0
   14.1920   -0.1131   25.3251 H   0  0  0  0  0  0  0  0  0  0  0  0
   14.2600    2.3136   21.7791 H   0  0  0  0  0  0  0  0  0  0  0  0
   11.7219   -0.0031   25.3593 H   0  0  0  0  0  0  0  0  0  0  0  0
   11.7903    2.4297   21.8046 H   0  0  0  0  0  0  0  0  0  0  0  0
    8.6895   -2.3529   26.5807 H   0  0  0  0  0  0  0  0  0  0  0  0
    9.9262   -4.3897   22.9916 H   0  0  0  0  0  0  0  0  0  0  0  0
    8.9224   -0.1998   25.4238 H   0  0  0  0  0  0  0  0  0  0  0  0
   10.0649   -2.2343   21.8258 H   0  0  0  0  0  0  0  0  0  0  0  0
    5.6859    0.7081   22.1001 H   0  0  0  0  0  0  0  0  0  0  0  0
    3.6634    2.0033   21.6928 H   0  0  0  0  0  0  0  0  0  0  0  0
    3.0114    2.6564   19.3629 H   0  0  0  0  0  0  0  0  0  0  0  0
    4.4373    1.9516   17.4622 H   0  0  0  0  0  0  0  0  0  0  0  0
   11.4241   -7.7171   26.2022 H   0  0  0  0  0  0  0  0  0  0  0  0
   10.4629   -8.1531   27.6275 H   0  0  0  0  0  0  0  0  0  0  0  0
   10.9950   -6.4780   27.3910 H   0  0  0  0  0  0  0  0  0  0  0  0
    9.7174    1.2380   24.6291 H   0  0  0  0  0  0  0  0  0  0  0  0
    9.7393    2.2335   23.1730 H   0  0  0  0  0  0  0  0  0  0  0  0
    7.6102   -1.2091   21.6640 H   0  0  0  0  0  0  0  0  0  0  0  0
    8.8741   -1.4657   20.4475 H   0  0  0  0  0  0  0  0  0  0  0  0
    8.5795   -6.7463   26.8137 H   0  0  0  0  0  0  0  0  0  0  0  0
    8.9966   -8.0064   25.6366 H   0  0  0  0  0  0  0  0  0  0  0  0
    8.9776   -4.7057   26.5317 H   0  0  0  0  0  0  0  0  0  0  0  0
  1  2  1  0  0  0  0
  1  3  2  0  0  0  0
  2  4  2  0  0  0  0
  3  5  1  0  0  0  0
  4 10  1  0  0  0  0
  5 10  2  0  0  0  0
  6  8  2  0  0  0  0
  6 11  1  0  0  0  0
  7  9  1  0  0  0  0
  7 11  2  0  0  0  0
  8 12  1  0  0  0  0
  9 12  2  0  0  0  0
 10 22  1  0  0  0  0
 11 28  1  0  0  0  0
 12 29  1  0  0  0  0
 13 14  2  0  0  0  0
 13 15  1  0  0  0  0
 13 27  1  0  0  0  0
 14 23  1  0  0  0  0
 14 25  1  0  0  0  0
 15 16  2  0  0  0  0
 16 17  1  0  0  0  0
 17 18  2  0  0  0  0
 18 27  1  0  0  0  0
 19 23  1  0  0  0  0
 19 29  1  0  0  0  0
 19 30  2  0  0  0  0
 20 24  1  0  0  0  0
 20 28  1  0  0  0  0
 20 31  2  0  0  0  0
 21 24  1  0  0  0  0
 22 29  1  0  0  0  0
 25 26  2  0  0  0  0
 26 27  1  0  0  0  0
  1 32  1  0  0  0  0
  2 33  1  0  0  0  0
  3 34  1  0  0  0  0
  4 35  1  0  0  0  0
  5 36  1  0  0  0  0
  6 37  1  0  0  0  0
  7 38  1  0  0  0  0
  8 39  1  0  0  0  0
  9 40  1  0  0  0  0
 15 41  1  0  0  0  0
 16 42  1  0  0  0  0
 17 43  1  0  0  0  0
 18 44  1  0  0  0  0
 21 45  1  0  0  0  0
 21 46  1  0  0  0  0
 21 47  1  0  0  0  0
 22 48  1  0  0  0  0
 22 49  1  0  0  0  0
 23 50  1  0  0  0  0
 23 51  1  0  0  0  0
 24 52  1  0  0  0  0
 24 53  1  0  0  0  0
 28 54  1  0  0  0  0
M  END
> <clash_score>
1.4986045736624285

> <docking_score>
-6.693901538848877

> <overlap_score>
0.9793463945388794

$$$$
BENZO_424_1
  -OEChem-08232013473D

 51 54  0     0  0  0  0  0  0999 V2000
    8.9960   -2.3380   25.5320 C   0  0  0  0  0  0  0  0  0  0  0  0
    9.6730   -3.4710   23.5300 C   0  0  0  0  0  0  0  0  0  0  0  0
    9.0720   -1.1280   24.8640 C   0  0  0  0  0  0  0  0  0  0  0  0
    9.7200   -2.2600   22.8630 C   0  0  0  0  0  0  0  0  0  0  0  0
   12.4430    2.3628   23.6551 C   0  0  0  0  0  0  0  0  0  0  0  0
   13.7765    2.0191   23.6192 C   0  0  0  0  0  0  0  0  0  0  0  0
   12.3107    0.0478   23.4962 C   0  0  0  0  0  0  0  0  0  0  0  0
   11.5938    1.2209   23.5840 C   0  0  0  0  0  0  0  0  0  0  0  0
    9.3070   -3.5340   24.8780 C   0  0  0  0  0  0  0  0  0  0  0  0
    9.3350   -1.0880   23.5010 C   0  0  0  0  0  0  0  0  0  0  0  0
    6.1790    0.5730   19.9990 C   0  0  0  0  0  0  0  0  0  0  0  0
    7.3170   -0.1610   19.8550 C   0  0  0  0  0  0  0  0  0  0  0  0
    5.4210    0.9600   21.0930 C   0  0  0  0  0  0  0  0  0  0  0  0
    4.2750    1.7050   20.8490 C   0  0  0  0  0  0  0  0  0  0  0  0
    3.9160    2.0630   19.5520 C   0  0  0  0  0  0  0  0  0  0  0  0
    4.6890    1.6810   18.4640 C   0  0  0  0  0  0  0  0  0  0  0  0
    9.0420    0.3700   21.5280 C   0  0  0  0  0  0  0  0  0  0  0  0
    9.5333   -6.0236   25.0413 C   0  0  0  0  0  0  0  0  0  0  0  0
   10.6330   -7.3747   26.8774 C   0  0  0  0  0  0  0  0  0  0  0  0
   10.0942    1.2904   23.6018 C   0  0  0  0  0  0  0  0  0  0  0  0
    8.1890   -0.7180   20.8700 C   0  0  0  0  0  0  0  0  0  0  0  0
    9.3523   -7.0865   26.1148 C   0  0  0  0  0  0  0  0  0  0  0  0
    7.6390   -0.2680   18.5410 N   0  0  0  0  0  0  0  0  0  0  0  0
    6.7580    0.3810   17.8350 N   0  0  0  0  0  0  0  0  0  0  0  0
    5.8300    0.9190   18.6970 N   0  0  0  0  0  0  0  0  0  0  0  0
    9.2546   -4.7422   25.5438 N   0  0  0  0  0  0  0  0  0  0  0  0
    9.4560    0.1560   22.8130 N   0  0  0  0  0  0  0  0  0  0  0  0
    9.2690    1.4140   20.9380 O   0  0  0  0  0  0  0  0  0  0  0  0
    9.8805   -6.3052   23.8991 O   0  0  0  0  0  0  0  0  0  0  0  0
   14.0004    0.3256   23.5001 S   0  0  0  0  0  0  0  0  0  0  0  0
    8.6895   -2.3529   26.5807 H   0  0  0  0  0  0  0  0  0  0  0  0
    9.9262   -4.3897   22.9916 H   0  0  0  0  0  0  0  0  0  0  0  0
    8.9224   -0.1998   25.4238 H   0  0  0  0  0  0  0  0  0  0  0  0
   10.0649   -2.2343   21.8258 H   0  0  0  0  0  0  0  0  0  0  0  0
   12.0976    3.3863   23.7286 H   0  0  0  0  0  0  0  0  0  0  0  0
   14.6299    2.6813   23.6565 H   0  0  0  0  0  0  0  0  0  0  0  0
   11.9271   -0.9608   23.4286 H   0  0  0  0  0  0  0  0  0  0  0  0
    5.6859    0.7081   22.1001 H   0  0  0  0  0  0  0  0  0  0  0  0
    3.6634    2.0033   21.6928 H   0  0  0  0  0  0  0  0  0  0  0  0
    3.0114    2.6564   19.3629 H   0  0  0  0  0  0  0  0  0  0  0  0
    4.4373    1.9516   17.4622 H   0  0  0  0  0  0  0  0  0  0  0  0
   11.4241   -7.7171   26.2022 H   0  0  0  0  0  0  0  0  0  0  0  0
   10.4629   -8.1531   27.6275 H   0  0  0  0  0  0  0  0  0  0  0  0
   10.9950   -6.4780   27.3910 H   0  0  0  0  0  0  0  0  0  0  0  0
    9.7174    1.2380   24.6291 H   0  0  0  0  0  0  0  0  0  0  0  0
    9.7393    2.2335   23.1730 H   0  0  0  0  0  0  0  0  0  0  0  0
    7.6102   -1.2091   21.6640 H   0  0  0  0  0  0  0  0  0  0  0  0
    8.8741   -1.4657   20.4475 H   0  0  0  0  0  0  0  0  0  0  0  0
    8.5795   -6.7463   26.8137 H   0  0  0  0  0  0  0  0  0  0  0  0
    8.9966   -8.0064   25.6366 H   0  0  0  0  0  0  0  0  0  0  0  0
    8.9776   -4.7057   26.5317 H   0  0  0  0  0  0  0  0  0  0  0  0
  1  3  2  0  0  0  0
  1  9  1  0  0  0  0
  2  4  1  0  0  0  0
  2  9  2  0  0  0  0
  3 10  1  0  0  0  0
  4 10  2  0  0  0  0
  5  6  2  0  0  0  0
  5  8  1  0  0  0  0
  6 30  1  0  0  0  0
  7  8  2  0  0  0  0
  7 30  1  0  0  0  0
  8 20  1  0  0  0  0
  9 26  1  0  0  0  0
 10 27  1  0  0  0  0
 11 12  2  0  0  0  0
 11 13  1  0  0  0  0
 11 25  1  0  0  0  0
 12 21  1  0  0  0  0
 12 23  1  0  0  0  0
 13 14  2  0  0  0  0
 14 15  1  0  0  0  0
 15 16  2  0  0  0  0
 16 25  1  0  0  0  0
 17 21  1  0  0  0  0
 17 27  1  0  0  0  0
 17 28  2  0  0  0  0
 18 22  1  0  0  0  0
 18 26  1  0  0  0  0
 18 29  2  0  0  0  0
 19 22  1  0  0  0  0
 20 27  1  0  0  0  0
 23 24  2  0  0  0  0
 24 25  1  0  0  0  0
  1 31  1  0  0  0  0
  2 32  1  0  0  0  0
  3 33  1  0  0  0  0
  4 34  1  0  0  0  0
  5 35  1  0  0  0  0
  6 36  1  0  0  0  0
  7 37  1  0  0  0  0
 13 38  1  0  0  0  0
 14 39  1  0  0  0  0
 15 40  1  0  0  0  0
 16 41  1  0  0  0  0
 19 42  1  0  0  0  0
 19 43  1  0  0  0  0
 19 44  1  0  0  0  0
 20 45  1  0  0  0  0
 20 46  1  0  0  0  0
 21 47  1  0  0  0  0
 21 48  1  0  0  0  0
 22 49  1  0  0  0  0
 22 50  1  0  0  0  0
 26 51  1  0  0  0  0
M  END
> <clash_score>
1.4986045736624285

> <docking_score>
-6.1711530685424805

> <overlap_score>
0.9716469049453735

$$$$
BENZO_429_1
  -OEChem-08232013473D

 59 63  0     0  0  0  0  0  0999 V2000
   14.2737    1.3490   23.8824 C   0  0  0  0  0  0  0  0  0  0  0  0
   13.5272    0.6563   24.8356 C   0  0  0  0  0  0  0  0  0  0  0  0
   13.6277    2.0286   22.8497 C   0  0  0  0  0  0  0  0  0  0  0  0
   12.1346    0.6431   24.7559 C   0  0  0  0  0  0  0  0  0  0  0  0
   12.2352    2.0153   22.7700 C   0  0  0  0  0  0  0  0  0  0  0  0
    8.9960   -2.3380   25.5320 C   0  0  0  0  0  0  0  0  0  0  0  0
    9.6730   -3.4710   23.5300 C   0  0  0  0  0  0  0  0  0  0  0  0
    9.0720   -1.1280   24.8640 C   0  0  0  0  0  0  0  0  0  0  0  0
    9.7200   -2.2600   22.8630 C   0  0  0  0  0  0  0  0  0  0  0  0
   11.4886    1.3226   23.7231 C   0  0  0  0  0  0  0  0  0  0  0  0
    9.3070   -3.5340   24.8780 C   0  0  0  0  0  0  0  0  0  0  0  0
    9.3350   -1.0880   23.5010 C   0  0  0  0  0  0  0  0  0  0  0  0
    6.1790    0.5730   19.9990 C   0  0  0  0  0  0  0  0  0  0  0  0
    7.3170   -0.1610   19.8550 C   0  0  0  0  0  0  0  0  0  0  0  0
    5.4210    0.9600   21.0930 C   0  0  0  0  0  0  0  0  0  0  0  0
    4.2750    1.7050   20.8490 C   0  0  0  0  0  0  0  0  0  0  0  0
    3.9160    2.0630   19.5520 C   0  0  0  0  0  0  0  0  0  0  0  0
    4.6890    1.6810   18.4640 C   0  0  0  0  0  0  0  0  0  0  0  0
    9.0420    0.3700   21.5280 C   0  0  0  0  0  0  0  0  0  0  0  0
    7.3635   -6.1361   27.1888 C   0  0  0  0  0  0  0  0  0  0  0  0
    8.1961   -4.9735   27.7341 C   0  0  0  0  0  0  0  0  0  0  0  0
    7.1942   -6.0394   25.6709 C   0  0  0  0  0  0  0  0  0  0  0  0
    9.5196   -4.8490   26.9797 C   0  0  0  0  0  0  0  0  0  0  0  0
    8.5442   -5.8838   24.9639 C   0  0  0  0  0  0  0  0  0  0  0  0
    9.9898    1.3085   23.6366 C   0  0  0  0  0  0  0  0  0  0  0  0
    8.1890   -0.7180   20.8700 C   0  0  0  0  0  0  0  0  0  0  0  0
    7.6390   -0.2680   18.5410 N   0  0  0  0  0  0  0  0  0  0  0  0
    6.7580    0.3810   17.8350 N   0  0  0  0  0  0  0  0  0  0  0  0
    5.8300    0.9190   18.6970 N   0  0  0  0  0  0  0  0  0  0  0  0
    9.2562   -4.7384   25.5422 N   0  0  0  0  0  0  0  0  0  0  0  0
    9.4560    0.1560   22.8130 N   0  0  0  0  0  0  0  0  0  0  0  0
    9.2690    1.4140   20.9380 O   0  0  0  0  0  0  0  0  0  0  0  0
   15.3579    1.3604   23.9454 H   0  0  0  0  0  0  0  0  0  0  0  0
   14.0299    0.1281   25.6404 H   0  0  0  0  0  0  0  0  0  0  0  0
   14.2085    2.5689   22.1081 H   0  0  0  0  0  0  0  0  0  0  0  0
   11.5611    0.1005   25.5028 H   0  0  0  0  0  0  0  0  0  0  0  0
   11.7404    2.5475   21.9618 H   0  0  0  0  0  0  0  0  0  0  0  0
    8.6905   -2.3533   26.5810 H   0  0  0  0  0  0  0  0  0  0  0  0
    9.9266   -4.3896   22.9917 H   0  0  0  0  0  0  0  0  0  0  0  0
    8.9233   -0.1992   25.4231 H   0  0  0  0  0  0  0  0  0  0  0  0
   10.0650   -2.2330   21.8256 H   0  0  0  0  0  0  0  0  0  0  0  0
    5.6859    0.7081   22.1001 H   0  0  0  0  0  0  0  0  0  0  0  0
    3.6634    2.0033   21.6928 H   0  0  0  0  0  0  0  0  0  0  0  0
    3.0114    2.6564   19.3629 H   0  0  0  0  0  0  0  0  0  0  0  0
    4.4373    1.9516   17.4622 H   0  0  0  0  0  0  0  0  0  0  0  0
    7.8482   -7.0901   27.4469 H   0  0  0  0  0  0  0  0  0  0  0  0
    6.3760   -6.1438   27.6724 H   0  0  0  0  0  0  0  0  0  0  0  0
    7.6307   -4.0424   27.6403 H   0  0  0  0  0  0  0  0  0  0  0  0
    8.3915   -5.1310   28.7968 H   0  0  0  0  0  0  0  0  0  0  0  0
    6.6888   -6.9376   25.3010 H   0  0  0  0  0  0  0  0  0  0  0  0
    6.5515   -5.1859   25.4257 H   0  0  0  0  0  0  0  0  0  0  0  0
   10.0492   -3.9640   27.3414 H   0  0  0  0  0  0  0  0  0  0  0  0
   10.1431   -5.7254   27.1778 H   0  0  0  0  0  0  0  0  0  0  0  0
    9.1338   -6.7931   25.0868 H   0  0  0  0  0  0  0  0  0  0  0  0
    8.3656   -5.7264   23.8998 H   0  0  0  0  0  0  0  0  0  0  0  0
    9.5459    1.2490   24.6363 H   0  0  0  0  0  0  0  0  0  0  0  0
    9.6146    2.2245   23.1682 H   0  0  0  0  0  0  0  0  0  0  0  0
    7.5972   -1.2056   21.6500 H   0  0  0  0  0  0  0  0  0  0  0  0
    8.8612   -1.4622   20.4334 H   0  0  0  0  0  0  0  0  0  0  0  0
  1  2  1  0  0  0  0
  1  3  2  0  0  0  0
  2  4  2  0  0  0  0
  3  5  1  0  0  0  0
  4 10  1  0  0  0  0
  5 10  2  0  0  0  0
  6  8  2  0  0  0  0
  6 11  1  0  0  0  0
  7  9  1  0  0  0  0
  7 11  2  0  0  0  0
  8 12  1  0  0  0  0
  9 12  2  0  0  0  0
 10 25  1  0  0  0  0
 11 30  1  0  0  0  0
 12 31  1  0  0  0  0
 13 14  2  0  0  0  0
 13 15  1  0  0  0  0
 13 29  1  0  0  0  0
 14 26  1  0  0  0  0
 14 27  1  0  0  0  0
 15 16  2  0  0  0  0
 16 17  1  0  0  0  0
 17 18  2  0  0  0  0
 18 29  1  0  0  0  0
 19 26  1  0  0  0  0
 19 31  1  0  0  0  0
 19 32  2  0  0  0  0
 20 21  1  0  0  0  0
 20 22  1  0  0  0  0
 21 23  1  0  0  0  0
 22 24  1  0  0  0  0
 23 30  1  0  0  0  0
 24 30  1  0  0  0  0
 25 31  1  0  0  0  0
 27 28  2  0  0  0  0
 28 29  1  0  0  0  0
  1 33  1  0  0  0  0
  2 34  1  0  0  0  0
  3 35  1  0  0  0  0
  4 36  1  0  0  0  0
  5 37  1  0  0  0  0
  6 38  1  0  0  0  0
  7 39  1  0  0  0  0
  8 40  1  0  0  0  0
  9 41  1  0  0  0  0
 15 42  1  0  0  0  0
 16 43  1  0  0  0  0
 17 44  1  0  0  0  0
 18 45  1  0  0  0  0
 20 46  1  0  0  0  0
 20 47  1  0  0  0  0
 21 48  1  0  0  0  0
 21 49  1  0  0  0  0
 22 50  1  0  0  0  0
 22 51  1  0  0  0  0
 23 52  1  0  0  0  0
 23 53  1  0  0  0  0
 24 54  1  0  0  0  0
 24 55  1  0  0  0  0
 25 56  1  0  0  0  0
 25 57  1  0  0  0  0
 26 58  1  0  0  0  0
 26 59  1  0  0  0  0
M  END
> <clash_score>
0

> <docking_score>
-9.01215934753418

> <overlap_score>
0.9931350946426392

$$$$
BENZO_428_1
  -OEChem-08232013473D

 56 60  0     0  0  0  0  0  0999 V2000
    8.9960   -2.3380   25.5320 C   0  0  0  0  0  0  0  0  0  0  0  0
    9.6730   -3.4710   23.5300 C   0  0  0  0  0  0  0  0  0  0  0  0
    9.0720   -1.1280   24.8640 C   0  0  0  0  0  0  0  0  0  0  0  0
    9.7200   -2.2600   22.8630 C   0  0  0  0  0  0  0  0  0  0  0  0
   12.3492    1.3945   22.5898 C   0  0  0  0  0  0  0  0  0  0  0  0
   13.6791    1.3910   22.9490 C   0  0  0  0  0  0  0  0  0  0  0  0
   12.1936    1.2666   24.9054 C   0  0  0  0  0  0  0  0  0  0  0  0
   11.4886    1.3226   23.7231 C   0  0  0  0  0  0  0  0  0  0  0  0
    9.3070   -3.5340   24.8780 C   0  0  0  0  0  0  0  0  0  0  0  0
    9.3350   -1.0880   23.5010 C   0  0  0  0  0  0  0  0  0  0  0  0
    6.1790    0.5730   19.9990 C   0  0  0  0  0  0  0  0  0  0  0  0
    7.3170   -0.1610   19.8550 C   0  0  0  0  0  0  0  0  0  0  0  0
    5.4210    0.9600   21.0930 C   0  0  0  0  0  0  0  0  0  0  0  0
    4.2750    1.7050   20.8490 C   0  0  0  0  0  0  0  0  0  0  0  0
    3.9160    2.0630   19.5520 C   0  0  0  0  0  0  0  0  0  0  0  0
    4.6890    1.6810   18.4640 C   0  0  0  0  0  0  0  0  0  0  0  0
    9.0420    0.3700   21.5280 C   0  0  0  0  0  0  0  0  0  0  0  0
    7.2235   -6.6199   26.3009 C   0  0  0  0  0  0  0  0  0  0  0  0
    7.4293   -5.3101   27.0652 C   0  0  0  0  0  0  0  0  0  0  0  0
    7.7217   -6.5099   24.8580 C   0  0  0  0  0  0  0  0  0  0  0  0
    8.8782   -4.8357   26.9548 C   0  0  0  0  0  0  0  0  0  0  0  0
    9.1652   -6.0007   24.7995 C   0  0  0  0  0  0  0  0  0  0  0  0
    9.9898    1.3085   23.6366 C   0  0  0  0  0  0  0  0  0  0  0  0
    8.1890   -0.7180   20.8700 C   0  0  0  0  0  0  0  0  0  0  0  0
    7.6390   -0.2680   18.5410 N   0  0  0  0  0  0  0  0  0  0  0  0
    6.7580    0.3810   17.8350 N   0  0  0  0  0  0  0  0  0  0  0  0
    5.8300    0.9190   18.6970 N   0  0  0  0  0  0  0  0  0  0  0  0
    9.2562   -4.7384   25.5422 N   0  0  0  0  0  0  0  0  0  0  0  0
    9.4560    0.1560   22.8130 N   0  0  0  0  0  0  0  0  0  0  0  0
    9.2690    1.4140   20.9380 O   0  0  0  0  0  0  0  0  0  0  0  0
   13.8860    1.3012   24.6465 S   0  0  0  0  0  0  0  0  0  0  0  0
    8.6905   -2.3533   26.5810 H   0  0  0  0  0  0  0  0  0  0  0  0
    9.9266   -4.3896   22.9917 H   0  0  0  0  0  0  0  0  0  0  0  0
    8.9233   -0.1992   25.4231 H   0  0  0  0  0  0  0  0  0  0  0  0
   10.0650   -2.2330   21.8256 H   0  0  0  0  0  0  0  0  0  0  0  0
   12.0141    1.4459   21.5616 H   0  0  0  0  0  0  0  0  0  0  0  0
   14.5391    1.4362   22.2958 H   0  0  0  0  0  0  0  0  0  0  0  0
   11.7999    1.2059   25.9105 H   0  0  0  0  0  0  0  0  0  0  0  0
    5.6859    0.7081   22.1001 H   0  0  0  0  0  0  0  0  0  0  0  0
    3.6634    2.0033   21.6928 H   0  0  0  0  0  0  0  0  0  0  0  0
    3.0114    2.6564   19.3629 H   0  0  0  0  0  0  0  0  0  0  0  0
    4.4373    1.9516   17.4622 H   0  0  0  0  0  0  0  0  0  0  0  0
    7.7559   -7.4347   26.8149 H   0  0  0  0  0  0  0  0  0  0  0  0
    6.1572   -6.8883   26.3055 H   0  0  0  0  0  0  0  0  0  0  0  0
    6.7602   -4.5435   26.6651 H   0  0  0  0  0  0  0  0  0  0  0  0
    7.1684   -5.4551   28.1155 H   0  0  0  0  0  0  0  0  0  0  0  0
    7.6595   -7.4899   24.3736 H   0  0  0  0  0  0  0  0  0  0  0  0
    7.0706   -5.8317   24.2943 H   0  0  0  0  0  0  0  0  0  0  0  0
    8.9681   -3.8621   27.4435 H   0  0  0  0  0  0  0  0  0  0  0  0
    9.5387   -5.5390   27.4697 H   0  0  0  0  0  0  0  0  0  0  0  0
    9.8374   -6.7413   25.2344 H   0  0  0  0  0  0  0  0  0  0  0  0
    9.4414   -5.8515   23.7552 H   0  0  0  0  0  0  0  0  0  0  0  0
    9.5459    1.2490   24.6363 H   0  0  0  0  0  0  0  0  0  0  0  0
    9.6146    2.2245   23.1682 H   0  0  0  0  0  0  0  0  0  0  0  0
    7.5972   -1.2056   21.6500 H   0  0  0  0  0  0  0  0  0  0  0  0
    8.8612   -1.4622   20.4334 H   0  0  0  0  0  0  0  0  0  0  0  0
  1  3  2  0  0  0  0
  1  9  1  0  0  0  0
  2  4  1  0  0  0  0
  2  9  2  0  0  0  0
  3 10  1  0  0  0  0
  4 10  2  0  0  0  0
  5  6  2  0  0  0  0
  5  8  1  0  0  0  0
  6 31  1  0  0  0  0
  7  8  2  0  0  0  0
  7 31  1  0  0  0  0
  8 23  1  0  0  0  0
  9 28  1  0  0  0  0
 10 29  1  0  0  0  0
 11 12  2  0  0  0  0
 11 13  1  0  0  0  0
 11 27  1  0  0  0  0
 12 24  1  0  0  0  0
 12 25  1  0  0  0  0
 13 14  2  0  0  0  0
 14 15  1  0  0  0  0
 15 16  2  0  0  0  0
 16 27  1  0  0  0  0
 17 24  1  0  0  0  0
 17 29  1  0  0  0  0
 17 30  2  0  0  0  0
 18 19  1  0  0  0  0
 18 20  1  0  0  0  0
 19 21  1  0  0  0  0
 20 22  1  0  0  0  0
 21 28  1  0  0  0  0
 22 28  1  0  0  0  0
 23 29  1  0  0  0  0
 25 26  2  0  0  0  0
 26 27  1  0  0  0  0
  1 32  1  0  0  0  0
  2 33  1  0  0  0  0
  3 34  1  0  0  0  0
  4 35  1  0  0  0  0
  5 36  1  0  0  0  0
  6 37  1  0  0  0  0
  7 38  1  0  0  0  0
 13 39  1  0  0  0  0
 14 40  1  0  0  0  0
 15 41  1  0  0  0  0
 16 42  1  0  0  0  0
 18 43  1  0  0  0  0
 18 44  1  0  0  0  0
 19 45  1  0  0  0  0
 19 46  1  0  0  0  0
 20 47  1  0  0  0  0
 20 48  1  0  0  0  0
 21 49  1  0  0  0  0
 21 50  1  0  0  0  0
 22 51  1  0  0  0  0
 22 52  1  0  0  0  0
 23 53  1  0  0  0  0
 23 54  1  0  0  0  0
 24 55  1  0  0  0  0
 24 56  1  0  0  0  0
M  END
> <clash_score>
0

> <docking_score>
-8.930185317993164

> <overlap_score>
0.97699373960495

$$$$
BENZO_427_1
  -OEChem-08232013473D

 54 57  0     0  0  0  0  0  0999 V2000
    8.9960   -2.3380   25.5320 C   0  0  0  0  0  0  0  0  0  0  0  0
    9.6730   -3.4710   23.5300 C   0  0  0  0  0  0  0  0  0  0  0  0
    9.0720   -1.1280   24.8640 C   0  0  0  0  0  0  0  0  0  0  0  0
    9.7200   -2.2600   22.8630 C   0  0  0  0  0  0  0  0  0  0  0  0
   12.4868    2.0182   22.8432 C   0  0  0  0  0  0  0  0  0  0  0  0
   12.4029    0.3651   24.2906 C   0  0  0  0  0  0  0  0  0  0  0  0
   11.5938    1.2209   23.5840 C   0  0  0  0  0  0  0  0  0  0  0  0
    9.3070   -3.5340   24.8780 C   0  0  0  0  0  0  0  0  0  0  0  0
    9.3350   -1.0880   23.5010 C   0  0  0  0  0  0  0  0  0  0  0  0
    6.1790    0.5730   19.9990 C   0  0  0  0  0  0  0  0  0  0  0  0
    7.3170   -0.1610   19.8550 C   0  0  0  0  0  0  0  0  0  0  0  0
    5.4210    0.9600   21.0930 C   0  0  0  0  0  0  0  0  0  0  0  0
    4.2750    1.7050   20.8490 C   0  0  0  0  0  0  0  0  0  0  0  0
    3.9160    2.0630   19.5520 C   0  0  0  0  0  0  0  0  0  0  0  0
    4.6890    1.6810   18.4640 C   0  0  0  0  0  0  0  0  0  0  0  0
    9.0420    0.3700   21.5280 C   0  0  0  0  0  0  0  0  0  0  0  0
    9.5333   -6.0236   25.0413 C   0  0  0  0  0  0  0  0  0  0  0  0
   10.6330   -7.3747   26.8774 C   0  0  0  0  0  0  0  0  0  0  0  0
   14.8863    0.0618   24.4316 C   0  0  0  0  0  0  0  0  0  0  0  0
   10.0942    1.2904   23.6018 C   0  0  0  0  0  0  0  0  0  0  0  0
    8.1890   -0.7180   20.8700 C   0  0  0  0  0  0  0  0  0  0  0  0
    9.3523   -7.0865   26.1148 C   0  0  0  0  0  0  0  0  0  0  0  0
   13.7652    1.6975   23.0592 N   0  0  0  0  0  0  0  0  0  0  0  0
    7.6390   -0.2680   18.5410 N   0  0  0  0  0  0  0  0  0  0  0  0
    6.7580    0.3810   17.8350 N   0  0  0  0  0  0  0  0  0  0  0  0
   13.6815    0.6893   23.9439 N   0  0  0  0  0  0  0  0  0  0  0  0
    5.8300    0.9190   18.6970 N   0  0  0  0  0  0  0  0  0  0  0  0
    9.2546   -4.7422   25.5438 N   0  0  0  0  0  0  0  0  0  0  0  0
    9.4560    0.1560   22.8130 N   0  0  0  0  0  0  0  0  0  0  0  0
    9.2690    1.4140   20.9380 O   0  0  0  0  0  0  0  0  0  0  0  0
    9.8805   -6.3052   23.8991 O   0  0  0  0  0  0  0  0  0  0  0  0
    8.6895   -2.3529   26.5807 H   0  0  0  0  0  0  0  0  0  0  0  0
    9.9262   -4.3897   22.9916 H   0  0  0  0  0  0  0  0  0  0  0  0
    8.9224   -0.1998   25.4238 H   0  0  0  0  0  0  0  0  0  0  0  0
   10.0649   -2.2343   21.8258 H   0  0  0  0  0  0  0  0  0  0  0  0
   12.2616    2.8206   22.1550 H   0  0  0  0  0  0  0  0  0  0  0  0
   12.1833   -0.4265   24.9942 H   0  0  0  0  0  0  0  0  0  0  0  0
    5.6859    0.7081   22.1001 H   0  0  0  0  0  0  0  0  0  0  0  0
    3.6634    2.0033   21.6928 H   0  0  0  0  0  0  0  0  0  0  0  0
    3.0114    2.6564   19.3629 H   0  0  0  0  0  0  0  0  0  0  0  0
    4.4373    1.9516   17.4622 H   0  0  0  0  0  0  0  0  0  0  0  0
   11.4241   -7.7171   26.2022 H   0  0  0  0  0  0  0  0  0  0  0  0
   10.4629   -8.1531   27.6275 H   0  0  0  0  0  0  0  0  0  0  0  0
   10.9950   -6.4780   27.3910 H   0  0  0  0  0  0  0  0  0  0  0  0
   15.1288   -0.7682   23.7627 H   0  0  0  0  0  0  0  0  0  0  0  0
   15.6989    0.7935   24.4431 H   0  0  0  0  0  0  0  0  0  0  0  0
   14.7177   -0.3023   25.4489 H   0  0  0  0  0  0  0  0  0  0  0  0
    9.7174    1.2380   24.6291 H   0  0  0  0  0  0  0  0  0  0  0  0
    9.7393    2.2335   23.1730 H   0  0  0  0  0  0  0  0  0  0  0  0
    7.6102   -1.2091   21.6640 H   0  0  0  0  0  0  0  0  0  0  0  0
    8.8741   -1.4657   20.4475 H   0  0  0  0  0  0  0  0  0  0  0  0
    8.5795   -6.7463   26.8137 H   0  0  0  0  0  0  0  0  0  0  0  0
    8.9966   -8.0064   25.6366 H   0  0  0  0  0  0  0  0  0  0  0  0
    8.9776   -4.7057   26.5317 H   0  0  0  0  0  0  0  0  0  0  0  0
  1  3  2  0  0  0  0
  1  8  1  0  0  0  0
  2  4  1  0  0  0  0
  2  8  2  0  0  0  0
  3  9  1  0  0  0  0
  4  9  2  0  0  0  0
  5  7  1  0  0  0  0
  5 23  2  0  0  0  0
  6  7  2  0  0  0  0
  6 26  1  0  0  0  0
  7 20  1  0  0  0  0
  8 28  1  0  0  0  0
  9 29  1  0  0  0  0
 10 11  2  0  0  0  0
 10 12  1  0  0  0  0
 10 27  1  0  0  0  0
 11 21  1  0  0  0  0
 11 24  1  0  0  0  0
 12 13  2  0  0  0  0
 13 14  1  0  0  0  0
 14 15  2  0  0  0  0
 15 27  1  0  0  0  0
 16 21  1  0  0  0  0
 16 29  1  0  0  0  0
 16 30  2  0  0  0  0
 17 22  1  0  0  0  0
 17 28  1  0  0  0  0
 17 31  2  0  0  0  0
 18 22  1  0  0  0  0
 19 26  1  0  0  0  0
 20 29  1  0  0  0  0
 23 26  1  0  0  0  0
 24 25  2  0  0  0  0
 25 27  1  0  0  0  0
  1 32  1  0  0  0  0
  2 33  1  0  0  0  0
  3 34  1  0  0  0  0
  4 35  1  0  0  0  0
  5 36  1  0  0  0  0
  6 37  1  0  0  0  0
 12 38  1  0  0  0  0
 13 39  1  0  0  0  0
 14 40  1  0  0  0  0
 15 41  1  0  0  0  0
 18 42  1  0  0  0  0
 18 43  1  0  0  0  0
 18 44  1  0  0  0  0
 19 45  1  0  0  0  0
 19 46  1  0  0  0  0
 19 47  1  0  0  0  0
 20 48  1  0  0  0  0
 20 49  1  0  0  0  0
 21 50  1  0  0  0  0
 21 51  1  0  0  0  0
 22 52  1  0  0  0  0
 22 53  1  0  0  0  0
 28 54  1  0  0  0  0
M  END
> <clash_score>
1.4986045736624285

> <docking_score>
-6.470234394073486

> <overlap_score>
0.9820378422737122

$$$$
BENZO_426_1
  -OEChem-08232013473D

 54 57  0     0  0  0  0  0  0999 V2000
   13.7159    2.0356   22.7654 C   0  0  0  0  0  0  0  0  0  0  0  0
   12.3226    2.0988   22.7815 C   0  0  0  0  0  0  0  0  0  0  0  0
    8.9960   -2.3380   25.5320 C   0  0  0  0  0  0  0  0  0  0  0  0
    9.6730   -3.4710   23.5300 C   0  0  0  0  0  0  0  0  0  0  0  0
    9.0720   -1.1280   24.8640 C   0  0  0  0  0  0  0  0  0  0  0  0
    9.7200   -2.2600   22.8630 C   0  0  0  0  0  0  0  0  0  0  0  0
   14.3805    1.0944   23.5516 C   0  0  0  0  0  0  0  0  0  0  0  0
   12.2584    0.2798   24.3703 C   0  0  0  0  0  0  0  0  0  0  0  0
   11.5938    1.2209   23.5840 C   0  0  0  0  0  0  0  0  0  0  0  0
    9.3070   -3.5340   24.8780 C   0  0  0  0  0  0  0  0  0  0  0  0
    9.3350   -1.0880   23.5010 C   0  0  0  0  0  0  0  0  0  0  0  0
   13.6518    0.2165   24.3541 C   0  0  0  0  0  0  0  0  0  0  0  0
    6.1790    0.5730   19.9990 C   0  0  0  0  0  0  0  0  0  0  0  0
    7.3170   -0.1610   19.8550 C   0  0  0  0  0  0  0  0  0  0  0  0
    5.4210    0.9600   21.0930 C   0  0  0  0  0  0  0  0  0  0  0  0
    4.2750    1.7050   20.8490 C   0  0  0  0  0  0  0  0  0  0  0  0
    3.9160    2.0630   19.5520 C   0  0  0  0  0  0  0  0  0  0  0  0
    4.6890    1.6810   18.4640 C   0  0  0  0  0  0  0  0  0  0  0  0
    9.0420    0.3700   21.5280 C   0  0  0  0  0  0  0  0  0  0  0  0
    9.5333   -6.0236   25.0413 C   0  0  0  0  0  0  0  0  0  0  0  0
   10.6330   -7.3747   26.8774 C   0  0  0  0  0  0  0  0  0  0  0  0
   10.0942    1.2904   23.6018 C   0  0  0  0  0  0  0  0  0  0  0  0
    8.1890   -0.7180   20.8700 C   0  0  0  0  0  0  0  0  0  0  0  0
    9.3523   -7.0865   26.1148 C   0  0  0  0  0  0  0  0  0  0  0  0
    7.6390   -0.2680   18.5410 N   0  0  0  0  0  0  0  0  0  0  0  0
    6.7580    0.3810   17.8350 N   0  0  0  0  0  0  0  0  0  0  0  0
    5.8300    0.9190   18.6970 N   0  0  0  0  0  0  0  0  0  0  0  0
    9.2546   -4.7422   25.5438 N   0  0  0  0  0  0  0  0  0  0  0  0
    9.4560    0.1560   22.8130 N   0  0  0  0  0  0  0  0  0  0  0  0
    9.2690    1.4140   20.9380 O   0  0  0  0  0  0  0  0  0  0  0  0
    9.8805   -6.3052   23.8991 O   0  0  0  0  0  0  0  0  0  0  0  0
   14.4724   -0.9437   25.3248 Cl  0  0  0  0  0  0  0  0  0  0  0  0
   14.2830    2.7195   22.1405 H   0  0  0  0  0  0  0  0  0  0  0  0
   11.8131    2.8354   22.1658 H   0  0  0  0  0  0  0  0  0  0  0  0
    8.6895   -2.3529   26.5807 H   0  0  0  0  0  0  0  0  0  0  0  0
    9.9262   -4.3897   22.9916 H   0  0  0  0  0  0  0  0  0  0  0  0
    8.9224   -0.1998   25.4238 H   0  0  0  0  0  0  0  0  0  0  0  0
   10.0649   -2.2343   21.8258 H   0  0  0  0  0  0  0  0  0  0  0  0
   15.4669    1.0568   23.5293 H   0  0  0  0  0  0  0  0  0  0  0  0
   11.6857   -0.4028   24.9939 H   0  0  0  0  0  0  0  0  0  0  0  0
    5.6859    0.7081   22.1001 H   0  0  0  0  0  0  0  0  0  0  0  0
    3.6634    2.0033   21.6928 H   0  0  0  0  0  0  0  0  0  0  0  0
    3.0114    2.6564   19.3629 H   0  0  0  0  0  0  0  0  0  0  0  0
    4.4373    1.9516   17.4622 H   0  0  0  0  0  0  0  0  0  0  0  0
   11.4241   -7.7171   26.2022 H   0  0  0  0  0  0  0  0  0  0  0  0
   10.4629   -8.1531   27.6275 H   0  0  0  0  0  0  0  0  0  0  0  0
   10.9950   -6.4780   27.3910 H   0  0  0  0  0  0  0  0  0  0  0  0
    9.7174    1.2380   24.6291 H   0  0  0  0  0  0  0  0  0  0  0  0
    9.7393    2.2335   23.1730 H   0  0  0  0  0  0  0  0  0  0  0  0
    7.6102   -1.2091   21.6640 H   0  0  0  0  0  0  0  0  0  0  0  0
    8.8741   -1.4657   20.4475 H   0  0  0  0  0  0  0  0  0  0  0  0
    8.5795   -6.7463   26.8137 H   0  0  0  0  0  0  0  0  0  0  0  0
    8.9966   -8.0064   25.6366 H   0  0  0  0  0  0  0  0  0  0  0  0
    8.9776   -4.7057   26.5317 H   0  0  0  0  0  0  0  0  0  0  0  0
  1  2  2  0  0  0  0
  1  7  1  0  0  0  0
  2  9  1  0  0  0  0
  3  5  2  0  0  0  0
  3 10  1  0  0  0  0
  4  6  1  0  0  0  0
  4 10  2  0  0  0  0
  5 11  1  0  0  0  0
  6 11  2  0  0  0  0
  7 12  2  0  0  0  0
  8  9  2  0  0  0  0
  8 12  1  0  0  0  0
  9 22  1  0  0  0  0
 10 28  1  0  0  0  0
 11 29  1  0  0  0  0
 12 32  1  0  0  0  0
 13 14  2  0  0  0  0
 13 15  1  0  0  0  0
 13 27  1  0  0  0  0
 14 23  1  0  0  0  0
 14 25  1  0  0  0  0
 15 16  2  0  0  0  0
 16 17  1  0  0  0  0
 17 18  2  0  0  0  0
 18 27  1  0  0  0  0
 19 23  1  0  0  0  0
 19 29  1  0  0  0  0
 19 30  2  0  0  0  0
 20 24  1  0  0  0  0
 20 28  1  0  0  0  0
 20 31  2  0  0  0  0
 21 24  1  0  0  0  0
 22 29  1  0  0  0  0
 25 26  2  0  0  0  0
 26 27  1  0  0  0  0
  1 33  1  0  0  0  0
  2 34  1  0  0  0  0
  3 35  1  0  0  0  0
  4 36  1  0  0  0  0
  5 37  1  0  0  0  0
  6 38  1  0  0  0  0
  7 39  1  0  0  0  0
  8 40  1  0  0  0  0
 15 41  1  0  0  0  0
 16 42  1  0  0  0  0
 17 43  1  0  0  0  0
 18 44  1  0  0  0  0
 21 45  1  0  0  0  0
 21 46  1  0  0  0  0
 21 47  1  0  0  0  0
 22 48  1  0  0  0  0
 22 49  1  0  0  0  0
 23 50  1  0  0  0  0
 23 51  1  0  0  0  0
 24 52  1  0  0  0  0
 24 53  1  0  0  0  0
 28 54  1  0  0  0  0
M  END
> <clash_score>
2.2265371068385607

> <docking_score>
-5.704860210418701

> <overlap_score>
0.9849950671195984

$$$$
BENZO_433_1
  -OEChem-08232013473D

 47 50  0     0  0  0  0  0  0999 V2000
   14.3803    1.0905   23.5513 C   0  0  0  0  0  0  0  0  0  0  0  0
   13.7412    2.3262   23.6519 C   0  0  0  0  0  0  0  0  0  0  0  0
   13.6263   -0.0800   23.4670 C   0  0  0  0  0  0  0  0  0  0  0  0
   12.3479    2.3914   23.6683 C   0  0  0  0  0  0  0  0  0  0  0  0
   12.2331   -0.0148   23.4834 C   0  0  0  0  0  0  0  0  0  0  0  0
    8.9960   -2.3380   25.5320 C   0  0  0  0  0  0  0  0  0  0  0  0
    9.6730   -3.4710   23.5300 C   0  0  0  0  0  0  0  0  0  0  0  0
    9.0720   -1.1280   24.8640 C   0  0  0  0  0  0  0  0  0  0  0  0
    9.7200   -2.2600   22.8630 C   0  0  0  0  0  0  0  0  0  0  0  0
    9.3070   -3.5340   24.8780 C   0  0  0  0  0  0  0  0  0  0  0  0
   11.5938    1.2209   23.5840 C   0  0  0  0  0  0  0  0  0  0  0  0
    9.3350   -1.0880   23.5010 C   0  0  0  0  0  0  0  0  0  0  0  0
    6.1790    0.5730   19.9990 C   0  0  0  0  0  0  0  0  0  0  0  0
    7.3170   -0.1610   19.8550 C   0  0  0  0  0  0  0  0  0  0  0  0
    5.4210    0.9600   21.0930 C   0  0  0  0  0  0  0  0  0  0  0  0
    4.2750    1.7050   20.8490 C   0  0  0  0  0  0  0  0  0  0  0  0
    3.9160    2.0630   19.5520 C   0  0  0  0  0  0  0  0  0  0  0  0
    4.6890    1.6810   18.4640 C   0  0  0  0  0  0  0  0  0  0  0  0
    9.0420    0.3700   21.5280 C   0  0  0  0  0  0  0  0  0  0  0  0
    9.2505   -4.8264   25.5904 C   0  0  0  0  0  0  0  0  0  0  0  0
   10.0942    1.2904   23.6018 C   0  0  0  0  0  0  0  0  0  0  0  0
    8.1890   -0.7180   20.8700 C   0  0  0  0  0  0  0  0  0  0  0  0
    7.6390   -0.2680   18.5410 N   0  0  0  0  0  0  0  0  0  0  0  0
    6.7580    0.3810   17.8350 N   0  0  0  0  0  0  0  0  0  0  0  0
    5.8300    0.9190   18.6970 N   0  0  0  0  0  0  0  0  0  0  0  0
    9.4560    0.1560   22.8130 N   0  0  0  0  0  0  0  0  0  0  0  0
    9.2690    1.4140   20.9380 O   0  0  0  0  0  0  0  0  0  0  0  0
   15.4652    1.0400   23.5373 H   0  0  0  0  0  0  0  0  0  0  0  0
   14.3281    3.2378   23.7165 H   0  0  0  0  0  0  0  0  0  0  0  0
   14.1236   -1.0421   23.3876 H   0  0  0  0  0  0  0  0  0  0  0  0
   11.8585    3.3586   23.7472 H   0  0  0  0  0  0  0  0  0  0  0  0
   11.6537   -0.9319   23.4173 H   0  0  0  0  0  0  0  0  0  0  0  0
    8.6919   -2.3557   26.5813 H   0  0  0  0  0  0  0  0  0  0  0  0
    9.9267   -4.3907   22.9939 H   0  0  0  0  0  0  0  0  0  0  0  0
    8.9217   -0.1995   25.4231 H   0  0  0  0  0  0  0  0  0  0  0  0
   10.0653   -2.2339   21.8256 H   0  0  0  0  0  0  0  0  0  0  0  0
    5.6859    0.7081   22.1001 H   0  0  0  0  0  0  0  0  0  0  0  0
    3.6634    2.0033   21.6928 H   0  0  0  0  0  0  0  0  0  0  0  0
    3.0114    2.6564   19.3629 H   0  0  0  0  0  0  0  0  0  0  0  0
    4.4373    1.9516   17.4622 H   0  0  0  0  0  0  0  0  0  0  0  0
    8.2503   -5.2678   25.5020 H   0  0  0  0  0  0  0  0  0  0  0  0
    9.9817   -5.5374   25.1845 H   0  0  0  0  0  0  0  0  0  0  0  0
    9.4841   -4.7043   26.6562 H   0  0  0  0  0  0  0  0  0  0  0  0
    9.7174    1.2380   24.6291 H   0  0  0  0  0  0  0  0  0  0  0  0
    9.7393    2.2335   23.1730 H   0  0  0  0  0  0  0  0  0  0  0  0
    7.6102   -1.2091   21.6640 H   0  0  0  0  0  0  0  0  0  0  0  0
    8.8741   -1.4657   20.4475 H   0  0  0  0  0  0  0  0  0  0  0  0
  1  2  1  0  0  0  0
  1  3  2  0  0  0  0
  2  4  2  0  0  0  0
  3  5  1  0  0  0  0
  4 11  1  0  0  0  0
  5 11  2  0  0  0  0
  6  8  2  0  0  0  0
  6 10  1  0  0  0  0
  7  9  1  0  0  0  0
  7 10  2  0  0  0  0
  8 12  1  0  0  0  0
  9 12  2  0  0  0  0
 10 20  1  0  0  0  0
 11 21  1  0  0  0  0
 12 26  1  0  0  0  0
 13 14  2  0  0  0  0
 13 15  1  0  0  0  0
 13 25  1  0  0  0  0
 14 22  1  0  0  0  0
 14 23  1  0  0  0  0
 15 16  2  0  0  0  0
 16 17  1  0  0  0  0
 17 18  2  0  0  0  0
 18 25  1  0  0  0  0
 19 22  1  0  0  0  0
 19 26  1  0  0  0  0
 19 27  2  0  0  0  0
 21 26  1  0  0  0  0
 23 24  2  0  0  0  0
 24 25  1  0  0  0  0
  1 28  1  0  0  0  0
  2 29  1  0  0  0  0
  3 30  1  0  0  0  0
  4 31  1  0  0  0  0
  5 32  1  0  0  0  0
  6 33  1  0  0  0  0
  7 34  1  0  0  0  0
  8 35  1  0  0  0  0
  9 36  1  0  0  0  0
 15 37  1  0  0  0  0
 16 38  1  0  0  0  0
 17 39  1  0  0  0  0
 18 40  1  0  0  0  0
 20 41  1  0  0  0  0
 20 42  1  0  0  0  0
 20 43  1  0  0  0  0
 21 44  1  0  0  0  0
 21 45  1  0  0  0  0
 22 46  1  0  0  0  0
 22 47  1  0  0  0  0
M  END
> <clash_score>
0

> <docking_score>
-7.921499252319336

> <overlap_score>
0.9424048066139221

$$$$
BENZO_432_1
  -OEChem-08232013473D

 44 47  0     0  0  0  0  0  0999 V2000
    8.9960   -2.3380   25.5320 C   0  0  0  0  0  0  0  0  0  0  0  0
    9.6730   -3.4710   23.5300 C   0  0  0  0  0  0  0  0  0  0  0  0
    9.0720   -1.1280   24.8640 C   0  0  0  0  0  0  0  0  0  0  0  0
    9.7200   -2.2600   22.8630 C   0  0  0  0  0  0  0  0  0  0  0  0
   12.4430    2.3628   23.6551 C   0  0  0  0  0  0  0  0  0  0  0  0
   13.7765    2.0191   23.6192 C   0  0  0  0  0  0  0  0  0  0  0  0
   12.3107    0.0478   23.4962 C   0  0  0  0  0  0  0  0  0  0  0  0
    9.3070   -3.5340   24.8780 C   0  0  0  0  0  0  0  0  0  0  0  0
   11.5938    1.2209   23.5840 C   0  0  0  0  0  0  0  0  0  0  0  0
    9.3350   -1.0880   23.5010 C   0  0  0  0  0  0  0  0  0  0  0  0
    6.1790    0.5730   19.9990 C   0  0  0  0  0  0  0  0  0  0  0  0
    7.3170   -0.1610   19.8550 C   0  0  0  0  0  0  0  0  0  0  0  0
    5.4210    0.9600   21.0930 C   0  0  0  0  0  0  0  0  0  0  0  0
    4.2750    1.7050   20.8490 C   0  0  0  0  0  0  0  0  0  0  0  0
    3.9160    2.0630   19.5520 C   0  0  0  0  0  0  0  0  0  0  0  0
    4.6890    1.6810   18.4640 C   0  0  0  0  0  0  0  0  0  0  0  0
    9.0420    0.3700   21.5280 C   0  0  0  0  0  0  0  0  0  0  0  0
    9.2505   -4.8264   25.5904 C   0  0  0  0  0  0  0  0  0  0  0  0
   10.0942    1.2904   23.6018 C   0  0  0  0  0  0  0  0  0  0  0  0
    8.1890   -0.7180   20.8700 C   0  0  0  0  0  0  0  0  0  0  0  0
    7.6390   -0.2680   18.5410 N   0  0  0  0  0  0  0  0  0  0  0  0
    6.7580    0.3810   17.8350 N   0  0  0  0  0  0  0  0  0  0  0  0
    5.8300    0.9190   18.6970 N   0  0  0  0  0  0  0  0  0  0  0  0
    9.4560    0.1560   22.8130 N   0  0  0  0  0  0  0  0  0  0  0  0
    9.2690    1.4140   20.9380 O   0  0  0  0  0  0  0  0  0  0  0  0
   14.0004    0.3256   23.5001 S   0  0  0  0  0  0  0  0  0  0  0  0
    8.6919   -2.3557   26.5813 H   0  0  0  0  0  0  0  0  0  0  0  0
    9.9267   -4.3907   22.9939 H   0  0  0  0  0  0  0  0  0  0  0  0
    8.9217   -0.1995   25.4231 H   0  0  0  0  0  0  0  0  0  0  0  0
   10.0653   -2.2339   21.8256 H   0  0  0  0  0  0  0  0  0  0  0  0
   12.0976    3.3863   23.7286 H   0  0  0  0  0  0  0  0  0  0  0  0
   14.6299    2.6813   23.6565 H   0  0  0  0  0  0  0  0  0  0  0  0
   11.9271   -0.9608   23.4286 H   0  0  0  0  0  0  0  0  0  0  0  0
    5.6859    0.7081   22.1001 H   0  0  0  0  0  0  0  0  0  0  0  0
    3.6634    2.0033   21.6928 H   0  0  0  0  0  0  0  0  0  0  0  0
    3.0114    2.6564   19.3629 H   0  0  0  0  0  0  0  0  0  0  0  0
    4.4373    1.9516   17.4622 H   0  0  0  0  0  0  0  0  0  0  0  0
    8.2503   -5.2678   25.5020 H   0  0  0  0  0  0  0  0  0  0  0  0
    9.9817   -5.5374   25.1845 H   0  0  0  0  0  0  0  0  0  0  0  0
    9.4841   -4.7043   26.6562 H   0  0  0  0  0  0  0  0  0  0  0  0
    9.7174    1.2380   24.6291 H   0  0  0  0  0  0  0  0  0  0  0  0
    9.7393    2.2335   23.1730 H   0  0  0  0  0  0  0  0  0  0  0  0
    7.6102   -1.2091   21.6640 H   0  0  0  0  0  0  0  0  0  0  0  0
    8.8741   -1.4657   20.4475 H   0  0  0  0  0  0  0  0  0  0  0  0
  1  3  2  0  0  0  0
  1  8  1  0  0  0  0
  2  4  1  0  0  0  0
  2  8  2  0  0  0  0
  3 10  1  0  0  0  0
  4 10  2  0  0  0  0
  5  6  2  0  0  0  0
  5  9  1  0  0  0  0
  6 26  1  0  0  0  0
  7  9  2  0  0  0  0
  7 26  1  0  0  0  0
  8 18  1  0  0  0  0
  9 19  1  0  0  0  0
 10 24  1  0  0  0  0
 11 12  2  0  0  0  0
 11 13  1  0  0  0  0
 11 23  1  0  0  0  0
 12 20  1  0  0  0  0
 12 21  1  0  0  0  0
 13 14  2  0  0  0  0
 14 15  1  0  0  0  0
 15 16  2  0  0  0  0
 16 23  1  0  0  0  0
 17 20  1  0  0  0  0
 17 24  1  0  0  0  0
 17 25  2  0  0  0  0
 19 24  1  0  0  0  0
 21 22  2  0  0  0  0
 22 23  1  0  0  0  0
  1 27  1  0  0  0  0
  2 28  1  0  0  0  0
  3 29  1  0  0  0  0
  4 30  1  0  0  0  0
  5 31  1  0  0  0  0
  6 32  1  0  0  0  0
  7 33  1  0  0  0  0
 13 34  1  0  0  0  0
 14 35  1  0  0  0  0
 15 36  1  0  0  0  0
 16 37  1  0  0  0  0
 18 38  1  0  0  0  0
 18 39  1  0  0  0  0
 18 40  1  0  0  0  0
 19 41  1  0  0  0  0
 19 42  1  0  0  0  0
 20 43  1  0  0  0  0
 20 44  1  0  0  0  0
M  END
> <clash_score>
0

> <docking_score>
-8.706257820129395

> <overlap_score>
0.9307132363319397

$$$$
BENZO_430_1
  -OEChem-08232013473D

 59 63  0     0  0  0  0  0  0999 V2000
   13.5386    0.4411   24.6489 C   0  0  0  0  0  0  0  0  0  0  0  0
   12.1462    0.4294   24.5690 C   0  0  0  0  0  0  0  0  0  0  0  0
    8.9960   -2.3380   25.5320 C   0  0  0  0  0  0  0  0  0  0  0  0
    9.6730   -3.4710   23.5300 C   0  0  0  0  0  0  0  0  0  0  0  0
    9.0720   -1.1280   24.8640 C   0  0  0  0  0  0  0  0  0  0  0  0
    9.7200   -2.2600   22.8630 C   0  0  0  0  0  0  0  0  0  0  0  0
   14.2736    1.3462   23.8831 C   0  0  0  0  0  0  0  0  0  0  0  0
   12.2236    2.2276   22.9572 C   0  0  0  0  0  0  0  0  0  0  0  0
   11.4886    1.3226   23.7231 C   0  0  0  0  0  0  0  0  0  0  0  0
    9.3070   -3.5340   24.8780 C   0  0  0  0  0  0  0  0  0  0  0  0
    9.3350   -1.0880   23.5010 C   0  0  0  0  0  0  0  0  0  0  0  0
   13.6161    2.2394   23.0373 C   0  0  0  0  0  0  0  0  0  0  0  0
    6.1790    0.5730   19.9990 C   0  0  0  0  0  0  0  0  0  0  0  0
    7.3170   -0.1610   19.8550 C   0  0  0  0  0  0  0  0  0  0  0  0
    5.4210    0.9600   21.0930 C   0  0  0  0  0  0  0  0  0  0  0  0
    4.2750    1.7050   20.8490 C   0  0  0  0  0  0  0  0  0  0  0  0
    3.9160    2.0630   19.5520 C   0  0  0  0  0  0  0  0  0  0  0  0
    4.6890    1.6810   18.4640 C   0  0  0  0  0  0  0  0  0  0  0  0
    9.0420    0.3700   21.5280 C   0  0  0  0  0  0  0  0  0  0  0  0
    7.3635   -6.1361   27.1888 C   0  0  0  0  0  0  0  0  0  0  0  0
    8.1961   -4.9735   27.7341 C   0  0  0  0  0  0  0  0  0  0  0  0
    7.1942   -6.0394   25.6709 C   0  0  0  0  0  0  0  0  0  0  0  0
    9.5196   -4.8490   26.9797 C   0  0  0  0  0  0  0  0  0  0  0  0
    8.5442   -5.8838   24.9639 C   0  0  0  0  0  0  0  0  0  0  0  0
    9.9898    1.3085   23.6366 C   0  0  0  0  0  0  0  0  0  0  0  0
    8.1890   -0.7180   20.8700 C   0  0  0  0  0  0  0  0  0  0  0  0
    7.6390   -0.2680   18.5410 N   0  0  0  0  0  0  0  0  0  0  0  0
    6.7580    0.3810   17.8350 N   0  0  0  0  0  0  0  0  0  0  0  0
    5.8300    0.9190   18.6970 N   0  0  0  0  0  0  0  0  0  0  0  0
    9.2562   -4.7384   25.5422 N   0  0  0  0  0  0  0  0  0  0  0  0
    9.4560    0.1560   22.8130 N   0  0  0  0  0  0  0  0  0  0  0  0
    9.2690    1.4140   20.9380 O   0  0  0  0  0  0  0  0  0  0  0  0
   14.5235    3.3549   22.0918 Cl  0  0  0  0  0  0  0  0  0  0  0  0
   14.0503   -0.2547   25.3076 H   0  0  0  0  0  0  0  0  0  0  0  0
   11.5816   -0.2793   25.1692 H   0  0  0  0  0  0  0  0  0  0  0  0
    8.6905   -2.3533   26.5810 H   0  0  0  0  0  0  0  0  0  0  0  0
    9.9266   -4.3896   22.9917 H   0  0  0  0  0  0  0  0  0  0  0  0
    8.9233   -0.1992   25.4231 H   0  0  0  0  0  0  0  0  0  0  0  0
   10.0650   -2.2330   21.8256 H   0  0  0  0  0  0  0  0  0  0  0  0
   15.3585    1.3438   23.9554 H   0  0  0  0  0  0  0  0  0  0  0  0
   11.7062    2.9223   22.2996 H   0  0  0  0  0  0  0  0  0  0  0  0
    5.6859    0.7081   22.1001 H   0  0  0  0  0  0  0  0  0  0  0  0
    3.6634    2.0033   21.6928 H   0  0  0  0  0  0  0  0  0  0  0  0
    3.0114    2.6564   19.3629 H   0  0  0  0  0  0  0  0  0  0  0  0
    4.4373    1.9516   17.4622 H   0  0  0  0  0  0  0  0  0  0  0  0
    7.8482   -7.0901   27.4469 H   0  0  0  0  0  0  0  0  0  0  0  0
    6.3760   -6.1438   27.6724 H   0  0  0  0  0  0  0  0  0  0  0  0
    7.6307   -4.0424   27.6403 H   0  0  0  0  0  0  0  0  0  0  0  0
    8.3915   -5.1310   28.7968 H   0  0  0  0  0  0  0  0  0  0  0  0
    6.6888   -6.9376   25.3010 H   0  0  0  0  0  0  0  0  0  0  0  0
    6.5515   -5.1859   25.4257 H   0  0  0  0  0  0  0  0  0  0  0  0
   10.0492   -3.9640   27.3414 H   0  0  0  0  0  0  0  0  0  0  0  0
   10.1431   -5.7254   27.1778 H   0  0  0  0  0  0  0  0  0  0  0  0
    9.1338   -6.7931   25.0868 H   0  0  0  0  0  0  0  0  0  0  0  0
    8.3656   -5.7264   23.8998 H   0  0  0  0  0  0  0  0  0  0  0  0
    9.5459    1.2490   24.6363 H   0  0  0  0  0  0  0  0  0  0  0  0
    9.6146    2.2245   23.1682 H   0  0  0  0  0  0  0  0  0  0  0  0
    7.5972   -1.2056   21.6500 H   0  0  0  0  0  0  0  0  0  0  0  0
    8.8612   -1.4622   20.4334 H   0  0  0  0  0  0  0  0  0  0  0  0
  1  2  2  0  0  0  0
  1  7  1  0  0  0  0
  2  9  1  0  0  0  0
  3  5  2  0  0  0  0
  3 10  1  0  0  0  0
  4  6  1  0  0  0  0
  4 10  2  0  0  0  0
  5 11  1  0  0  0  0
  6 11  2  0  0  0  0
  7 12  2  0  0  0  0
  8  9  2  0  0  0  0
  8 12  1  0  0  0  0
  9 25  1  0  0  0  0
 10 30  1  0  0  0  0
 11 31  1  0  0  0  0
 12 33  1  0  0  0  0
 13 14  2  0  0  0  0
 13 15  1  0  0  0  0
 13 29  1  0  0  0  0
 14 26  1  0  0  0  0
 14 27  1  0  0  0  0
 15 16  2  0  0  0  0
 16 17  1  0  0  0  0
 17 18  2  0  0  0  0
 18 29  1  0  0  0  0
 19 26  1  0  0  0  0
 19 31  1  0  0  0  0
 19 32  2  0  0  0  0
 20 21  1  0  0  0  0
 20 22  1  0  0  0  0
 21 23  1  0  0  0  0
 22 24  1  0  0  0  0
 23 30  1  0  0  0  0
 24 30  1  0  0  0  0
 25 31  1  0  0  0  0
 27 28  2  0  0  0  0
 28 29  1  0  0  0  0
  1 34  1  0  0  0  0
  2 35  1  0  0  0  0
  3 36  1  0  0  0  0
  4 37  1  0  0  0  0
  5 38  1  0  0  0  0
  6 39  1  0  0  0  0
  7 40  1  0  0  0  0
  8 41  1  0  0  0  0
 15 42  1  0  0  0  0
 16 43  1  0  0  0  0
 17 44  1  0  0  0  0
 18 45  1  0  0  0  0
 20 46  1  0  0  0  0
 20 47  1  0  0  0  0
 21 48  1  0  0  0  0
 21 49  1  0  0  0  0
 22 50  1  0  0  0  0
 22 51  1  0  0  0  0
 23 52  1  0  0  0  0
 23 53  1  0  0  0  0
 24 54  1  0  0  0  0
 24 55  1  0  0  0  0
 25 56  1  0  0  0  0
 25 57  1  0  0  0  0
 26 58  1  0  0  0  0
 26 59  1  0  0  0  0
M  END
> <clash_score>
0

> <docking_score>
-7.920963287353516

> <overlap_score>
1.0036605596542358

$$$$
BENZO_431_1
  -OEChem-08232013473D

 59 63  0     0  0  0  0  0  0999 V2000
    8.9960   -2.3380   25.5320 C   0  0  0  0  0  0  0  0  0  0  0  0
    9.6730   -3.4710   23.5300 C   0  0  0  0  0  0  0  0  0  0  0  0
    9.0720   -1.1280   24.8640 C   0  0  0  0  0  0  0  0  0  0  0  0
    9.7200   -2.2600   22.8630 C   0  0  0  0  0  0  0  0  0  0  0  0
   12.2876    1.2701   24.8810 C   0  0  0  0  0  0  0  0  0  0  0  0
   12.3886    1.3870   22.6876 C   0  0  0  0  0  0  0  0  0  0  0  0
   11.4886    1.3226   23.7231 C   0  0  0  0  0  0  0  0  0  0  0  0
    9.3070   -3.5340   24.8780 C   0  0  0  0  0  0  0  0  0  0  0  0
    9.3350   -1.0880   23.5010 C   0  0  0  0  0  0  0  0  0  0  0  0
    6.1790    0.5730   19.9990 C   0  0  0  0  0  0  0  0  0  0  0  0
    7.3170   -0.1610   19.8550 C   0  0  0  0  0  0  0  0  0  0  0  0
    5.4210    0.9600   21.0930 C   0  0  0  0  0  0  0  0  0  0  0  0
    4.2750    1.7050   20.8490 C   0  0  0  0  0  0  0  0  0  0  0  0
    3.9160    2.0630   19.5520 C   0  0  0  0  0  0  0  0  0  0  0  0
    4.6890    1.6810   18.4640 C   0  0  0  0  0  0  0  0  0  0  0  0
    9.0420    0.3700   21.5280 C   0  0  0  0  0  0  0  0  0  0  0  0
    7.3635   -6.1361   27.1888 C   0  0  0  0  0  0  0  0  0  0  0  0
    8.1961   -4.9735   27.7341 C   0  0  0  0  0  0  0  0  0  0  0  0
    7.1942   -6.0394   25.6709 C   0  0  0  0  0  0  0  0  0  0  0  0
    9.5196   -4.8490   26.9797 C   0  0  0  0  0  0  0  0  0  0  0  0
    8.5442   -5.8838   24.9639 C   0  0  0  0  0  0  0  0  0  0  0  0
   14.8917    1.4193   22.5779 C   0  0  0  0  0  0  0  0  0  0  0  0
    9.9898    1.3085   23.6366 C   0  0  0  0  0  0  0  0  0  0  0  0
    8.1890   -0.7180   20.8700 C   0  0  0  0  0  0  0  0  0  0  0  0
   13.5946    1.2985   24.6073 N   0  0  0  0  0  0  0  0  0  0  0  0
    7.6390   -0.2680   18.5410 N   0  0  0  0  0  0  0  0  0  0  0  0
    6.7580    0.3810   17.8350 N   0  0  0  0  0  0  0  0  0  0  0  0
   13.6238    1.3695   23.2656 N   0  0  0  0  0  0  0  0  0  0  0  0
    5.8300    0.9190   18.6970 N   0  0  0  0  0  0  0  0  0  0  0  0
    9.2562   -4.7384   25.5422 N   0  0  0  0  0  0  0  0  0  0  0  0
    9.4560    0.1560   22.8130 N   0  0  0  0  0  0  0  0  0  0  0  0
    9.2690    1.4140   20.9380 O   0  0  0  0  0  0  0  0  0  0  0  0
    8.6905   -2.3533   26.5810 H   0  0  0  0  0  0  0  0  0  0  0  0
    9.9266   -4.3896   22.9917 H   0  0  0  0  0  0  0  0  0  0  0  0
    8.9233   -0.1992   25.4231 H   0  0  0  0  0  0  0  0  0  0  0  0
   10.0650   -2.2330   21.8256 H   0  0  0  0  0  0  0  0  0  0  0  0
   11.9742    1.2113   25.9137 H   0  0  0  0  0  0  0  0  0  0  0  0
   12.2585    1.4412   21.6152 H   0  0  0  0  0  0  0  0  0  0  0  0
    5.6859    0.7081   22.1001 H   0  0  0  0  0  0  0  0  0  0  0  0
    3.6634    2.0033   21.6928 H   0  0  0  0  0  0  0  0  0  0  0  0
    3.0114    2.6564   19.3629 H   0  0  0  0  0  0  0  0  0  0  0  0
    4.4373    1.9516   17.4622 H   0  0  0  0  0  0  0  0  0  0  0  0
    7.8482   -7.0901   27.4469 H   0  0  0  0  0  0  0  0  0  0  0  0
    6.3760   -6.1438   27.6724 H   0  0  0  0  0  0  0  0  0  0  0  0
    7.6307   -4.0424   27.6403 H   0  0  0  0  0  0  0  0  0  0  0  0
    8.3915   -5.1310   28.7968 H   0  0  0  0  0  0  0  0  0  0  0  0
    6.6888   -6.9376   25.3010 H   0  0  0  0  0  0  0  0  0  0  0  0
    6.5515   -5.1859   25.4257 H   0  0  0  0  0  0  0  0  0  0  0  0
   10.0492   -3.9640   27.3414 H   0  0  0  0  0  0  0  0  0  0  0  0
   10.1431   -5.7254   27.1778 H   0  0  0  0  0  0  0  0  0  0  0  0
    9.1338   -6.7931   25.0868 H   0  0  0  0  0  0  0  0  0  0  0  0
    8.3656   -5.7264   23.8998 H   0  0  0  0  0  0  0  0  0  0  0  0
   15.1771    2.4693   22.4722 H   0  0  0  0  0  0  0  0  0  0  0  0
   15.6424    0.8757   23.1584 H   0  0  0  0  0  0  0  0  0  0  0  0
   14.7889    0.9492   21.5959 H   0  0  0  0  0  0  0  0  0  0  0  0
    9.5459    1.2490   24.6363 H   0  0  0  0  0  0  0  0  0  0  0  0
    9.6146    2.2245   23.1682 H   0  0  0  0  0  0  0  0  0  0  0  0
    7.5972   -1.2056   21.6500 H   0  0  0  0  0  0  0  0  0  0  0  0
    8.8612   -1.4622   20.4334 H   0  0  0  0  0  0  0  0  0  0  0  0
  1  3  2  0  0  0  0
  1  8  1  0  0  0  0
  2  4  1  0  0  0  0
  2  8  2  0  0  0  0
  3  9  1  0  0  0  0
  4  9  2  0  0  0  0
  5  7  1  0  0  0  0
  5 25  2  0  0  0  0
  6  7  2  0  0  0  0
  6 28  1  0  0  0  0
  7 23  1  0  0  0  0
  8 30  1  0  0  0  0
  9 31  1  0  0  0  0
 10 11  2  0  0  0  0
 10 12  1  0  0  0  0
 10 29  1  0  0  0  0
 11 24  1  0  0  0  0
 11 26  1  0  0  0  0
 12 13  2  0  0  0  0
 13 14  1  0  0  0  0
 14 15  2  0  0  0  0
 15 29  1  0  0  0  0
 16 24  1  0  0  0  0
 16 31  1  0  0  0  0
 16 32  2  0  0  0  0
 17 18  1  0  0  0  0
 17 19  1  0  0  0  0
 18 20  1  0  0  0  0
 19 21  1  0  0  0  0
 20 30  1  0  0  0  0
 21 30  1  0  0  0  0
 22 28  1  0  0  0  0
 23 31  1  0  0  0  0
 25 28  1  0  0  0  0
 26 27  2  0  0  0  0
 27 29  1  0  0  0  0
  1 33  1  0  0  0  0
  2 34  1  0  0  0  0
  3 35  1  0  0  0  0
  4 36  1  0  0  0  0
  5 37  1  0  0  0  0
  6 38  1  0  0  0  0
 12 39  1  0  0  0  0
 13 40  1  0  0  0  0
 14 41  1  0  0  0  0
 15 42  1  0  0  0  0
 17 43  1  0  0  0  0
 17 44  1  0  0  0  0
 18 45  1  0  0  0  0
 18 46  1  0  0  0  0
 19 47  1  0  0  0  0
 19 48  1  0  0  0  0
 20 49  1  0  0  0  0
 20 50  1  0  0  0  0
 21 51  1  0  0  0  0
 21 52  1  0  0  0  0
 22 53  1  0  0  0  0
 22 54  1  0  0  0  0
 22 55  1  0  0  0  0
 23 56  1  0  0  0  0
 23 57  1  0  0  0  0
 24 58  1  0  0  0  0
 24 59  1  0  0  0  0
M  END
> <clash_score>
0

> <docking_score>
-8.814129829406738

> <overlap_score>
0.985912561416626

$$$$
BENZO_435_1
  -OEChem-08232013473D

 47 50  0     0  0  0  0  0  0999 V2000
    8.9960   -2.3380   25.5320 C   0  0  0  0  0  0  0  0  0  0  0  0
    9.6730   -3.4710   23.5300 C   0  0  0  0  0  0  0  0  0  0  0  0
    9.0720   -1.1280   24.8640 C   0  0  0  0  0  0  0  0  0  0  0  0
    9.7200   -2.2600   22.8630 C   0  0  0  0  0  0  0  0  0  0  0  0
   12.4868    2.0182   22.8432 C   0  0  0  0  0  0  0  0  0  0  0  0
   12.4029    0.3651   24.2906 C   0  0  0  0  0  0  0  0  0  0  0  0
    9.3070   -3.5340   24.8780 C   0  0  0  0  0  0  0  0  0  0  0  0
   11.5938    1.2209   23.5840 C   0  0  0  0  0  0  0  0  0  0  0  0
    9.3350   -1.0880   23.5010 C   0  0  0  0  0  0  0  0  0  0  0  0
    6.1790    0.5730   19.9990 C   0  0  0  0  0  0  0  0  0  0  0  0
    7.3170   -0.1610   19.8550 C   0  0  0  0  0  0  0  0  0  0  0  0
    5.4210    0.9600   21.0930 C   0  0  0  0  0  0  0  0  0  0  0  0
    4.2750    1.7050   20.8490 C   0  0  0  0  0  0  0  0  0  0  0  0
    3.9160    2.0630   19.5520 C   0  0  0  0  0  0  0  0  0  0  0  0
    4.6890    1.6810   18.4640 C   0  0  0  0  0  0  0  0  0  0  0  0
    9.0420    0.3700   21.5280 C   0  0  0  0  0  0  0  0  0  0  0  0
    9.2505   -4.8264   25.5904 C   0  0  0  0  0  0  0  0  0  0  0  0
   14.8863    0.0618   24.4316 C   0  0  0  0  0  0  0  0  0  0  0  0
   10.0942    1.2904   23.6018 C   0  0  0  0  0  0  0  0  0  0  0  0
    8.1890   -0.7180   20.8700 C   0  0  0  0  0  0  0  0  0  0  0  0
   13.7652    1.6975   23.0592 N   0  0  0  0  0  0  0  0  0  0  0  0
    7.6390   -0.2680   18.5410 N   0  0  0  0  0  0  0  0  0  0  0  0
    6.7580    0.3810   17.8350 N   0  0  0  0  0  0  0  0  0  0  0  0
   13.6815    0.6893   23.9439 N   0  0  0  0  0  0  0  0  0  0  0  0
    5.8300    0.9190   18.6970 N   0  0  0  0  0  0  0  0  0  0  0  0
    9.4560    0.1560   22.8130 N   0  0  0  0  0  0  0  0  0  0  0  0
    9.2690    1.4140   20.9380 O   0  0  0  0  0  0  0  0  0  0  0  0
    8.6919   -2.3557   26.5813 H   0  0  0  0  0  0  0  0  0  0  0  0
    9.9267   -4.3907   22.9939 H   0  0  0  0  0  0  0  0  0  0  0  0
    8.9217   -0.1995   25.4231 H   0  0  0  0  0  0  0  0  0  0  0  0
   10.0653   -2.2339   21.8256 H   0  0  0  0  0  0  0  0  0  0  0  0
   12.2616    2.8206   22.1550 H   0  0  0  0  0  0  0  0  0  0  0  0
   12.1833   -0.4265   24.9942 H   0  0  0  0  0  0  0  0  0  0  0  0
    5.6859    0.7081   22.1001 H   0  0  0  0  0  0  0  0  0  0  0  0
    3.6634    2.0033   21.6928 H   0  0  0  0  0  0  0  0  0  0  0  0
    3.0114    2.6564   19.3629 H   0  0  0  0  0  0  0  0  0  0  0  0
    4.4373    1.9516   17.4622 H   0  0  0  0  0  0  0  0  0  0  0  0
    8.2503   -5.2678   25.5020 H   0  0  0  0  0  0  0  0  0  0  0  0
    9.9817   -5.5374   25.1845 H   0  0  0  0  0  0  0  0  0  0  0  0
    9.4841   -4.7043   26.6562 H   0  0  0  0  0  0  0  0  0  0  0  0
   15.1288   -0.7682   23.7627 H   0  0  0  0  0  0  0  0  0  0  0  0
   15.6989    0.7935   24.4431 H   0  0  0  0  0  0  0  0  0  0  0  0
   14.7177   -0.3023   25.4489 H   0  0  0  0  0  0  0  0  0  0  0  0
    9.7174    1.2380   24.6291 H   0  0  0  0  0  0  0  0  0  0  0  0
    9.7393    2.2335   23.1730 H   0  0  0  0  0  0  0  0  0  0  0  0
    7.6102   -1.2091   21.6640 H   0  0  0  0  0  0  0  0  0  0  0  0
    8.8741   -1.4657   20.4475 H   0  0  0  0  0  0  0  0  0  0  0  0
  1  3  2  0  0  0  0
  1  7  1  0  0  0  0
  2  4  1  0  0  0  0
  2  7  2  0  0  0  0
  3  9  1  0  0  0  0
  4  9  2  0  0  0  0
  5  8  1  0  0  0  0
  5 21  2  0  0  0  0
  6  8  2  0  0  0  0
  6 24  1  0  0  0  0
  7 17  1  0  0  0  0
  8 19  1  0  0  0  0
  9 26  1  0  0  0  0
 10 11  2  0  0  0  0
 10 12  1  0  0  0  0
 10 25  1  0  0  0  0
 11 20  1  0  0  0  0
 11 22  1  0  0  0  0
 12 13  2  0  0  0  0
 13 14  1  0  0  0  0
 14 15  2  0  0  0  0
 15 25  1  0  0  0  0
 16 20  1  0  0  0  0
 16 26  1  0  0  0  0
 16 27  2  0  0  0  0
 18 24  1  0  0  0  0
 19 26  1  0  0  0  0
 21 24  1  0  0  0  0
 22 23  2  0  0  0  0
 23 25  1  0  0  0  0
  1 28  1  0  0  0  0
  2 29  1  0  0  0  0
  3 30  1  0  0  0  0
  4 31  1  0  0  0  0
  5 32  1  0  0  0  0
  6 33  1  0  0  0  0
 12 34  1  0  0  0  0
 13 35  1  0  0  0  0
 14 36  1  0  0  0  0
 15 37  1  0  0  0  0
 17 38  1  0  0  0  0
 17 39  1  0  0  0  0
 17 40  1  0  0  0  0
 18 41  1  0  0  0  0
 18 42  1  0  0  0  0
 18 43  1  0  0  0  0
 19 44  1  0  0  0  0
 19 45  1  0  0  0  0
 20 46  1  0  0  0  0
 20 47  1  0  0  0  0
M  END
> <clash_score>
0

> <docking_score>
-9.005340576171875

> <overlap_score>
0.9412816166877747

$$$$
BENZO_434_1
  -OEChem-08232013473D

 47 50  0     0  0  0  0  0  0999 V2000
   13.7159    2.0356   22.7654 C   0  0  0  0  0  0  0  0  0  0  0  0
   12.3226    2.0988   22.7815 C   0  0  0  0  0  0  0  0  0  0  0  0
    8.9960   -2.3380   25.5320 C   0  0  0  0  0  0  0  0  0  0  0  0
    9.6730   -3.4710   23.5300 C   0  0  0  0  0  0  0  0  0  0  0  0
    9.0720   -1.1280   24.8640 C   0  0  0  0  0  0  0  0  0  0  0  0
    9.7200   -2.2600   22.8630 C   0  0  0  0  0  0  0  0  0  0  0  0
   14.3805    1.0944   23.5516 C   0  0  0  0  0  0  0  0  0  0  0  0
   12.2584    0.2798   24.3703 C   0  0  0  0  0  0  0  0  0  0  0  0
    9.3070   -3.5340   24.8780 C   0  0  0  0  0  0  0  0  0  0  0  0
   11.5938    1.2209   23.5840 C   0  0  0  0  0  0  0  0  0  0  0  0
    9.3350   -1.0880   23.5010 C   0  0  0  0  0  0  0  0  0  0  0  0
   13.6518    0.2165   24.3541 C   0  0  0  0  0  0  0  0  0  0  0  0
    6.1790    0.5730   19.9990 C   0  0  0  0  0  0  0  0  0  0  0  0
    7.3170   -0.1610   19.8550 C   0  0  0  0  0  0  0  0  0  0  0  0
    5.4210    0.9600   21.0930 C   0  0  0  0  0  0  0  0  0  0  0  0
    4.2750    1.7050   20.8490 C   0  0  0  0  0  0  0  0  0  0  0  0
    3.9160    2.0630   19.5520 C   0  0  0  0  0  0  0  0  0  0  0  0
    4.6890    1.6810   18.4640 C   0  0  0  0  0  0  0  0  0  0  0  0
    9.0420    0.3700   21.5280 C   0  0  0  0  0  0  0  0  0  0  0  0
    9.2505   -4.8264   25.5904 C   0  0  0  0  0  0  0  0  0  0  0  0
   10.0942    1.2904   23.6018 C   0  0  0  0  0  0  0  0  0  0  0  0
    8.1890   -0.7180   20.8700 C   0  0  0  0  0  0  0  0  0  0  0  0
    7.6390   -0.2680   18.5410 N   0  0  0  0  0  0  0  0  0  0  0  0
    6.7580    0.3810   17.8350 N   0  0  0  0  0  0  0  0  0  0  0  0
    5.8300    0.9190   18.6970 N   0  0  0  0  0  0  0  0  0  0  0  0
    9.4560    0.1560   22.8130 N   0  0  0  0  0  0  0  0  0  0  0  0
    9.2690    1.4140   20.9380 O   0  0  0  0  0  0  0  0  0  0  0  0
   14.4724   -0.9437   25.3248 Cl  0  0  0  0  0  0  0  0  0  0  0  0
   14.2830    2.7195   22.1405 H   0  0  0  0  0  0  0  0  0  0  0  0
   11.8131    2.8354   22.1658 H   0  0  0  0  0  0  0  0  0  0  0  0
    8.6919   -2.3557   26.5813 H   0  0  0  0  0  0  0  0  0  0  0  0
    9.9267   -4.3907   22.9939 H   0  0  0  0  0  0  0  0  0  0  0  0
    8.9217   -0.1995   25.4231 H   0  0  0  0  0  0  0  0  0  0  0  0
   10.0653   -2.2339   21.8256 H   0  0  0  0  0  0  0  0  0  0  0  0
   15.4669    1.0568   23.5293 H   0  0  0  0  0  0  0  0  0  0  0  0
   11.6857   -0.4028   24.9939 H   0  0  0  0  0  0  0  0  0  0  0  0
    5.6859    0.7081   22.1001 H   0  0  0  0  0  0  0  0  0  0  0  0
    3.6634    2.0033   21.6928 H   0  0  0  0  0  0  0  0  0  0  0  0
    3.0114    2.6564   19.3629 H   0  0  0  0  0  0  0  0  0  0  0  0
    4.4373    1.9516   17.4622 H   0  0  0  0  0  0  0  0  0  0  0  0
    8.2503   -5.2678   25.5020 H   0  0  0  0  0  0  0  0  0  0  0  0
    9.9817   -5.5374   25.1845 H   0  0  0  0  0  0  0  0  0  0  0  0
    9.4841   -4.7043   26.6562 H   0  0  0  0  0  0  0  0  0  0  0  0
    9.7174    1.2380   24.6291 H   0  0  0  0  0  0  0  0  0  0  0  0
    9.7393    2.2335   23.1730 H   0  0  0  0  0  0  0  0  0  0  0  0
    7.6102   -1.2091   21.6640 H   0  0  0  0  0  0  0  0  0  0  0  0
    8.8741   -1.4657   20.4475 H   0  0  0  0  0  0  0  0  0  0  0  0
  1  2  2  0  0  0  0
  1  7  1  0  0  0  0
  2 10  1  0  0  0  0
  3  5  2  0  0  0  0
  3  9  1  0  0  0  0
  4  6  1  0  0  0  0
  4  9  2  0  0  0  0
  5 11  1  0  0  0  0
  6 11  2  0  0  0  0
  7 12  2  0  0  0  0
  8 10  2  0  0  0  0
  8 12  1  0  0  0  0
  9 20  1  0  0  0  0
 10 21  1  0  0  0  0
 11 26  1  0  0  0  0
 12 28  1  0  0  0  0
 13 14  2  0  0  0  0
 13 15  1  0  0  0  0
 13 25  1  0  0  0  0
 14 22  1  0  0  0  0
 14 23  1  0  0  0  0
 15 16  2  0  0  0  0
 16 17  1  0  0  0  0
 17 18  2  0  0  0  0
 18 25  1  0  0  0  0
 19 22  1  0  0  0  0
 19 26  1  0  0  0  0
 19 27  2  0  0  0  0
 21 26  1  0  0  0  0
 23 24  2  0  0  0  0
 24 25  1  0  0  0  0
  1 29  1  0  0  0  0
  2 30  1  0  0  0  0
  3 31  1  0  0  0  0
  4 32  1  0  0  0  0
  5 33  1  0  0  0  0
  6 34  1  0  0  0  0
  7 35  1  0  0  0  0
  8 36  1  0  0  0  0
 15 37  1  0  0  0  0
 16 38  1  0  0  0  0
 17 39  1  0  0  0  0
 18 40  1  0  0  0  0
 20 41  1  0  0  0  0
 20 42  1  0  0  0  0
 20 43  1  0  0  0  0
 21 44  1  0  0  0  0
 21 45  1  0  0  0  0
 22 46  1  0  0  0  0
 22 47  1  0  0  0  0
M  END
> <clash_score>
0.7279325331761322

> <docking_score>
-8.239967346191406

> <overlap_score>
0.9443024396896362

$$$$
BENZO_437_1
  -OEChem-08232013473D

 48 51  0     0  0  0  0  0  0999 V2000
   14.3803    1.0905   23.5513 C   0  0  0  0  0  0  0  0  0  0  0  0
   13.7412    2.3262   23.6519 C   0  0  0  0  0  0  0  0  0  0  0  0
   13.6263   -0.0800   23.4670 C   0  0  0  0  0  0  0  0  0  0  0  0
   12.3479    2.3914   23.6683 C   0  0  0  0  0  0  0  0  0  0  0  0
   12.2331   -0.0148   23.4834 C   0  0  0  0  0  0  0  0  0  0  0  0
    9.0720   -1.1280   24.8640 C   0  0  0  0  0  0  0  0  0  0  0  0
    9.7200   -2.2600   22.8630 C   0  0  0  0  0  0  0  0  0  0  0  0
    8.9960   -2.3380   25.5320 C   0  0  0  0  0  0  0  0  0  0  0  0
    9.6730   -3.4710   23.5300 C   0  0  0  0  0  0  0  0  0  0  0  0
   11.5938    1.2209   23.5840 C   0  0  0  0  0  0  0  0  0  0  0  0
    9.3350   -1.0880   23.5010 C   0  0  0  0  0  0  0  0  0  0  0  0
    9.3070   -3.5340   24.8780 C   0  0  0  0  0  0  0  0  0  0  0  0
    6.1790    0.5730   19.9990 C   0  0  0  0  0  0  0  0  0  0  0  0
    7.3170   -0.1610   19.8550 C   0  0  0  0  0  0  0  0  0  0  0  0
    5.4210    0.9600   21.0930 C   0  0  0  0  0  0  0  0  0  0  0  0
    4.2750    1.7050   20.8490 C   0  0  0  0  0  0  0  0  0  0  0  0
    3.9160    2.0630   19.5520 C   0  0  0  0  0  0  0  0  0  0  0  0
    4.6890    1.6810   18.4640 C   0  0  0  0  0  0  0  0  0  0  0  0
    9.0420    0.3700   21.5280 C   0  0  0  0  0  0  0  0  0  0  0  0
    8.8720   -4.6805   26.9013 C   0  0  0  0  0  0  0  0  0  0  0  0
   10.0942    1.2904   23.6018 C   0  0  0  0  0  0  0  0  0  0  0  0
    8.1890   -0.7180   20.8700 C   0  0  0  0  0  0  0  0  0  0  0  0
    7.6390   -0.2680   18.5410 N   0  0  0  0  0  0  0  0  0  0  0  0
    6.7580    0.3810   17.8350 N   0  0  0  0  0  0  0  0  0  0  0  0
    5.8300    0.9190   18.6970 N   0  0  0  0  0  0  0  0  0  0  0  0
    9.4560    0.1560   22.8130 N   0  0  0  0  0  0  0  0  0  0  0  0
    9.2690    1.4140   20.9380 O   0  0  0  0  0  0  0  0  0  0  0  0
    9.2555   -4.7124   25.5274 O   0  0  0  0  0  0  0  0  0  0  0  0
   15.4652    1.0400   23.5373 H   0  0  0  0  0  0  0  0  0  0  0  0
   14.3281    3.2378   23.7165 H   0  0  0  0  0  0  0  0  0  0  0  0
   14.1236   -1.0421   23.3876 H   0  0  0  0  0  0  0  0  0  0  0  0
   11.8585    3.3586   23.7472 H   0  0  0  0  0  0  0  0  0  0  0  0
   11.6537   -0.9319   23.4173 H   0  0  0  0  0  0  0  0  0  0  0  0
    8.9221   -0.1995   25.4231 H   0  0  0  0  0  0  0  0  0  0  0  0
   10.0642   -2.2347   21.8253 H   0  0  0  0  0  0  0  0  0  0  0  0
    8.6902   -2.3588   26.5805 H   0  0  0  0  0  0  0  0  0  0  0  0
    9.9254   -4.3921   22.9961 H   0  0  0  0  0  0  0  0  0  0  0  0
    5.6859    0.7081   22.1001 H   0  0  0  0  0  0  0  0  0  0  0  0
    3.6634    2.0033   21.6928 H   0  0  0  0  0  0  0  0  0  0  0  0
    3.0114    2.6564   19.3629 H   0  0  0  0  0  0  0  0  0  0  0  0
    4.4373    1.9516   17.4622 H   0  0  0  0  0  0  0  0  0  0  0  0
    8.8711   -5.6964   27.3038 H   0  0  0  0  0  0  0  0  0  0  0  0
    7.8758   -4.2402   26.9923 H   0  0  0  0  0  0  0  0  0  0  0  0
    9.5894   -4.0716   27.4566 H   0  0  0  0  0  0  0  0  0  0  0  0
    9.7174    1.2380   24.6291 H   0  0  0  0  0  0  0  0  0  0  0  0
    9.7393    2.2335   23.1730 H   0  0  0  0  0  0  0  0  0  0  0  0
    7.6102   -1.2091   21.6640 H   0  0  0  0  0  0  0  0  0  0  0  0
    8.8741   -1.4657   20.4475 H   0  0  0  0  0  0  0  0  0  0  0  0
  1  2  1  0  0  0  0
  1  3  2  0  0  0  0
  2  4  2  0  0  0  0
  3  5  1  0  0  0  0
  4 10  1  0  0  0  0
  5 10  2  0  0  0  0
  6  8  2  0  0  0  0
  6 11  1  0  0  0  0
  7  9  1  0  0  0  0
  7 11  2  0  0  0  0
  8 12  1  0  0  0  0
  9 12  2  0  0  0  0
 10 21  1  0  0  0  0
 11 26  1  0  0  0  0
 12 28  1  0  0  0  0
 13 14  2  0  0  0  0
 13 15  1  0  0  0  0
 13 25  1  0  0  0  0
 14 22  1  0  0  0  0
 14 23  1  0  0  0  0
 15 16  2  0  0  0  0
 16 17  1  0  0  0  0
 17 18  2  0  0  0  0
 18 25  1  0  0  0  0
 19 22  1  0  0  0  0
 19 26  1  0  0  0  0
 19 27  2  0  0  0  0
 20 28  1  0  0  0  0
 21 26  1  0  0  0  0
 23 24  2  0  0  0  0
 24 25  1  0  0  0  0
  1 29  1  0  0  0  0
  2 30  1  0  0  0  0
  3 31  1  0  0  0  0
  4 32  1  0  0  0  0
  5 33  1  0  0  0  0
  6 34  1  0  0  0  0
  7 35  1  0  0  0  0
  8 36  1  0  0  0  0
  9 37  1  0  0  0  0
 15 38  1  0  0  0  0
 16 39  1  0  0  0  0
 17 40  1  0  0  0  0
 18 41  1  0  0  0  0
 20 42  1  0  0  0  0
 20 43  1  0  0  0  0
 20 44  1  0  0  0  0
 21 45  1  0  0  0  0
 21 46  1  0  0  0  0
 22 47  1  0  0  0  0
 22 48  1  0  0  0  0
M  END
> <clash_score>
0

> <docking_score>
-7.657801628112793

> <overlap_score>
0.9647575616836548

$$$$
BENZO_436_1
  -OEChem-08232013473D

 45 48  0     0  0  0  0  0  0999 V2000
    9.0720   -1.1280   24.8640 C   0  0  0  0  0  0  0  0  0  0  0  0
    9.7200   -2.2600   22.8630 C   0  0  0  0  0  0  0  0  0  0  0  0
    8.9960   -2.3380   25.5320 C   0  0  0  0  0  0  0  0  0  0  0  0
    9.6730   -3.4710   23.5300 C   0  0  0  0  0  0  0  0  0  0  0  0
   12.4430    2.3628   23.6551 C   0  0  0  0  0  0  0  0  0  0  0  0
   13.7765    2.0191   23.6192 C   0  0  0  0  0  0  0  0  0  0  0  0
   12.3107    0.0478   23.4962 C   0  0  0  0  0  0  0  0  0  0  0  0
   11.5938    1.2209   23.5840 C   0  0  0  0  0  0  0  0  0  0  0  0
    9.3350   -1.0880   23.5010 C   0  0  0  0  0  0  0  0  0  0  0  0
    9.3070   -3.5340   24.8780 C   0  0  0  0  0  0  0  0  0  0  0  0
    6.1790    0.5730   19.9990 C   0  0  0  0  0  0  0  0  0  0  0  0
    7.3170   -0.1610   19.8550 C   0  0  0  0  0  0  0  0  0  0  0  0
    5.4210    0.9600   21.0930 C   0  0  0  0  0  0  0  0  0  0  0  0
    4.2750    1.7050   20.8490 C   0  0  0  0  0  0  0  0  0  0  0  0
    3.9160    2.0630   19.5520 C   0  0  0  0  0  0  0  0  0  0  0  0
    4.6890    1.6810   18.4640 C   0  0  0  0  0  0  0  0  0  0  0  0
    9.0420    0.3700   21.5280 C   0  0  0  0  0  0  0  0  0  0  0  0
    8.8720   -4.6805   26.9013 C   0  0  0  0  0  0  0  0  0  0  0  0
   10.0942    1.2904   23.6018 C   0  0  0  0  0  0  0  0  0  0  0  0
    8.1890   -0.7180   20.8700 C   0  0  0  0  0  0  0  0  0  0  0  0
    7.6390   -0.2680   18.5410 N   0  0  0  0  0  0  0  0  0  0  0  0
    6.7580    0.3810   17.8350 N   0  0  0  0  0  0  0  0  0  0  0  0
    5.8300    0.9190   18.6970 N   0  0  0  0  0  0  0  0  0  0  0  0
    9.4560    0.1560   22.8130 N   0  0  0  0  0  0  0  0  0  0  0  0
    9.2690    1.4140   20.9380 O   0  0  0  0  0  0  0  0  0  0  0  0
    9.2555   -4.7124   25.5274 O   0  0  0  0  0  0  0  0  0  0  0  0
   14.0004    0.3256   23.5001 S   0  0  0  0  0  0  0  0  0  0  0  0
    8.9221   -0.1995   25.4231 H   0  0  0  0  0  0  0  0  0  0  0  0
   10.0642   -2.2347   21.8253 H   0  0  0  0  0  0  0  0  0  0  0  0
    8.6902   -2.3588   26.5805 H   0  0  0  0  0  0  0  0  0  0  0  0
    9.9254   -4.3921   22.9961 H   0  0  0  0  0  0  0  0  0  0  0  0
   12.0976    3.3863   23.7286 H   0  0  0  0  0  0  0  0  0  0  0  0
   14.6299    2.6813   23.6565 H   0  0  0  0  0  0  0  0  0  0  0  0
   11.9271   -0.9608   23.4286 H   0  0  0  0  0  0  0  0  0  0  0  0
    5.6859    0.7081   22.1001 H   0  0  0  0  0  0  0  0  0  0  0  0
    3.6634    2.0033   21.6928 H   0  0  0  0  0  0  0  0  0  0  0  0
    3.0114    2.6564   19.3629 H   0  0  0  0  0  0  0  0  0  0  0  0
    4.4373    1.9516   17.4622 H   0  0  0  0  0  0  0  0  0  0  0  0
    8.8711   -5.6964   27.3038 H   0  0  0  0  0  0  0  0  0  0  0  0
    7.8758   -4.2402   26.9923 H   0  0  0  0  0  0  0  0  0  0  0  0
    9.5894   -4.0716   27.4566 H   0  0  0  0  0  0  0  0  0  0  0  0
    9.7174    1.2380   24.6291 H   0  0  0  0  0  0  0  0  0  0  0  0
    9.7393    2.2335   23.1730 H   0  0  0  0  0  0  0  0  0  0  0  0
    7.6102   -1.2091   21.6640 H   0  0  0  0  0  0  0  0  0  0  0  0
    8.8741   -1.4657   20.4475 H   0  0  0  0  0  0  0  0  0  0  0  0
  1  3  2  0  0  0  0
  1  9  1  0  0  0  0
  2  4  1  0  0  0  0
  2  9  2  0  0  0  0
  3 10  1  0  0  0  0
  4 10  2  0  0  0  0
  5  6  2  0  0  0  0
  5  8  1  0  0  0  0
  6 27  1  0  0  0  0
  7  8  2  0  0  0  0
  7 27  1  0  0  0  0
  8 19  1  0  0  0  0
  9 24  1  0  0  0  0
 10 26  1  0  0  0  0
 11 12  2  0  0  0  0
 11 13  1  0  0  0  0
 11 23  1  0  0  0  0
 12 20  1  0  0  0  0
 12 21  1  0  0  0  0
 13 14  2  0  0  0  0
 14 15  1  0  0  0  0
 15 16  2  0  0  0  0
 16 23  1  0  0  0  0
 17 20  1  0  0  0  0
 17 24  1  0  0  0  0
 17 25  2  0  0  0  0
 18 26  1  0  0  0  0
 19 24  1  0  0  0  0
 21 22  2  0  0  0  0
 22 23  1  0  0  0  0
  1 28  1  0  0  0  0
  2 29  1  0  0  0  0
  3 30  1  0  0  0  0
  4 31  1  0  0  0  0
  5 32  1  0  0  0  0
  6 33  1  0  0  0  0
  7 34  1  0  0  0  0
 13 35  1  0  0  0  0
 14 36  1  0  0  0  0
 15 37  1  0  0  0  0
 16 38  1  0  0  0  0
 18 39  1  0  0  0  0
 18 40  1  0  0  0  0
 18 41  1  0  0  0  0
 19 42  1  0  0  0  0
 19 43  1  0  0  0  0
 20 44  1  0  0  0  0
 20 45  1  0  0  0  0
M  END
> <clash_score>
0

> <docking_score>
-8.4425630569458

> <overlap_score>
0.9531400203704834

$$$$
BENZO_439_1
  -OEChem-08232013473D

 48 51  0     0  0  0  0  0  0999 V2000
    9.0720   -1.1280   24.8640 C   0  0  0  0  0  0  0  0  0  0  0  0
    9.7200   -2.2600   22.8630 C   0  0  0  0  0  0  0  0  0  0  0  0
    8.9960   -2.3380   25.5320 C   0  0  0  0  0  0  0  0  0  0  0  0
    9.6730   -3.4710   23.5300 C   0  0  0  0  0  0  0  0  0  0  0  0
   12.4868    2.0182   22.8432 C   0  0  0  0  0  0  0  0  0  0  0  0
   12.4029    0.3651   24.2906 C   0  0  0  0  0  0  0  0  0  0  0  0
   11.5938    1.2209   23.5840 C   0  0  0  0  0  0  0  0  0  0  0  0
    9.3350   -1.0880   23.5010 C   0  0  0  0  0  0  0  0  0  0  0  0
    9.3070   -3.5340   24.8780 C   0  0  0  0  0  0  0  0  0  0  0  0
    6.1790    0.5730   19.9990 C   0  0  0  0  0  0  0  0  0  0  0  0
    7.3170   -0.1610   19.8550 C   0  0  0  0  0  0  0  0  0  0  0  0
    5.4210    0.9600   21.0930 C   0  0  0  0  0  0  0  0  0  0  0  0
    4.2750    1.7050   20.8490 C   0  0  0  0  0  0  0  0  0  0  0  0
    3.9160    2.0630   19.5520 C   0  0  0  0  0  0  0  0  0  0  0  0
    4.6890    1.6810   18.4640 C   0  0  0  0  0  0  0  0  0  0  0  0
    9.0420    0.3700   21.5280 C   0  0  0  0  0  0  0  0  0  0  0  0
   14.8863    0.0618   24.4316 C   0  0  0  0  0  0  0  0  0  0  0  0
    8.8720   -4.6805   26.9013 C   0  0  0  0  0  0  0  0  0  0  0  0
   10.0942    1.2904   23.6018 C   0  0  0  0  0  0  0  0  0  0  0  0
    8.1890   -0.7180   20.8700 C   0  0  0  0  0  0  0  0  0  0  0  0
   13.7652    1.6975   23.0592 N   0  0  0  0  0  0  0  0  0  0  0  0
    7.6390   -0.2680   18.5410 N   0  0  0  0  0  0  0  0  0  0  0  0
    6.7580    0.3810   17.8350 N   0  0  0  0  0  0  0  0  0  0  0  0
   13.6815    0.6893   23.9439 N   0  0  0  0  0  0  0  0  0  0  0  0
    5.8300    0.9190   18.6970 N   0  0  0  0  0  0  0  0  0  0  0  0
    9.4560    0.1560   22.8130 N   0  0  0  0  0  0  0  0  0  0  0  0
    9.2690    1.4140   20.9380 O   0  0  0  0  0  0  0  0  0  0  0  0
    9.2555   -4.7124   25.5274 O   0  0  0  0  0  0  0  0  0  0  0  0
    8.9221   -0.1995   25.4231 H   0  0  0  0  0  0  0  0  0  0  0  0
   10.0642   -2.2347   21.8253 H   0  0  0  0  0  0  0  0  0  0  0  0
    8.6902   -2.3588   26.5805 H   0  0  0  0  0  0  0  0  0  0  0  0
    9.9254   -4.3921   22.9961 H   0  0  0  0  0  0  0  0  0  0  0  0
   12.2616    2.8206   22.1550 H   0  0  0  0  0  0  0  0  0  0  0  0
   12.1833   -0.4265   24.9942 H   0  0  0  0  0  0  0  0  0  0  0  0
    5.6859    0.7081   22.1001 H   0  0  0  0  0  0  0  0  0  0  0  0
    3.6634    2.0033   21.6928 H   0  0  0  0  0  0  0  0  0  0  0  0
    3.0114    2.6564   19.3629 H   0  0  0  0  0  0  0  0  0  0  0  0
    4.4373    1.9516   17.4622 H   0  0  0  0  0  0  0  0  0  0  0  0
   15.1288   -0.7682   23.7627 H   0  0  0  0  0  0  0  0  0  0  0  0
   15.6989    0.7935   24.4431 H   0  0  0  0  0  0  0  0  0  0  0  0
   14.7177   -0.3023   25.4489 H   0  0  0  0  0  0  0  0  0  0  0  0
    8.8711   -5.6964   27.3038 H   0  0  0  0  0  0  0  0  0  0  0  0
    7.8758   -4.2402   26.9923 H   0  0  0  0  0  0  0  0  0  0  0  0
    9.5894   -4.0716   27.4566 H   0  0  0  0  0  0  0  0  0  0  0  0
    9.7174    1.2380   24.6291 H   0  0  0  0  0  0  0  0  0  0  0  0
    9.7393    2.2335   23.1730 H   0  0  0  0  0  0  0  0  0  0  0  0
    7.6102   -1.2091   21.6640 H   0  0  0  0  0  0  0  0  0  0  0  0
    8.8741   -1.4657   20.4475 H   0  0  0  0  0  0  0  0  0  0  0  0
  1  3  2  0  0  0  0
  1  8  1  0  0  0  0
  2  4  1  0  0  0  0
  2  8  2  0  0  0  0
  3  9  1  0  0  0  0
  4  9  2  0  0  0  0
  5  7  1  0  0  0  0
  5 21  2  0  0  0  0
  6  7  2  0  0  0  0
  6 24  1  0  0  0  0
  7 19  1  0  0  0  0
  8 26  1  0  0  0  0
  9 28  1  0  0  0  0
 10 11  2  0  0  0  0
 10 12  1  0  0  0  0
 10 25  1  0  0  0  0
 11 20  1  0  0  0  0
 11 22  1  0  0  0  0
 12 13  2  0  0  0  0
 13 14  1  0  0  0  0
 14 15  2  0  0  0  0
 15 25  1  0  0  0  0
 16 20  1  0  0  0  0
 16 26  1  0  0  0  0
 16 27  2  0  0  0  0
 17 24  1  0  0  0  0
 18 28  1  0  0  0  0
 19 26  1  0  0  0  0
 21 24  1  0  0  0  0
 22 23  2  0  0  0  0
 23 25  1  0  0  0  0
  1 29  1  0  0  0  0
  2 30  1  0  0  0  0
  3 31  1  0  0  0  0
  4 32  1  0  0  0  0
  5 33  1  0  0  0  0
  6 34  1  0  0  0  0
 12 35  1  0  0  0  0
 13 36  1  0  0  0  0
 14 37  1  0  0  0  0
 15 38  1  0  0  0  0
 17 39  1  0  0  0  0
 17 40  1  0  0  0  0
 17 41  1  0  0  0  0
 18 42  1  0  0  0  0
 18 43  1  0  0  0  0
 18 44  1  0  0  0  0
 19 45  1  0  0  0  0
 19 46  1  0  0  0  0
 20 47  1  0  0  0  0
 20 48  1  0  0  0  0
M  END
> <clash_score>
0

> <docking_score>
-8.741643905639648

> <overlap_score>
0.9636303186416626

$$$$
BENZO_438_1
  -OEChem-08232013473D

 48 51  0     0  0  0  0  0  0999 V2000
   13.7159    2.0356   22.7654 C   0  0  0  0  0  0  0  0  0  0  0  0
   12.3226    2.0988   22.7815 C   0  0  0  0  0  0  0  0  0  0  0  0
    9.0720   -1.1280   24.8640 C   0  0  0  0  0  0  0  0  0  0  0  0
    9.7200   -2.2600   22.8630 C   0  0  0  0  0  0  0  0  0  0  0  0
    8.9960   -2.3380   25.5320 C   0  0  0  0  0  0  0  0  0  0  0  0
    9.6730   -3.4710   23.5300 C   0  0  0  0  0  0  0  0  0  0  0  0
   14.3805    1.0944   23.5516 C   0  0  0  0  0  0  0  0  0  0  0  0
   12.2584    0.2798   24.3703 C   0  0  0  0  0  0  0  0  0  0  0  0
   11.5938    1.2209   23.5840 C   0  0  0  0  0  0  0  0  0  0  0  0
    9.3350   -1.0880   23.5010 C   0  0  0  0  0  0  0  0  0  0  0  0
    9.3070   -3.5340   24.8780 C   0  0  0  0  0  0  0  0  0  0  0  0
   13.6518    0.2165   24.3541 C   0  0  0  0  0  0  0  0  0  0  0  0
    6.1790    0.5730   19.9990 C   0  0  0  0  0  0  0  0  0  0  0  0
    7.3170   -0.1610   19.8550 C   0  0  0  0  0  0  0  0  0  0  0  0
    5.4210    0.9600   21.0930 C   0  0  0  0  0  0  0  0  0  0  0  0
    4.2750    1.7050   20.8490 C   0  0  0  0  0  0  0  0  0  0  0  0
    3.9160    2.0630   19.5520 C   0  0  0  0  0  0  0  0  0  0  0  0
    4.6890    1.6810   18.4640 C   0  0  0  0  0  0  0  0  0  0  0  0
    9.0420    0.3700   21.5280 C   0  0  0  0  0  0  0  0  0  0  0  0
    8.8720   -4.6805   26.9013 C   0  0  0  0  0  0  0  0  0  0  0  0
   10.0942    1.2904   23.6018 C   0  0  0  0  0  0  0  0  0  0  0  0
    8.1890   -0.7180   20.8700 C   0  0  0  0  0  0  0  0  0  0  0  0
    7.6390   -0.2680   18.5410 N   0  0  0  0  0  0  0  0  0  0  0  0
    6.7580    0.3810   17.8350 N   0  0  0  0  0  0  0  0  0  0  0  0
    5.8300    0.9190   18.6970 N   0  0  0  0  0  0  0  0  0  0  0  0
    9.4560    0.1560   22.8130 N   0  0  0  0  0  0  0  0  0  0  0  0
    9.2690    1.4140   20.9380 O   0  0  0  0  0  0  0  0  0  0  0  0
    9.2555   -4.7124   25.5274 O   0  0  0  0  0  0  0  0  0  0  0  0
   14.4724   -0.9437   25.3248 Cl  0  0  0  0  0  0  0  0  0  0  0  0
   14.2830    2.7195   22.1405 H   0  0  0  0  0  0  0  0  0  0  0  0
   11.8131    2.8354   22.1658 H   0  0  0  0  0  0  0  0  0  0  0  0
    8.9221   -0.1995   25.4231 H   0  0  0  0  0  0  0  0  0  0  0  0
   10.0642   -2.2347   21.8253 H   0  0  0  0  0  0  0  0  0  0  0  0
    8.6902   -2.3588   26.5805 H   0  0  0  0  0  0  0  0  0  0  0  0
    9.9254   -4.3921   22.9961 H   0  0  0  0  0  0  0  0  0  0  0  0
   15.4669    1.0568   23.5293 H   0  0  0  0  0  0  0  0  0  0  0  0
   11.6857   -0.4028   24.9939 H   0  0  0  0  0  0  0  0  0  0  0  0
    5.6859    0.7081   22.1001 H   0  0  0  0  0  0  0  0  0  0  0  0
    3.6634    2.0033   21.6928 H   0  0  0  0  0  0  0  0  0  0  0  0
    3.0114    2.6564   19.3629 H   0  0  0  0  0  0  0  0  0  0  0  0
    4.4373    1.9516   17.4622 H   0  0  0  0  0  0  0  0  0  0  0  0
    8.8711   -5.6964   27.3038 H   0  0  0  0  0  0  0  0  0  0  0  0
    7.8758   -4.2402   26.9923 H   0  0  0  0  0  0  0  0  0  0  0  0
    9.5894   -4.0716   27.4566 H   0  0  0  0  0  0  0  0  0  0  0  0
    9.7174    1.2380   24.6291 H   0  0  0  0  0  0  0  0  0  0  0  0
    9.7393    2.2335   23.1730 H   0  0  0  0  0  0  0  0  0  0  0  0
    7.6102   -1.2091   21.6640 H   0  0  0  0  0  0  0  0  0  0  0  0
    8.8741   -1.4657   20.4475 H   0  0  0  0  0  0  0  0  0  0  0  0
  1  2  2  0  0  0  0
  1  7  1  0  0  0  0
  2  9  1  0  0  0  0
  3  5  2  0  0  0  0
  3 10  1  0  0  0  0
  4  6  1  0  0  0  0
  4 10  2  0  0  0  0
  5 11  1  0  0  0  0
  6 11  2  0  0  0  0
  7 12  2  0  0  0  0
  8  9  2  0  0  0  0
  8 12  1  0  0  0  0
  9 21  1  0  0  0  0
 10 26  1  0  0  0  0
 11 28  1  0  0  0  0
 12 29  1  0  0  0  0
 13 14  2  0  0  0  0
 13 15  1  0  0  0  0
 13 25  1  0  0  0  0
 14 22  1  0  0  0  0
 14 23  1  0  0  0  0
 15 16  2  0  0  0  0
 16 17  1  0  0  0  0
 17 18  2  0  0  0  0
 18 25  1  0  0  0  0
 19 22  1  0  0  0  0
 19 26  1  0  0  0  0
 19 27  2  0  0  0  0
 20 28  1  0  0  0  0
 21 26  1  0  0  0  0
 23 24  2  0  0  0  0
 24 25  1  0  0  0  0
  1 30  1  0  0  0  0
  2 31  1  0  0  0  0
  3 32  1  0  0  0  0
  4 33  1  0  0  0  0
  5 34  1  0  0  0  0
  6 35  1  0  0  0  0
  7 36  1  0  0  0  0
  8 37  1  0  0  0  0
 15 38  1  0  0  0  0
 16 39  1  0  0  0  0
 17 40  1  0  0  0  0
 18 41  1  0  0  0  0
 20 42  1  0  0  0  0
 20 43  1  0  0  0  0
 20 44  1  0  0  0  0
 21 45  1  0  0  0  0
 21 46  1  0  0  0  0
 22 47  1  0  0  0  0
 22 48  1  0  0  0  0
M  END
> <clash_score>
0.7279325331761322

> <docking_score>
-7.976268768310547

> <overlap_score>
0.9666218161582947

$$$$
BENZO_441_1
  -OEChem-08232013473D

 58 62  0     0  0  0  0  0  0999 V2000
   14.2723    1.3590   23.9041 C   0  0  0  0  0  0  0  0  0  0  0  0
   13.5225    0.6658   24.8543 C   0  0  0  0  0  0  0  0  0  0  0  0
   13.6300    2.0357   22.8672 C   0  0  0  0  0  0  0  0  0  0  0  0
   12.1304    0.6493   24.7676 C   0  0  0  0  0  0  0  0  0  0  0  0
   12.2379    2.0193   22.7805 C   0  0  0  0  0  0  0  0  0  0  0  0
    8.9960   -2.3380   25.5320 C   0  0  0  0  0  0  0  0  0  0  0  0
    9.6730   -3.4710   23.5300 C   0  0  0  0  0  0  0  0  0  0  0  0
    9.0720   -1.1280   24.8640 C   0  0  0  0  0  0  0  0  0  0  0  0
    9.7200   -2.2600   22.8630 C   0  0  0  0  0  0  0  0  0  0  0  0
   11.4881    1.3261   23.7307 C   0  0  0  0  0  0  0  0  0  0  0  0
    9.3070   -3.5340   24.8780 C   0  0  0  0  0  0  0  0  0  0  0  0
    9.3350   -1.0880   23.5010 C   0  0  0  0  0  0  0  0  0  0  0  0
    6.1790    0.5730   19.9990 C   0  0  0  0  0  0  0  0  0  0  0  0
    7.3170   -0.1610   19.8550 C   0  0  0  0  0  0  0  0  0  0  0  0
    5.4210    0.9600   21.0930 C   0  0  0  0  0  0  0  0  0  0  0  0
    4.2750    1.7050   20.8490 C   0  0  0  0  0  0  0  0  0  0  0  0
    3.9160    2.0630   19.5520 C   0  0  0  0  0  0  0  0  0  0  0  0
    4.6890    1.6810   18.4640 C   0  0  0  0  0  0  0  0  0  0  0  0
    8.3597   -5.0073   26.6307 C   0  0  0  0  0  0  0  0  0  0  0  0
    9.0420    0.3700   21.5280 C   0  0  0  0  0  0  0  0  0  0  0  0
    8.4720   -6.3981   27.2296 C   0  0  0  0  0  0  0  0  0  0  0  0
    9.9252   -6.7605   27.4803 C   0  0  0  0  0  0  0  0  0  0  0  0
   10.7833   -6.6094   26.2282 C   0  0  0  0  0  0  0  0  0  0  0  0
   10.0539   -5.9099   25.0823 C   0  0  0  0  0  0  0  0  0  0  0  0
    9.9898    1.3085   23.6366 C   0  0  0  0  0  0  0  0  0  0  0  0
    8.1890   -0.7180   20.8700 C   0  0  0  0  0  0  0  0  0  0  0  0
    7.6390   -0.2680   18.5410 N   0  0  0  0  0  0  0  0  0  0  0  0
    6.7580    0.3810   17.8350 N   0  0  0  0  0  0  0  0  0  0  0  0
    5.8300    0.9190   18.6970 N   0  0  0  0  0  0  0  0  0  0  0  0
    9.2529   -4.7797   25.5644 N   0  0  0  0  0  0  0  0  0  0  0  0
    9.4560    0.1560   22.8130 N   0  0  0  0  0  0  0  0  0  0  0  0
    7.4954   -4.2356   27.0449 O   0  0  0  0  0  0  0  0  0  0  0  0
    9.2690    1.4140   20.9380 O   0  0  0  0  0  0  0  0  0  0  0  0
   15.3561    1.3728   23.9725 H   0  0  0  0  0  0  0  0  0  0  0  0
   14.0223    0.1397   25.6624 H   0  0  0  0  0  0  0  0  0  0  0  0
   14.2134    2.5764   22.1278 H   0  0  0  0  0  0  0  0  0  0  0  0
   11.5543    0.1064   25.5124 H   0  0  0  0  0  0  0  0  0  0  0  0
   11.7461    2.5493   21.9691 H   0  0  0  0  0  0  0  0  0  0  0  0
    8.6895   -2.3529   26.5807 H   0  0  0  0  0  0  0  0  0  0  0  0
    9.9262   -4.3897   22.9916 H   0  0  0  0  0  0  0  0  0  0  0  0
    8.9224   -0.1998   25.4238 H   0  0  0  0  0  0  0  0  0  0  0  0
   10.0649   -2.2343   21.8258 H   0  0  0  0  0  0  0  0  0  0  0  0
    5.6859    0.7081   22.1001 H   0  0  0  0  0  0  0  0  0  0  0  0
    3.6634    2.0033   21.6928 H   0  0  0  0  0  0  0  0  0  0  0  0
    3.0114    2.6564   19.3629 H   0  0  0  0  0  0  0  0  0  0  0  0
    4.4373    1.9516   17.4622 H   0  0  0  0  0  0  0  0  0  0  0  0
    7.9325   -6.4148   28.1641 H   0  0  0  0  0  0  0  0  0  0  0  0
    8.0254   -7.0920   26.5333 H   0  0  0  0  0  0  0  0  0  0  0  0
   10.3387   -6.1267   28.2923 H   0  0  0  0  0  0  0  0  0  0  0  0
    9.9904   -7.8023   27.8537 H   0  0  0  0  0  0  0  0  0  0  0  0
   11.7037   -6.0404   26.4771 H   0  0  0  0  0  0  0  0  0  0  0  0
   11.1411   -7.6068   25.8918 H   0  0  0  0  0  0  0  0  0  0  0  0
   10.7782   -5.5162   24.3756 H   0  0  0  0  0  0  0  0  0  0  0  0
    9.4042   -6.6189   24.5807 H   0  0  0  0  0  0  0  0  0  0  0  0
    9.5411    1.2412   24.6337 H   0  0  0  0  0  0  0  0  0  0  0  0
    9.6144    2.2265   23.1724 H   0  0  0  0  0  0  0  0  0  0  0  0
    7.5972   -1.2056   21.6500 H   0  0  0  0  0  0  0  0  0  0  0  0
    8.8612   -1.4622   20.4334 H   0  0  0  0  0  0  0  0  0  0  0  0
  1  2  1  0  0  0  0
  1  3  2  0  0  0  0
  2  4  2  0  0  0  0
  3  5  1  0  0  0  0
  4 10  1  0  0  0  0
  5 10  2  0  0  0  0
  6  8  2  0  0  0  0
  6 11  1  0  0  0  0
  7  9  1  0  0  0  0
  7 11  2  0  0  0  0
  8 12  1  0  0  0  0
  9 12  2  0  0  0  0
 10 25  1  0  0  0  0
 11 30  1  0  0  0  0
 12 31  1  0  0  0  0
 13 14  2  0  0  0  0
 13 15  1  0  0  0  0
 13 29  1  0  0  0  0
 14 26  1  0  0  0  0
 14 27  1  0  0  0  0
 15 16  2  0  0  0  0
 16 17  1  0  0  0  0
 17 18  2  0  0  0  0
 18 29  1  0  0  0  0
 19 21  1  0  0  0  0
 19 30  1  0  0  0  0
 19 32  2  0  0  0  0
 20 26  1  0  0  0  0
 20 31  1  0  0  0  0
 20 33  2  0  0  0  0
 21 22  1  0  0  0  0
 22 23  1  0  0  0  0
 23 24  1  0  0  0  0
 24 30  1  0  0  0  0
 25 31  1  0  0  0  0
 27 28  2  0  0  0  0
 28 29  1  0  0  0  0
  1 34  1  0  0  0  0
  2 35  1  0  0  0  0
  3 36  1  0  0  0  0
  4 37  1  0  0  0  0
  5 38  1  0  0  0  0
  6 39  1  0  0  0  0
  7 40  1  0  0  0  0
  8 41  1  0  0  0  0
  9 42  1  0  0  0  0
 15 43  1  0  0  0  0
 16 44  1  0  0  0  0
 17 45  1  0  0  0  0
 18 46  1  0  0  0  0
 21 47  1  0  0  0  0
 21 48  1  0  0  0  0
 22 49  1  0  0  0  0
 22 50  1  0  0  0  0
 23 51  1  0  0  0  0
 23 52  1  0  0  0  0
 24 53  1  0  0  0  0
 24 54  1  0  0  0  0
 25 55  1  0  0  0  0
 25 56  1  0  0  0  0
 26 57  1  0  0  0  0
 26 58  1  0  0  0  0
M  END
> <clash_score>
0.7790751876189459

> <docking_score>
-8.323591232299805

> <overlap_score>
1.0036615133285522

$$$$
BENZO_440_1
  -OEChem-08232013473D

 55 59  0     0  0  0  0  0  0999 V2000
    8.9960   -2.3380   25.5320 C   0  0  0  0  0  0  0  0  0  0  0  0
    9.6730   -3.4710   23.5300 C   0  0  0  0  0  0  0  0  0  0  0  0
    9.0720   -1.1280   24.8640 C   0  0  0  0  0  0  0  0  0  0  0  0
    9.7200   -2.2600   22.8630 C   0  0  0  0  0  0  0  0  0  0  0  0
   12.3542    1.4078   22.6022 C   0  0  0  0  0  0  0  0  0  0  0  0
   13.6822    1.4056   22.9680 C   0  0  0  0  0  0  0  0  0  0  0  0
   12.1874    1.2641   24.9161 C   0  0  0  0  0  0  0  0  0  0  0  0
   11.4881    1.3261   23.7307 C   0  0  0  0  0  0  0  0  0  0  0  0
    9.3070   -3.5340   24.8780 C   0  0  0  0  0  0  0  0  0  0  0  0
    9.3350   -1.0880   23.5010 C   0  0  0  0  0  0  0  0  0  0  0  0
    6.1790    0.5730   19.9990 C   0  0  0  0  0  0  0  0  0  0  0  0
    7.3170   -0.1610   19.8550 C   0  0  0  0  0  0  0  0  0  0  0  0
    5.4210    0.9600   21.0930 C   0  0  0  0  0  0  0  0  0  0  0  0
    4.2750    1.7050   20.8490 C   0  0  0  0  0  0  0  0  0  0  0  0
    3.9160    2.0630   19.5520 C   0  0  0  0  0  0  0  0  0  0  0  0
    4.6890    1.6810   18.4640 C   0  0  0  0  0  0  0  0  0  0  0  0
    8.3596   -5.0074   26.6308 C   0  0  0  0  0  0  0  0  0  0  0  0
    9.0420    0.3700   21.5280 C   0  0  0  0  0  0  0  0  0  0  0  0
    8.4579   -6.4047   27.2169 C   0  0  0  0  0  0  0  0  0  0  0  0
    8.4717   -7.4504   26.1159 C   0  0  0  0  0  0  0  0  0  0  0  0
    9.5645   -7.1893   25.0842 C   0  0  0  0  0  0  0  0  0  0  0  0
   10.2327   -5.8252   25.2501 C   0  0  0  0  0  0  0  0  0  0  0  0
    9.9898    1.3085   23.6366 C   0  0  0  0  0  0  0  0  0  0  0  0
    8.1890   -0.7180   20.8700 C   0  0  0  0  0  0  0  0  0  0  0  0
    7.6390   -0.2680   18.5410 N   0  0  0  0  0  0  0  0  0  0  0  0
    6.7580    0.3810   17.8350 N   0  0  0  0  0  0  0  0  0  0  0  0
    5.8300    0.9190   18.6970 N   0  0  0  0  0  0  0  0  0  0  0  0
    9.2529   -4.7798   25.5645 N   0  0  0  0  0  0  0  0  0  0  0  0
    9.4560    0.1560   22.8130 N   0  0  0  0  0  0  0  0  0  0  0  0
    7.5990   -4.1865   27.1424 O   0  0  0  0  0  0  0  0  0  0  0  0
    9.2690    1.4140   20.9380 O   0  0  0  0  0  0  0  0  0  0  0  0
   13.8809    1.3050   24.6659 S   0  0  0  0  0  0  0  0  0  0  0  0
    8.6895   -2.3529   26.5807 H   0  0  0  0  0  0  0  0  0  0  0  0
    9.9262   -4.3897   22.9916 H   0  0  0  0  0  0  0  0  0  0  0  0
    8.9224   -0.1998   25.4238 H   0  0  0  0  0  0  0  0  0  0  0  0
   10.0649   -2.2343   21.8258 H   0  0  0  0  0  0  0  0  0  0  0  0
   12.0240    1.4652   21.5727 H   0  0  0  0  0  0  0  0  0  0  0  0
   14.5454    1.4574   22.3195 H   0  0  0  0  0  0  0  0  0  0  0  0
   11.7888    1.1956   25.9188 H   0  0  0  0  0  0  0  0  0  0  0  0
    5.6859    0.7081   22.1001 H   0  0  0  0  0  0  0  0  0  0  0  0
    3.6634    2.0033   21.6928 H   0  0  0  0  0  0  0  0  0  0  0  0
    3.0114    2.6564   19.3629 H   0  0  0  0  0  0  0  0  0  0  0  0
    4.4373    1.9516   17.4622 H   0  0  0  0  0  0  0  0  0  0  0  0
    9.3706   -6.4745   27.7885 H   0  0  0  0  0  0  0  0  0  0  0  0
    7.6055   -6.5497   27.8636 H   0  0  0  0  0  0  0  0  0  0  0  0
    8.6095   -8.4604   26.5550 H   0  0  0  0  0  0  0  0  0  0  0  0
    7.4835   -7.4763   25.6142 H   0  0  0  0  0  0  0  0  0  0  0  0
   10.3359   -7.9850   25.1531 H   0  0  0  0  0  0  0  0  0  0  0  0
    9.1458   -7.2796   24.0582 H   0  0  0  0  0  0  0  0  0  0  0  0
   10.9408   -5.8640   26.0725 H   0  0  0  0  0  0  0  0  0  0  0  0
   10.7521   -5.5631   24.3347 H   0  0  0  0  0  0  0  0  0  0  0  0
    9.5411    1.2412   24.6337 H   0  0  0  0  0  0  0  0  0  0  0  0
    9.6144    2.2265   23.1724 H   0  0  0  0  0  0  0  0  0  0  0  0
    7.5972   -1.2056   21.6500 H   0  0  0  0  0  0  0  0  0  0  0  0
    8.8612   -1.4622   20.4334 H   0  0  0  0  0  0  0  0  0  0  0  0
  1  3  2  0  0  0  0
  1  9  1  0  0  0  0
  2  4  1  0  0  0  0
  2  9  2  0  0  0  0
  3 10  1  0  0  0  0
  4 10  2  0  0  0  0
  5  6  2  0  0  0  0
  5  8  1  0  0  0  0
  6 32  1  0  0  0  0
  7  8  2  0  0  0  0
  7 32  1  0  0  0  0
  8 23  1  0  0  0  0
  9 28  1  0  0  0  0
 10 29  1  0  0  0  0
 11 12  2  0  0  0  0
 11 13  1  0  0  0  0
 11 27  1  0  0  0  0
 12 24  1  0  0  0  0
 12 25  1  0  0  0  0
 13 14  2  0  0  0  0
 14 15  1  0  0  0  0
 15 16  2  0  0  0  0
 16 27  1  0  0  0  0
 17 19  1  0  0  0  0
 17 28  1  0  0  0  0
 17 30  2  0  0  0  0
 18 24  1  0  0  0  0
 18 29  1  0  0  0  0
 18 31  2  0  0  0  0
 19 20  1  0  0  0  0
 20 21  1  0  0  0  0
 21 22  1  0  0  0  0
 22 28  1  0  0  0  0
 23 29  1  0  0  0  0
 25 26  2  0  0  0  0
 26 27  1  0  0  0  0
  1 33  1  0  0  0  0
  2 34  1  0  0  0  0
  3 35  1  0  0  0  0
  4 36  1  0  0  0  0
  5 37  1  0  0  0  0
  6 38  1  0  0  0  0
  7 39  1  0  0  0  0
 13 40  1  0  0  0  0
 14 41  1  0  0  0  0
 15 42  1  0  0  0  0
 16 43  1  0  0  0  0
 19 44  1  0  0  0  0
 19 45  1  0  0  0  0
 20 46  1  0  0  0  0
 20 47  1  0  0  0  0
 21 48  1  0  0  0  0
 21 49  1  0  0  0  0
 22 50  1  0  0  0  0
 22 51  1  0  0  0  0
 23 52  1  0  0  0  0
 23 53  1  0  0  0  0
 24 54  1  0  0  0  0
 24 55  1  0  0  0  0
M  END
> <clash_score>
0.6354466317061015

> <docking_score>
-8.27705192565918

> <overlap_score>
0.98652583360672

$$$$
BENZO_442_1
  -OEChem-08232013473D

 58 62  0     0  0  0  0  0  0999 V2000
   13.5359    0.4440   24.6609 C   0  0  0  0  0  0  0  0  0  0  0  0
   12.1439    0.4290   24.5739 C   0  0  0  0  0  0  0  0  0  0  0  0
    8.9960   -2.3380   25.5320 C   0  0  0  0  0  0  0  0  0  0  0  0
    9.6730   -3.4710   23.5300 C   0  0  0  0  0  0  0  0  0  0  0  0
    9.0720   -1.1280   24.8640 C   0  0  0  0  0  0  0  0  0  0  0  0
    9.7200   -2.2600   22.8630 C   0  0  0  0  0  0  0  0  0  0  0  0
   14.2722    1.3561   23.9048 C   0  0  0  0  0  0  0  0  0  0  0  0
   12.2244    2.2381   22.9745 C   0  0  0  0  0  0  0  0  0  0  0  0
   11.4881    1.3261   23.7307 C   0  0  0  0  0  0  0  0  0  0  0  0
    9.3070   -3.5340   24.8780 C   0  0  0  0  0  0  0  0  0  0  0  0
    9.3350   -1.0880   23.5010 C   0  0  0  0  0  0  0  0  0  0  0  0
   13.6165    2.2531   23.0616 C   0  0  0  0  0  0  0  0  0  0  0  0
    6.1790    0.5730   19.9990 C   0  0  0  0  0  0  0  0  0  0  0  0
    7.3170   -0.1610   19.8550 C   0  0  0  0  0  0  0  0  0  0  0  0
    5.4210    0.9600   21.0930 C   0  0  0  0  0  0  0  0  0  0  0  0
    4.2750    1.7050   20.8490 C   0  0  0  0  0  0  0  0  0  0  0  0
    3.9160    2.0630   19.5520 C   0  0  0  0  0  0  0  0  0  0  0  0
    4.6890    1.6810   18.4640 C   0  0  0  0  0  0  0  0  0  0  0  0
    8.3597   -5.0073   26.6307 C   0  0  0  0  0  0  0  0  0  0  0  0
    9.0420    0.3700   21.5280 C   0  0  0  0  0  0  0  0  0  0  0  0
    8.4720   -6.3981   27.2296 C   0  0  0  0  0  0  0  0  0  0  0  0
    9.9252   -6.7605   27.4803 C   0  0  0  0  0  0  0  0  0  0  0  0
   10.7833   -6.6094   26.2282 C   0  0  0  0  0  0  0  0  0  0  0  0
   10.0539   -5.9099   25.0823 C   0  0  0  0  0  0  0  0  0  0  0  0
    9.9898    1.3085   23.6366 C   0  0  0  0  0  0  0  0  0  0  0  0
    8.1890   -0.7180   20.8700 C   0  0  0  0  0  0  0  0  0  0  0  0
    7.6390   -0.2680   18.5410 N   0  0  0  0  0  0  0  0  0  0  0  0
    6.7580    0.3810   17.8350 N   0  0  0  0  0  0  0  0  0  0  0  0
    5.8300    0.9190   18.6970 N   0  0  0  0  0  0  0  0  0  0  0  0
    9.2529   -4.7797   25.5644 N   0  0  0  0  0  0  0  0  0  0  0  0
    9.4560    0.1560   22.8130 N   0  0  0  0  0  0  0  0  0  0  0  0
    7.4954   -4.2356   27.0449 O   0  0  0  0  0  0  0  0  0  0  0  0
    9.2690    1.4140   20.9380 O   0  0  0  0  0  0  0  0  0  0  0  0
   14.5255    3.3774   22.1281 Cl  0  0  0  0  0  0  0  0  0  0  0  0
   14.0462   -0.2547   25.3175 H   0  0  0  0  0  0  0  0  0  0  0  0
   11.5782   -0.2852   25.1666 H   0  0  0  0  0  0  0  0  0  0  0  0
    8.6895   -2.3529   26.5807 H   0  0  0  0  0  0  0  0  0  0  0  0
    9.9262   -4.3897   22.9916 H   0  0  0  0  0  0  0  0  0  0  0  0
    8.9224   -0.1998   25.4238 H   0  0  0  0  0  0  0  0  0  0  0  0
   10.0649   -2.2343   21.8258 H   0  0  0  0  0  0  0  0  0  0  0  0
   15.3567    1.3562   23.9825 H   0  0  0  0  0  0  0  0  0  0  0  0
   11.7084    2.9358   22.3190 H   0  0  0  0  0  0  0  0  0  0  0  0
    5.6859    0.7081   22.1001 H   0  0  0  0  0  0  0  0  0  0  0  0
    3.6634    2.0033   21.6928 H   0  0  0  0  0  0  0  0  0  0  0  0
    3.0114    2.6564   19.3629 H   0  0  0  0  0  0  0  0  0  0  0  0
    4.4373    1.9516   17.4622 H   0  0  0  0  0  0  0  0  0  0  0  0
    7.9325   -6.4148   28.1641 H   0  0  0  0  0  0  0  0  0  0  0  0
    8.0254   -7.0920   26.5333 H   0  0  0  0  0  0  0  0  0  0  0  0
   10.3387   -6.1267   28.2923 H   0  0  0  0  0  0  0  0  0  0  0  0
    9.9904   -7.8023   27.8537 H   0  0  0  0  0  0  0  0  0  0  0  0
   11.7037   -6.0404   26.4771 H   0  0  0  0  0  0  0  0  0  0  0  0
   11.1411   -7.6068   25.8918 H   0  0  0  0  0  0  0  0  0  0  0  0
   10.7782   -5.5162   24.3756 H   0  0  0  0  0  0  0  0  0  0  0  0
    9.4042   -6.6189   24.5807 H   0  0  0  0  0  0  0  0  0  0  0  0
    9.5411    1.2412   24.6337 H   0  0  0  0  0  0  0  0  0  0  0  0
    9.6144    2.2265   23.1724 H   0  0  0  0  0  0  0  0  0  0  0  0
    7.5972   -1.2056   21.6500 H   0  0  0  0  0  0  0  0  0  0  0  0
    8.8612   -1.4622   20.4334 H   0  0  0  0  0  0  0  0  0  0  0  0
  1  2  2  0  0  0  0
  1  7  1  0  0  0  0
  2  9  1  0  0  0  0
  3  5  2  0  0  0  0
  3 10  1  0  0  0  0
  4  6  1  0  0  0  0
  4 10  2  0  0  0  0
  5 11  1  0  0  0  0
  6 11  2  0  0  0  0
  7 12  2  0  0  0  0
  8  9  2  0  0  0  0
  8 12  1  0  0  0  0
  9 25  1  0  0  0  0
 10 30  1  0  0  0  0
 11 31  1  0  0  0  0
 12 34  1  0  0  0  0
 13 14  2  0  0  0  0
 13 15  1  0  0  0  0
 13 29  1  0  0  0  0
 14 26  1  0  0  0  0
 14 27  1  0  0  0  0
 15 16  2  0  0  0  0
 16 17  1  0  0  0  0
 17 18  2  0  0  0  0
 18 29  1  0  0  0  0
 19 21  1  0  0  0  0
 19 30  1  0  0  0  0
 19 32  2  0  0  0  0
 20 26  1  0  0  0  0
 20 31  1  0  0  0  0
 20 33  2  0  0  0  0
 21 22  1  0  0  0  0
 22 23  1  0  0  0  0
 23 24  1  0  0  0  0
 24 30  1  0  0  0  0
 25 31  1  0  0  0  0
 27 28  2  0  0  0  0
 28 29  1  0  0  0  0
  1 35  1  0  0  0  0
  2 36  1  0  0  0  0
  3 37  1  0  0  0  0
  4 38  1  0  0  0  0
  5 39  1  0  0  0  0
  6 40  1  0  0  0  0
  7 41  1  0  0  0  0
  8 42  1  0  0  0  0
 15 43  1  0  0  0  0
 16 44  1  0  0  0  0
 17 45  1  0  0  0  0
 18 46  1  0  0  0  0
 21 47  1  0  0  0  0
 21 48  1  0  0  0  0
 22 49  1  0  0  0  0
 22 50  1  0  0  0  0
 23 51  1  0  0  0  0
 23 52  1  0  0  0  0
 24 53  1  0  0  0  0
 24 54  1  0  0  0  0
 25 55  1  0  0  0  0
 25 56  1  0  0  0  0
 26 57  1  0  0  0  0
 26 58  1  0  0  0  0
M  END
> <clash_score>
0.7790751876189459

> <docking_score>
-7.233506202697754

> <overlap_score>
1.0141552686691284

$$$$
BENZO_445_1
  -OEChem-08232013473D

 57 61  0     0  0  0  0  0  0999 V2000
   14.2720    1.3593   23.9077 C   0  0  0  0  0  0  0  0  0  0  0  0
   13.5215    0.6664   24.8575 C   0  0  0  0  0  0  0  0  0  0  0  0
   13.6306    2.0358   22.8701 C   0  0  0  0  0  0  0  0  0  0  0  0
   12.1295    0.6498   24.7696 C   0  0  0  0  0  0  0  0  0  0  0  0
   12.2386    2.0192   22.7822 C   0  0  0  0  0  0  0  0  0  0  0  0
    8.9960   -2.3380   25.5320 C   0  0  0  0  0  0  0  0  0  0  0  0
    9.6730   -3.4710   23.5300 C   0  0  0  0  0  0  0  0  0  0  0  0
    9.0720   -1.1280   24.8640 C   0  0  0  0  0  0  0  0  0  0  0  0
    9.7200   -2.2600   22.8630 C   0  0  0  0  0  0  0  0  0  0  0  0
   11.4880    1.3262   23.7320 C   0  0  0  0  0  0  0  0  0  0  0  0
    9.3070   -3.5340   24.8780 C   0  0  0  0  0  0  0  0  0  0  0  0
    9.3350   -1.0880   23.5010 C   0  0  0  0  0  0  0  0  0  0  0  0
    6.1790    0.5730   19.9990 C   0  0  0  0  0  0  0  0  0  0  0  0
    7.3170   -0.1610   19.8550 C   0  0  0  0  0  0  0  0  0  0  0  0
    5.4210    0.9600   21.0930 C   0  0  0  0  0  0  0  0  0  0  0  0
    4.2750    1.7050   20.8490 C   0  0  0  0  0  0  0  0  0  0  0  0
    3.9160    2.0630   19.5520 C   0  0  0  0  0  0  0  0  0  0  0  0
    4.6890    1.6810   18.4640 C   0  0  0  0  0  0  0  0  0  0  0  0
    9.0420    0.3700   21.5280 C   0  0  0  0  0  0  0  0  0  0  0  0
   10.0771   -5.0255   26.7193 C   0  0  0  0  0  0  0  0  0  0  0  0
    8.0927   -5.6195   25.4071 C   0  0  0  0  0  0  0  0  0  0  0  0
    9.1933   -4.9427   27.9592 C   0  0  0  0  0  0  0  0  0  0  0  0
    7.2756   -5.5290   26.6967 C   0  0  0  0  0  0  0  0  0  0  0  0
    9.9898    1.3085   23.6366 C   0  0  0  0  0  0  0  0  0  0  0  0
    8.1890   -0.7180   20.8700 C   0  0  0  0  0  0  0  0  0  0  0  0
    7.6390   -0.2680   18.5410 N   0  0  0  0  0  0  0  0  0  0  0  0
    6.7580    0.3810   17.8350 N   0  0  0  0  0  0  0  0  0  0  0  0
    5.8300    0.9190   18.6970 N   0  0  0  0  0  0  0  0  0  0  0  0
    9.2563   -4.7368   25.5413 N   0  0  0  0  0  0  0  0  0  0  0  0
    9.4560    0.1560   22.8130 N   0  0  0  0  0  0  0  0  0  0  0  0
    9.2690    1.4140   20.9380 O   0  0  0  0  0  0  0  0  0  0  0  0
    8.0883   -5.8459   27.8325 O   0  0  0  0  0  0  0  0  0  0  0  0
   15.3558    1.3733   23.9771 H   0  0  0  0  0  0  0  0  0  0  0  0
   14.0207    0.1405   25.6662 H   0  0  0  0  0  0  0  0  0  0  0  0
   14.2146    2.5763   22.1311 H   0  0  0  0  0  0  0  0  0  0  0  0
   11.5528    0.1071   25.5140 H   0  0  0  0  0  0  0  0  0  0  0  0
   11.7475    2.5489   21.9702 H   0  0  0  0  0  0  0  0  0  0  0  0
    8.6905   -2.3533   26.5810 H   0  0  0  0  0  0  0  0  0  0  0  0
    9.9266   -4.3896   22.9917 H   0  0  0  0  0  0  0  0  0  0  0  0
    8.9233   -0.1992   25.4232 H   0  0  0  0  0  0  0  0  0  0  0  0
   10.0650   -2.2330   21.8256 H   0  0  0  0  0  0  0  0  0  0  0  0
    5.6859    0.7081   22.1001 H   0  0  0  0  0  0  0  0  0  0  0  0
    3.6634    2.0033   21.6928 H   0  0  0  0  0  0  0  0  0  0  0  0
    3.0114    2.6564   19.3629 H   0  0  0  0  0  0  0  0  0  0  0  0
    4.4373    1.9516   17.4622 H   0  0  0  0  0  0  0  0  0  0  0  0
   10.8985   -4.3115   26.8085 H   0  0  0  0  0  0  0  0  0  0  0  0
   10.4915   -6.0334   26.6323 H   0  0  0  0  0  0  0  0  0  0  0  0
    8.4327   -6.6456   25.2620 H   0  0  0  0  0  0  0  0  0  0  0  0
    7.4725   -5.3241   24.5619 H   0  0  0  0  0  0  0  0  0  0  0  0
    9.7636   -5.2398   28.8419 H   0  0  0  0  0  0  0  0  0  0  0  0
    8.8236   -3.9268   28.1248 H   0  0  0  0  0  0  0  0  0  0  0  0
    6.8339   -4.5337   26.8232 H   0  0  0  0  0  0  0  0  0  0  0  0
    6.4550   -6.2521   26.6643 H   0  0  0  0  0  0  0  0  0  0  0  0
    9.5403    1.2398   24.6332 H   0  0  0  0  0  0  0  0  0  0  0  0
    9.6146    2.2271   23.1732 H   0  0  0  0  0  0  0  0  0  0  0  0
    7.5972   -1.2056   21.6500 H   0  0  0  0  0  0  0  0  0  0  0  0
    8.8612   -1.4622   20.4334 H   0  0  0  0  0  0  0  0  0  0  0  0
  1  2  1  0  0  0  0
  1  3  2  0  0  0  0
  2  4  2  0  0  0  0
  3  5  1  0  0  0  0
  4 10  1  0  0  0  0
  5 10  2  0  0  0  0
  6  8  2  0  0  0  0
  6 11  1  0  0  0  0
  7  9  1  0  0  0  0
  7 11  2  0  0  0  0
  8 12  1  0  0  0  0
  9 12  2  0  0  0  0
 10 24  1  0  0  0  0
 11 29  1  0  0  0  0
 12 30  1  0  0  0  0
 13 14  2  0  0  0  0
 13 15  1  0  0  0  0
 13 28  1  0  0  0  0
 14 25  1  0  0  0  0
 14 26  1  0  0  0  0
 15 16  2  0  0  0  0
 16 17  1  0  0  0  0
 17 18  2  0  0  0  0
 18 28  1  0  0  0  0
 19 25  1  0  0  0  0
 19 30  1  0  0  0  0
 19 31  2  0  0  0  0
 20 22  1  0  0  0  0
 20 29  1  0  0  0  0
 21 23  1  0  0  0  0
 21 29  1  0  0  0  0
 22 32  1  0  0  0  0
 23 32  1  0  0  0  0
 24 30  1  0  0  0  0
 26 27  2  0  0  0  0
 27 28  1  0  0  0  0
  1 33  1  0  0  0  0
  2 34  1  0  0  0  0
  3 35  1  0  0  0  0
  4 36  1  0  0  0  0
  5 37  1  0  0  0  0
  6 38  1  0  0  0  0
  7 39  1  0  0  0  0
  8 40  1  0  0  0  0
  9 41  1  0  0  0  0
 15 42  1  0  0  0  0
 16 43  1  0  0  0  0
 17 44  1  0  0  0  0
 18 45  1  0  0  0  0
 20 46  1  0  0  0  0
 20 47  1  0  0  0  0
 21 48  1  0  0  0  0
 21 49  1  0  0  0  0
 22 50  1  0  0  0  0
 22 51  1  0  0  0  0
 23 52  1  0  0  0  0
 23 53  1  0  0  0  0
 24 54  1  0  0  0  0
 24 55  1  0  0  0  0
 25 56  1  0  0  0  0
 25 57  1  0  0  0  0
M  END
> <clash_score>
0

> <docking_score>
-9.300447463989258

> <overlap_score>
0.9898089170455933

$$$$
BENZO_443_1
  -OEChem-08232013473D

 58 62  0     0  0  0  0  0  0999 V2000
    8.9960   -2.3380   25.5320 C   0  0  0  0  0  0  0  0  0  0  0  0
    9.6730   -3.4710   23.5300 C   0  0  0  0  0  0  0  0  0  0  0  0
    9.0720   -1.1280   24.8640 C   0  0  0  0  0  0  0  0  0  0  0  0
    9.7200   -2.2600   22.8630 C   0  0  0  0  0  0  0  0  0  0  0  0
   12.2814    1.2680   24.8922 C   0  0  0  0  0  0  0  0  0  0  0  0
   12.3931    1.3998   22.7001 C   0  0  0  0  0  0  0  0  0  0  0  0
   11.4881    1.3261   23.7307 C   0  0  0  0  0  0  0  0  0  0  0  0
    9.3070   -3.5340   24.8780 C   0  0  0  0  0  0  0  0  0  0  0  0
    9.3350   -1.0880   23.5010 C   0  0  0  0  0  0  0  0  0  0  0  0
    6.1790    0.5730   19.9990 C   0  0  0  0  0  0  0  0  0  0  0  0
    7.3170   -0.1610   19.8550 C   0  0  0  0  0  0  0  0  0  0  0  0
    5.4210    0.9600   21.0930 C   0  0  0  0  0  0  0  0  0  0  0  0
    4.2750    1.7050   20.8490 C   0  0  0  0  0  0  0  0  0  0  0  0
    3.9160    2.0630   19.5520 C   0  0  0  0  0  0  0  0  0  0  0  0
    4.6890    1.6810   18.4640 C   0  0  0  0  0  0  0  0  0  0  0  0
    8.3597   -5.0073   26.6307 C   0  0  0  0  0  0  0  0  0  0  0  0
    9.0420    0.3700   21.5280 C   0  0  0  0  0  0  0  0  0  0  0  0
    8.4720   -6.3981   27.2296 C   0  0  0  0  0  0  0  0  0  0  0  0
    9.9252   -6.7605   27.4803 C   0  0  0  0  0  0  0  0  0  0  0  0
   10.7833   -6.6094   26.2282 C   0  0  0  0  0  0  0  0  0  0  0  0
   10.0539   -5.9099   25.0823 C   0  0  0  0  0  0  0  0  0  0  0  0
   14.8966    1.4396   22.6032 C   0  0  0  0  0  0  0  0  0  0  0  0
    9.9898    1.3085   23.6366 C   0  0  0  0  0  0  0  0  0  0  0  0
    8.1890   -0.7180   20.8700 C   0  0  0  0  0  0  0  0  0  0  0  0
   13.5897    1.3018   24.6252 N   0  0  0  0  0  0  0  0  0  0  0  0
    7.6390   -0.2680   18.5410 N   0  0  0  0  0  0  0  0  0  0  0  0
    6.7580    0.3810   17.8350 N   0  0  0  0  0  0  0  0  0  0  0  0
   13.6254    1.3818   23.2842 N   0  0  0  0  0  0  0  0  0  0  0  0
    5.8300    0.9190   18.6970 N   0  0  0  0  0  0  0  0  0  0  0  0
    9.2529   -4.7797   25.5644 N   0  0  0  0  0  0  0  0  0  0  0  0
    9.4560    0.1560   22.8130 N   0  0  0  0  0  0  0  0  0  0  0  0
    7.4954   -4.2356   27.0449 O   0  0  0  0  0  0  0  0  0  0  0  0
    9.2690    1.4140   20.9380 O   0  0  0  0  0  0  0  0  0  0  0  0
    8.6895   -2.3529   26.5807 H   0  0  0  0  0  0  0  0  0  0  0  0
    9.9262   -4.3897   22.9916 H   0  0  0  0  0  0  0  0  0  0  0  0
    8.9224   -0.1998   25.4238 H   0  0  0  0  0  0  0  0  0  0  0  0
   10.0649   -2.2343   21.8258 H   0  0  0  0  0  0  0  0  0  0  0  0
   11.9631    1.2015   25.9229 H   0  0  0  0  0  0  0  0  0  0  0  0
   12.2682    1.4607   21.6275 H   0  0  0  0  0  0  0  0  0  0  0  0
    5.6859    0.7081   22.1001 H   0  0  0  0  0  0  0  0  0  0  0  0
    3.6634    2.0033   21.6928 H   0  0  0  0  0  0  0  0  0  0  0  0
    3.0114    2.6564   19.3629 H   0  0  0  0  0  0  0  0  0  0  0  0
    4.4373    1.9516   17.4622 H   0  0  0  0  0  0  0  0  0  0  0  0
    7.9325   -6.4148   28.1641 H   0  0  0  0  0  0  0  0  0  0  0  0
    8.0254   -7.0920   26.5333 H   0  0  0  0  0  0  0  0  0  0  0  0
   10.3387   -6.1267   28.2923 H   0  0  0  0  0  0  0  0  0  0  0  0
    9.9904   -7.8023   27.8537 H   0  0  0  0  0  0  0  0  0  0  0  0
   11.7037   -6.0404   26.4771 H   0  0  0  0  0  0  0  0  0  0  0  0
   11.1411   -7.6068   25.8918 H   0  0  0  0  0  0  0  0  0  0  0  0
   10.7782   -5.5162   24.3756 H   0  0  0  0  0  0  0  0  0  0  0  0
    9.4042   -6.6189   24.5807 H   0  0  0  0  0  0  0  0  0  0  0  0
   15.1796    2.4910   22.5059 H   0  0  0  0  0  0  0  0  0  0  0  0
   15.6459    0.8942   23.1838 H   0  0  0  0  0  0  0  0  0  0  0  0
   14.8000    0.9757   21.6176 H   0  0  0  0  0  0  0  0  0  0  0  0
    9.5411    1.2412   24.6337 H   0  0  0  0  0  0  0  0  0  0  0  0
    9.6144    2.2265   23.1724 H   0  0  0  0  0  0  0  0  0  0  0  0
    7.5972   -1.2056   21.6500 H   0  0  0  0  0  0  0  0  0  0  0  0
    8.8612   -1.4622   20.4334 H   0  0  0  0  0  0  0  0  0  0  0  0
  1  3  2  0  0  0  0
  1  8  1  0  0  0  0
  2  4  1  0  0  0  0
  2  8  2  0  0  0  0
  3  9  1  0  0  0  0
  4  9  2  0  0  0  0
  5  7  1  0  0  0  0
  5 25  2  0  0  0  0
  6  7  2  0  0  0  0
  6 28  1  0  0  0  0
  7 23  1  0  0  0  0
  8 30  1  0  0  0  0
  9 31  1  0  0  0  0
 10 11  2  0  0  0  0
 10 12  1  0  0  0  0
 10 29  1  0  0  0  0
 11 24  1  0  0  0  0
 11 26  1  0  0  0  0
 12 13  2  0  0  0  0
 13 14  1  0  0  0  0
 14 15  2  0  0  0  0
 15 29  1  0  0  0  0
 16 18  1  0  0  0  0
 16 30  1  0  0  0  0
 16 32  2  0  0  0  0
 17 24  1  0  0  0  0
 17 31  1  0  0  0  0
 17 33  2  0  0  0  0
 18 19  1  0  0  0  0
 19 20  1  0  0  0  0
 20 21  1  0  0  0  0
 21 30  1  0  0  0  0
 22 28  1  0  0  0  0
 23 31  1  0  0  0  0
 25 28  1  0  0  0  0
 26 27  2  0  0  0  0
 27 29  1  0  0  0  0
  1 34  1  0  0  0  0
  2 35  1  0  0  0  0
  3 36  1  0  0  0  0
  4 37  1  0  0  0  0
  5 38  1  0  0  0  0
  6 39  1  0  0  0  0
 12 40  1  0  0  0  0
 13 41  1  0  0  0  0
 14 42  1  0  0  0  0
 15 43  1  0  0  0  0
 18 44  1  0  0  0  0
 18 45  1  0  0  0  0
 19 46  1  0  0  0  0
 19 47  1  0  0  0  0
 20 48  1  0  0  0  0
 20 49  1  0  0  0  0
 21 50  1  0  0  0  0
 21 51  1  0  0  0  0
 22 52  1  0  0  0  0
 22 53  1  0  0  0  0
 22 54  1  0  0  0  0
 23 55  1  0  0  0  0
 23 56  1  0  0  0  0
 24 57  1  0  0  0  0
 24 58  1  0  0  0  0
M  END
> <clash_score>
0.7790751876189459

> <docking_score>
-8.123172760009766

> <overlap_score>
0.9967290759086609

$$$$
BENZO_444_1
  -OEChem-08232013473D

 54 58  0     0  0  0  0  0  0999 V2000
    8.9960   -2.3380   25.5320 C   0  0  0  0  0  0  0  0  0  0  0  0
    9.6730   -3.4710   23.5300 C   0  0  0  0  0  0  0  0  0  0  0  0
    9.0720   -1.1280   24.8640 C   0  0  0  0  0  0  0  0  0  0  0  0
    9.7200   -2.2600   22.8630 C   0  0  0  0  0  0  0  0  0  0  0  0
   12.2995    0.1552   23.7094 C   0  0  0  0  0  0  0  0  0  0  0  0
   13.6405    0.4528   23.8132 C   0  0  0  0  0  0  0  0  0  0  0  0
   12.2399    2.4743   23.8523 C   0  0  0  0  0  0  0  0  0  0  0  0
   11.4880    1.3262   23.7320 C   0  0  0  0  0  0  0  0  0  0  0  0
    9.3070   -3.5340   24.8780 C   0  0  0  0  0  0  0  0  0  0  0  0
    9.3350   -1.0880   23.5010 C   0  0  0  0  0  0  0  0  0  0  0  0
    6.1790    0.5730   19.9990 C   0  0  0  0  0  0  0  0  0  0  0  0
    7.3170   -0.1610   19.8550 C   0  0  0  0  0  0  0  0  0  0  0  0
    5.4210    0.9600   21.0930 C   0  0  0  0  0  0  0  0  0  0  0  0
    4.2750    1.7050   20.8490 C   0  0  0  0  0  0  0  0  0  0  0  0
    3.9160    2.0630   19.5520 C   0  0  0  0  0  0  0  0  0  0  0  0
    4.6890    1.6810   18.4640 C   0  0  0  0  0  0  0  0  0  0  0  0
    9.0420    0.3700   21.5280 C   0  0  0  0  0  0  0  0  0  0  0  0
   10.0771   -5.0255   26.7193 C   0  0  0  0  0  0  0  0  0  0  0  0
    8.0927   -5.6195   25.4071 C   0  0  0  0  0  0  0  0  0  0  0  0
    9.1933   -4.9427   27.9592 C   0  0  0  0  0  0  0  0  0  0  0  0
    7.2756   -5.5290   26.6967 C   0  0  0  0  0  0  0  0  0  0  0  0
    9.9898    1.3085   23.6366 C   0  0  0  0  0  0  0  0  0  0  0  0
    8.1890   -0.7180   20.8700 C   0  0  0  0  0  0  0  0  0  0  0  0
    7.6390   -0.2680   18.5410 N   0  0  0  0  0  0  0  0  0  0  0  0
    6.7580    0.3810   17.8350 N   0  0  0  0  0  0  0  0  0  0  0  0
    5.8300    0.9190   18.6970 N   0  0  0  0  0  0  0  0  0  0  0  0
    9.2563   -4.7368   25.5413 N   0  0  0  0  0  0  0  0  0  0  0  0
    9.4560    0.1560   22.8130 N   0  0  0  0  0  0  0  0  0  0  0  0
    9.2690    1.4140   20.9380 O   0  0  0  0  0  0  0  0  0  0  0  0
    8.0883   -5.8459   27.8325 O   0  0  0  0  0  0  0  0  0  0  0  0
   13.9168    2.1382   23.9372 S   0  0  0  0  0  0  0  0  0  0  0  0
    8.6905   -2.3533   26.5810 H   0  0  0  0  0  0  0  0  0  0  0  0
    9.9266   -4.3896   22.9917 H   0  0  0  0  0  0  0  0  0  0  0  0
    8.9233   -0.1992   25.4232 H   0  0  0  0  0  0  0  0  0  0  0  0
   10.0650   -2.2330   21.8256 H   0  0  0  0  0  0  0  0  0  0  0  0
   11.9228   -0.8561   23.6221 H   0  0  0  0  0  0  0  0  0  0  0  0
   14.4710   -0.2387   23.8228 H   0  0  0  0  0  0  0  0  0  0  0  0
   11.8886    3.4960   23.8960 H   0  0  0  0  0  0  0  0  0  0  0  0
    5.6859    0.7081   22.1001 H   0  0  0  0  0  0  0  0  0  0  0  0
    3.6634    2.0033   21.6928 H   0  0  0  0  0  0  0  0  0  0  0  0
    3.0114    2.6564   19.3629 H   0  0  0  0  0  0  0  0  0  0  0  0
    4.4373    1.9516   17.4622 H   0  0  0  0  0  0  0  0  0  0  0  0
   10.8985   -4.3115   26.8085 H   0  0  0  0  0  0  0  0  0  0  0  0
   10.4915   -6.0334   26.6323 H   0  0  0  0  0  0  0  0  0  0  0  0
    8.4327   -6.6456   25.2620 H   0  0  0  0  0  0  0  0  0  0  0  0
    7.4725   -5.3241   24.5619 H   0  0  0  0  0  0  0  0  0  0  0  0
    9.7636   -5.2398   28.8419 H   0  0  0  0  0  0  0  0  0  0  0  0
    8.8236   -3.9268   28.1248 H   0  0  0  0  0  0  0  0  0  0  0  0
    6.8339   -4.5337   26.8232 H   0  0  0  0  0  0  0  0  0  0  0  0
    6.4550   -6.2521   26.6643 H   0  0  0  0  0  0  0  0  0  0  0  0
    9.5403    1.2398   24.6332 H   0  0  0  0  0  0  0  0  0  0  0  0
    9.6146    2.2271   23.1732 H   0  0  0  0  0  0  0  0  0  0  0  0
    7.5972   -1.2056   21.6500 H   0  0  0  0  0  0  0  0  0  0  0  0
    8.8612   -1.4622   20.4334 H   0  0  0  0  0  0  0  0  0  0  0  0
  1  3  2  0  0  0  0
  1  9  1  0  0  0  0
  2  4  1  0  0  0  0
  2  9  2  0  0  0  0
  3 10  1  0  0  0  0
  4 10  2  0  0  0  0
  5  6  2  0  0  0  0
  5  8  1  0  0  0  0
  6 31  1  0  0  0  0
  7  8  2  0  0  0  0
  7 31  1  0  0  0  0
  8 22  1  0  0  0  0
  9 27  1  0  0  0  0
 10 28  1  0  0  0  0
 11 12  2  0  0  0  0
 11 13  1  0  0  0  0
 11 26  1  0  0  0  0
 12 23  1  0  0  0  0
 12 24  1  0  0  0  0
 13 14  2  0  0  0  0
 14 15  1  0  0  0  0
 15 16  2  0  0  0  0
 16 26  1  0  0  0  0
 17 23  1  0  0  0  0
 17 28  1  0  0  0  0
 17 29  2  0  0  0  0
 18 20  1  0  0  0  0
 18 27  1  0  0  0  0
 19 21  1  0  0  0  0
 19 27  1  0  0  0  0
 20 30  1  0  0  0  0
 21 30  1  0  0  0  0
 22 28  1  0  0  0  0
 24 25  2  0  0  0  0
 25 26  1  0  0  0  0
  1 32  1  0  0  0  0
  2 33  1  0  0  0  0
  3 34  1  0  0  0  0
  4 35  1  0  0  0  0
  5 36  1  0  0  0  0
  6 37  1  0  0  0  0
  7 38  1  0  0  0  0
 13 39  1  0  0  0  0
 14 40  1  0  0  0  0
 15 41  1  0  0  0  0
 16 42  1  0  0  0  0
 18 43  1  0  0  0  0
 18 44  1  0  0  0  0
 19 45  1  0  0  0  0
 19 46  1  0  0  0  0
 20 47  1  0  0  0  0
 20 48  1  0  0  0  0
 21 49  1  0  0  0  0
 21 50  1  0  0  0  0
 22 51  1  0  0  0  0
 22 52  1  0  0  0  0
 23 53  1  0  0  0  0
 23 54  1  0  0  0  0
M  END
> <clash_score>
0

> <docking_score>
-8.404678344726562

> <overlap_score>
0.9743606448173523

$$$$
BENZO_447_1
  -OEChem-08232013473D

 57 61  0     0  0  0  0  0  0999 V2000
    8.9960   -2.3380   25.5320 C   0  0  0  0  0  0  0  0  0  0  0  0
    9.6730   -3.4710   23.5300 C   0  0  0  0  0  0  0  0  0  0  0  0
    9.0720   -1.1280   24.8640 C   0  0  0  0  0  0  0  0  0  0  0  0
    9.7200   -2.2600   22.8630 C   0  0  0  0  0  0  0  0  0  0  0  0
   12.2804    1.2668   24.8940 C   0  0  0  0  0  0  0  0  0  0  0  0
   12.3938    1.4014   22.7022 C   0  0  0  0  0  0  0  0  0  0  0  0
   11.4880    1.3262   23.7320 C   0  0  0  0  0  0  0  0  0  0  0  0
    9.3070   -3.5340   24.8780 C   0  0  0  0  0  0  0  0  0  0  0  0
    9.3350   -1.0880   23.5010 C   0  0  0  0  0  0  0  0  0  0  0  0
    6.1790    0.5730   19.9990 C   0  0  0  0  0  0  0  0  0  0  0  0
    7.3170   -0.1610   19.8550 C   0  0  0  0  0  0  0  0  0  0  0  0
    5.4210    0.9600   21.0930 C   0  0  0  0  0  0  0  0  0  0  0  0
    4.2750    1.7050   20.8490 C   0  0  0  0  0  0  0  0  0  0  0  0
    3.9160    2.0630   19.5520 C   0  0  0  0  0  0  0  0  0  0  0  0
    4.6890    1.6810   18.4640 C   0  0  0  0  0  0  0  0  0  0  0  0
    9.0420    0.3700   21.5280 C   0  0  0  0  0  0  0  0  0  0  0  0
    9.5175   -4.8597   26.9771 C   0  0  0  0  0  0  0  0  0  0  0  0
    8.5165   -5.8725   24.9808 C   0  0  0  0  0  0  0  0  0  0  0  0
    8.1868   -5.0439   27.6987 C   0  0  0  0  0  0  0  0  0  0  0  0
    7.2200   -6.0347   25.7755 C   0  0  0  0  0  0  0  0  0  0  0  0
   14.8975    1.4417   22.6075 C   0  0  0  0  0  0  0  0  0  0  0  0
    9.9898    1.3085   23.6366 C   0  0  0  0  0  0  0  0  0  0  0  0
    8.1890   -0.7180   20.8700 C   0  0  0  0  0  0  0  0  0  0  0  0
   13.5889    1.3011   24.6282 N   0  0  0  0  0  0  0  0  0  0  0  0
    7.6390   -0.2680   18.5410 N   0  0  0  0  0  0  0  0  0  0  0  0
    6.7580    0.3810   17.8350 N   0  0  0  0  0  0  0  0  0  0  0  0
   13.6257    1.3828   23.2873 N   0  0  0  0  0  0  0  0  0  0  0  0
    5.8300    0.9190   18.6970 N   0  0  0  0  0  0  0  0  0  0  0  0
    9.2563   -4.7368   25.5413 N   0  0  0  0  0  0  0  0  0  0  0  0
    9.4560    0.1560   22.8130 N   0  0  0  0  0  0  0  0  0  0  0  0
    9.2690    1.4140   20.9380 O   0  0  0  0  0  0  0  0  0  0  0  0
    7.4994   -6.1853   27.1719 O   0  0  0  0  0  0  0  0  0  0  0  0
    8.6905   -2.3533   26.5810 H   0  0  0  0  0  0  0  0  0  0  0  0
    9.9266   -4.3896   22.9917 H   0  0  0  0  0  0  0  0  0  0  0  0
    8.9233   -0.1992   25.4232 H   0  0  0  0  0  0  0  0  0  0  0  0
   10.0650   -2.2330   21.8256 H   0  0  0  0  0  0  0  0  0  0  0  0
   11.9612    1.1990   25.9244 H   0  0  0  0  0  0  0  0  0  0  0  0
   12.2699    1.4636   21.6296 H   0  0  0  0  0  0  0  0  0  0  0  0
    5.6859    0.7081   22.1001 H   0  0  0  0  0  0  0  0  0  0  0  0
    3.6634    2.0033   21.6928 H   0  0  0  0  0  0  0  0  0  0  0  0
    3.0114    2.6564   19.3629 H   0  0  0  0  0  0  0  0  0  0  0  0
    4.4373    1.9516   17.4622 H   0  0  0  0  0  0  0  0  0  0  0  0
   10.0205   -3.9698   27.3609 H   0  0  0  0  0  0  0  0  0  0  0  0
   10.1535   -5.7310   27.1549 H   0  0  0  0  0  0  0  0  0  0  0  0
    9.1181   -6.7773   25.0755 H   0  0  0  0  0  0  0  0  0  0  0  0
    8.2812   -5.7064   23.9305 H   0  0  0  0  0  0  0  0  0  0  0  0
    8.3629   -5.2252   28.7611 H   0  0  0  0  0  0  0  0  0  0  0  0
    7.5530   -4.1570   27.6103 H   0  0  0  0  0  0  0  0  0  0  0  0
    6.5459   -5.1839   25.6221 H   0  0  0  0  0  0  0  0  0  0  0  0
    6.6948   -6.9354   25.4436 H   0  0  0  0  0  0  0  0  0  0  0  0
   15.1803    2.4933   22.5117 H   0  0  0  0  0  0  0  0  0  0  0  0
   15.6463    0.8957   23.1880 H   0  0  0  0  0  0  0  0  0  0  0  0
   14.8017    0.9790   21.6212 H   0  0  0  0  0  0  0  0  0  0  0  0
    9.5403    1.2398   24.6332 H   0  0  0  0  0  0  0  0  0  0  0  0
    9.6146    2.2271   23.1732 H   0  0  0  0  0  0  0  0  0  0  0  0
    7.5972   -1.2056   21.6500 H   0  0  0  0  0  0  0  0  0  0  0  0
    8.8612   -1.4622   20.4334 H   0  0  0  0  0  0  0  0  0  0  0  0
  1  3  2  0  0  0  0
  1  8  1  0  0  0  0
  2  4  1  0  0  0  0
  2  8  2  0  0  0  0
  3  9  1  0  0  0  0
  4  9  2  0  0  0  0
  5  7  1  0  0  0  0
  5 24  2  0  0  0  0
  6  7  2  0  0  0  0
  6 27  1  0  0  0  0
  7 22  1  0  0  0  0
  8 29  1  0  0  0  0
  9 30  1  0  0  0  0
 10 11  2  0  0  0  0
 10 12  1  0  0  0  0
 10 28  1  0  0  0  0
 11 23  1  0  0  0  0
 11 25  1  0  0  0  0
 12 13  2  0  0  0  0
 13 14  1  0  0  0  0
 14 15  2  0  0  0  0
 15 28  1  0  0  0  0
 16 23  1  0  0  0  0
 16 30  1  0  0  0  0
 16 31  2  0  0  0  0
 17 19  1  0  0  0  0
 17 29  1  0  0  0  0
 18 20  1  0  0  0  0
 18 29  1  0  0  0  0
 19 32  1  0  0  0  0
 20 32  1  0  0  0  0
 21 27  1  0  0  0  0
 22 30  1  0  0  0  0
 24 27  1  0  0  0  0
 25 26  2  0  0  0  0
 26 28  1  0  0  0  0
  1 33  1  0  0  0  0
  2 34  1  0  0  0  0
  3 35  1  0  0  0  0
  4 36  1  0  0  0  0
  5 37  1  0  0  0  0
  6 38  1  0  0  0  0
 12 39  1  0  0  0  0
 13 40  1  0  0  0  0
 14 41  1  0  0  0  0
 15 42  1  0  0  0  0
 17 43  1  0  0  0  0
 17 44  1  0  0  0  0
 18 45  1  0  0  0  0
 18 46  1  0  0  0  0
 19 47  1  0  0  0  0
 19 48  1  0  0  0  0
 20 49  1  0  0  0  0
 20 50  1  0  0  0  0
 21 51  1  0  0  0  0
 21 52  1  0  0  0  0
 21 53  1  0  0  0  0
 22 54  1  0  0  0  0
 22 55  1  0  0  0  0
 23 56  1  0  0  0  0
 23 57  1  0  0  0  0
M  END
> <clash_score>
0

> <docking_score>
-9.061367988586426

> <overlap_score>
0.9866517186164856

$$$$
BENZO_449_1
  -OEChem-08232013473D

 54 57  0     0  0  0  0  0  0999 V2000
   14.3801    1.0884   23.5409 C   0  0  0  0  0  0  0  0  0  0  0  0
    4.2750    1.7050   20.8490 C   0  0  0  0  0  0  0  0  0  0  0  0
   13.6658    0.4386   24.5473 C   0  0  0  0  0  0  0  0  0  0  0  0
   13.7013    1.8040   22.5545 C   0  0  0  0  0  0  0  0  0  0  0  0
    3.9160    2.0630   19.5520 C   0  0  0  0  0  0  0  0  0  0  0  0
    5.4210    0.9600   21.0930 C   0  0  0  0  0  0  0  0  0  0  0  0
   12.2726    0.5041   24.5674 C   0  0  0  0  0  0  0  0  0  0  0  0
   12.3081    1.8695   22.5745 C   0  0  0  0  0  0  0  0  0  0  0  0
    4.6890    1.6810   18.4640 C   0  0  0  0  0  0  0  0  0  0  0  0
    9.0720   -1.1280   24.8640 C   0  0  0  0  0  0  0  0  0  0  0  0
    9.7200   -2.2600   22.8630 C   0  0  0  0  0  0  0  0  0  0  0  0
    8.9960   -2.3380   25.5320 C   0  0  0  0  0  0  0  0  0  0  0  0
    9.6730   -3.4710   23.5300 C   0  0  0  0  0  0  0  0  0  0  0  0
    7.6390   -0.2680   18.5410 C   0  0  0  0  0  0  0  0  0  0  0  0
    6.1790    0.5730   19.9990 C   0  0  0  0  0  0  0  0  0  0  0  0
   11.5937    1.2196   23.5810 C   0  0  0  0  0  0  0  0  0  0  0  0
    7.3170   -0.1610   19.8550 C   0  0  0  0  0  0  0  0  0  0  0  0
    5.8300    0.9190   18.6970 C   0  0  0  0  0  0  0  0  0  0  0  0
    9.3350   -1.0880   23.5010 C   0  0  0  0  0  0  0  0  0  0  0  0
    9.3070   -3.5340   24.8780 C   0  0  0  0  0  0  0  0  0  0  0  0
    9.0420    0.3700   21.5280 C   0  0  0  0  0  0  0  0  0  0  0  0
    8.8742   -4.8064   26.9496 C   0  0  0  0  0  0  0  0  0  0  0  0
    9.5655   -5.9897   24.8591 C   0  0  0  0  0  0  0  0  0  0  0  0
    8.1890   -0.7180   20.8700 C   0  0  0  0  0  0  0  0  0  0  0  0
   10.0942    1.2904   23.6018 C   0  0  0  0  0  0  0  0  0  0  0  0
    6.7580    0.3810   17.8350 N   0  0  0  0  0  0  0  0  0  0  0  0
    9.4560    0.1560   22.8130 N   0  0  0  0  0  0  0  0  0  0  0  0
    9.2543   -4.7552   25.5519 N   0  0  0  0  0  0  0  0  0  0  0  0
    9.2690    1.4140   20.9380 O   0  0  0  0  0  0  0  0  0  0  0  0
   15.4650    1.0384   23.5262 H   0  0  0  0  0  0  0  0  0  0  0  0
    3.6455    2.0160   21.6826 H   0  0  0  0  0  0  0  0  0  0  0  0
   14.1942   -0.1177   25.3161 H   0  0  0  0  0  0  0  0  0  0  0  0
   14.2572    2.3110   21.7714 H   0  0  0  0  0  0  0  0  0  0  0  0
    3.0144    2.6518   19.3914 H   0  0  0  0  0  0  0  0  0  0  0  0
    5.6994    0.6999   22.1043 H   0  0  0  0  0  0  0  0  0  0  0  0
   11.7242   -0.0055   25.3553 H   0  0  0  0  0  0  0  0  0  0  0  0
   11.7877    2.4292   21.8018 H   0  0  0  0  0  0  0  0  0  0  0  0
    4.4044    1.9727   17.4490 H   0  0  0  0  0  0  0  0  0  0  0  0
    8.9217   -0.1995   25.4232 H   0  0  0  0  0  0  0  0  0  0  0  0
   10.0643   -2.2341   21.8254 H   0  0  0  0  0  0  0  0  0  0  0  0
    8.6893   -2.3540   26.5808 H   0  0  0  0  0  0  0  0  0  0  0  0
    9.9257   -4.3898   22.9921 H   0  0  0  0  0  0  0  0  0  0  0  0
    8.4839   -0.7930   18.0639 H   0  0  0  0  0  0  0  0  0  0  0  0
    8.8922   -5.8499   27.2971 H   0  0  0  0  0  0  0  0  0  0  0  0
    9.5819   -4.2099   27.5440 H   0  0  0  0  0  0  0  0  0  0  0  0
    7.8599   -4.3978   27.0688 H   0  0  0  0  0  0  0  0  0  0  0  0
    9.4683   -6.8360   25.5551 H   0  0  0  0  0  0  0  0  0  0  0  0
    8.8685   -6.1243   24.0189 H   0  0  0  0  0  0  0  0  0  0  0  0
   10.5961   -5.9459   24.4772 H   0  0  0  0  0  0  0  0  0  0  0  0
    7.6077   -1.2085   21.6613 H   0  0  0  0  0  0  0  0  0  0  0  0
    8.8716   -1.4650   20.4448 H   0  0  0  0  0  0  0  0  0  0  0  0
    9.7196    1.2411   24.6301 H   0  0  0  0  0  0  0  0  0  0  0  0
    9.7392    2.2326   23.1712 H   0  0  0  0  0  0  0  0  0  0  0  0
    6.7270    0.4925   16.8305 H   0  0  0  0  0  0  0  0  0  0  0  0
  1  3  1  0  0  0  0
  1  4  2  0  0  0  0
  2  5  1  0  0  0  0
  2  6  2  0  0  0  0
  3  7  2  0  0  0  0
  4  8  1  0  0  0  0
  5  9  2  0  0  0  0
  6 15  1  0  0  0  0
  7 16  1  0  0  0  0
  8 16  2  0  0  0  0
  9 18  1  0  0  0  0
 10 12  2  0  0  0  0
 10 19  1  0  0  0  0
 11 13  1  0  0  0  0
 11 19  2  0  0  0  0
 12 20  1  0  0  0  0
 13 20  2  0  0  0  0
 14 17  2  0  0  0  0
 14 26  1  0  0  0  0
 15 17  1  0  0  0  0
 15 18  2  0  0  0  0
 16 25  1  0  0  0  0
 17 24  1  0  0  0  0
 18 26  1  0  0  0  0
 19 27  1  0  0  0  0
 20 28  1  0  0  0  0
 21 24  1  0  0  0  0
 21 27  1  0  0  0  0
 21 29  2  0  0  0  0
 22 28  1  0  0  0  0
 23 28  1  0  0  0  0
 25 27  1  0  0  0  0
  1 30  1  0  0  0  0
  2 31  1  0  0  0  0
  3 32  1  0  0  0  0
  4 33  1  0  0  0  0
  5 34  1  0  0  0  0
  6 35  1  0  0  0  0
  7 36  1  0  0  0  0
  8 37  1  0  0  0  0
  9 38  1  0  0  0  0
 10 39  1  0  0  0  0
 11 40  1  0  0  0  0
 12 41  1  0  0  0  0
 13 42  1  0  0  0  0
 14 43  1  0  0  0  0
 22 44  1  0  0  0  0
 22 45  1  0  0  0  0
 22 46  1  0  0  0  0
 23 47  1  0  0  0  0
 23 48  1  0  0  0  0
 23 49  1  0  0  0  0
 24 50  1  0  0  0  0
 24 51  1  0  0  0  0
 25 52  1  0  0  0  0
 25 53  1  0  0  0  0
 26 54  1  0  0  0  0
M  END
> <clash_score>
0

> <docking_score>
-9.01734447479248

> <overlap_score>
0.9834982752799988

$$$$
BENZO_446_1
  -OEChem-08232013473D

 57 61  0     0  0  0  0  0  0999 V2000
   13.5352    0.4433   24.6627 C   0  0  0  0  0  0  0  0  0  0  0  0
   12.1432    0.4282   24.5746 C   0  0  0  0  0  0  0  0  0  0  0  0
    8.9960   -2.3380   25.5320 C   0  0  0  0  0  0  0  0  0  0  0  0
    9.6730   -3.4710   23.5300 C   0  0  0  0  0  0  0  0  0  0  0  0
    9.0720   -1.1280   24.8640 C   0  0  0  0  0  0  0  0  0  0  0  0
    9.7200   -2.2600   22.8630 C   0  0  0  0  0  0  0  0  0  0  0  0
   14.2720    1.3564   23.9084 C   0  0  0  0  0  0  0  0  0  0  0  0
   12.2248    2.2393   22.9776 C   0  0  0  0  0  0  0  0  0  0  0  0
   11.4880    1.3262   23.7320 C   0  0  0  0  0  0  0  0  0  0  0  0
    9.3070   -3.5340   24.8780 C   0  0  0  0  0  0  0  0  0  0  0  0
    9.3350   -1.0880   23.5010 C   0  0  0  0  0  0  0  0  0  0  0  0
   13.6168    2.2544   23.0658 C   0  0  0  0  0  0  0  0  0  0  0  0
    6.1790    0.5730   19.9990 C   0  0  0  0  0  0  0  0  0  0  0  0
    7.3170   -0.1610   19.8550 C   0  0  0  0  0  0  0  0  0  0  0  0
    5.4210    0.9600   21.0930 C   0  0  0  0  0  0  0  0  0  0  0  0
    4.2750    1.7050   20.8490 C   0  0  0  0  0  0  0  0  0  0  0  0
    3.9160    2.0630   19.5520 C   0  0  0  0  0  0  0  0  0  0  0  0
    4.6890    1.6810   18.4640 C   0  0  0  0  0  0  0  0  0  0  0  0
    9.0420    0.3700   21.5280 C   0  0  0  0  0  0  0  0  0  0  0  0
   10.0771   -5.0255   26.7193 C   0  0  0  0  0  0  0  0  0  0  0  0
    8.0927   -5.6195   25.4071 C   0  0  0  0  0  0  0  0  0  0  0  0
    9.1933   -4.9427   27.9592 C   0  0  0  0  0  0  0  0  0  0  0  0
    7.2756   -5.5290   26.6967 C   0  0  0  0  0  0  0  0  0  0  0  0
    9.9898    1.3085   23.6366 C   0  0  0  0  0  0  0  0  0  0  0  0
    8.1890   -0.7180   20.8700 C   0  0  0  0  0  0  0  0  0  0  0  0
    7.6390   -0.2680   18.5410 N   0  0  0  0  0  0  0  0  0  0  0  0
    6.7580    0.3810   17.8350 N   0  0  0  0  0  0  0  0  0  0  0  0
    5.8300    0.9190   18.6970 N   0  0  0  0  0  0  0  0  0  0  0  0
    9.2563   -4.7368   25.5413 N   0  0  0  0  0  0  0  0  0  0  0  0
    9.4560    0.1560   22.8130 N   0  0  0  0  0  0  0  0  0  0  0  0
    9.2690    1.4140   20.9380 O   0  0  0  0  0  0  0  0  0  0  0  0
    8.0883   -5.8459   27.8325 O   0  0  0  0  0  0  0  0  0  0  0  0
   14.5264    3.3800   22.1345 Cl  0  0  0  0  0  0  0  0  0  0  0  0
   14.0450   -0.2562   25.3189 H   0  0  0  0  0  0  0  0  0  0  0  0
   11.5772   -0.2868   25.1659 H   0  0  0  0  0  0  0  0  0  0  0  0
    8.6905   -2.3533   26.5810 H   0  0  0  0  0  0  0  0  0  0  0  0
    9.9266   -4.3896   22.9917 H   0  0  0  0  0  0  0  0  0  0  0  0
    8.9233   -0.1992   25.4232 H   0  0  0  0  0  0  0  0  0  0  0  0
   10.0650   -2.2330   21.8256 H   0  0  0  0  0  0  0  0  0  0  0  0
   15.3564    1.3566   23.9870 H   0  0  0  0  0  0  0  0  0  0  0  0
   11.7092    2.9378   22.3225 H   0  0  0  0  0  0  0  0  0  0  0  0
    5.6859    0.7081   22.1001 H   0  0  0  0  0  0  0  0  0  0  0  0
    3.6634    2.0033   21.6928 H   0  0  0  0  0  0  0  0  0  0  0  0
    3.0114    2.6564   19.3629 H   0  0  0  0  0  0  0  0  0  0  0  0
    4.4373    1.9516   17.4622 H   0  0  0  0  0  0  0  0  0  0  0  0
   10.8985   -4.3115   26.8085 H   0  0  0  0  0  0  0  0  0  0  0  0
   10.4915   -6.0334   26.6323 H   0  0  0  0  0  0  0  0  0  0  0  0
    8.4327   -6.6456   25.2620 H   0  0  0  0  0  0  0  0  0  0  0  0
    7.4725   -5.3241   24.5619 H   0  0  0  0  0  0  0  0  0  0  0  0
    9.7636   -5.2398   28.8419 H   0  0  0  0  0  0  0  0  0  0  0  0
    8.8236   -3.9268   28.1248 H   0  0  0  0  0  0  0  0  0  0  0  0
    6.8339   -4.5337   26.8232 H   0  0  0  0  0  0  0  0  0  0  0  0
    6.4550   -6.2521   26.6643 H   0  0  0  0  0  0  0  0  0  0  0  0
    9.5403    1.2398   24.6332 H   0  0  0  0  0  0  0  0  0  0  0  0
    9.6146    2.2271   23.1732 H   0  0  0  0  0  0  0  0  0  0  0  0
    7.5972   -1.2056   21.6500 H   0  0  0  0  0  0  0  0  0  0  0  0
    8.8612   -1.4622   20.4334 H   0  0  0  0  0  0  0  0  0  0  0  0
  1  2  2  0  0  0  0
  1  7  1  0  0  0  0
  2  9  1  0  0  0  0
  3  5  2  0  0  0  0
  3 10  1  0  0  0  0
  4  6  1  0  0  0  0
  4 10  2  0  0  0  0
  5 11  1  0  0  0  0
  6 11  2  0  0  0  0
  7 12  2  0  0  0  0
  8  9  2  0  0  0  0
  8 12  1  0  0  0  0
  9 24  1  0  0  0  0
 10 29  1  0  0  0  0
 11 30  1  0  0  0  0
 12 33  1  0  0  0  0
 13 14  2  0  0  0  0
 13 15  1  0  0  0  0
 13 28  1  0  0  0  0
 14 25  1  0  0  0  0
 14 26  1  0  0  0  0
 15 16  2  0  0  0  0
 16 17  1  0  0  0  0
 17 18  2  0  0  0  0
 18 28  1  0  0  0  0
 19 25  1  0  0  0  0
 19 30  1  0  0  0  0
 19 31  2  0  0  0  0
 20 22  1  0  0  0  0
 20 29  1  0  0  0  0
 21 23  1  0  0  0  0
 21 29  1  0  0  0  0
 22 32  1  0  0  0  0
 23 32  1  0  0  0  0
 24 30  1  0  0  0  0
 26 27  2  0  0  0  0
 27 28  1  0  0  0  0
  1 34  1  0  0  0  0
  2 35  1  0  0  0  0
  3 36  1  0  0  0  0
  4 37  1  0  0  0  0
  5 38  1  0  0  0  0
  6 39  1  0  0  0  0
  7 40  1  0  0  0  0
  8 41  1  0  0  0  0
 15 42  1  0  0  0  0
 16 43  1  0  0  0  0
 17 44  1  0  0  0  0
 18 45  1  0  0  0  0
 20 46  1  0  0  0  0
 20 47  1  0  0  0  0
 21 48  1  0  0  0  0
 21 49  1  0  0  0  0
 22 50  1  0  0  0  0
 22 51  1  0  0  0  0
 23 52  1  0  0  0  0
 23 53  1  0  0  0  0
 24 54  1  0  0  0  0
 24 55  1  0  0  0  0
 25 56  1  0  0  0  0
 25 57  1  0  0  0  0
M  END
> <clash_score>
0

> <docking_score>
-8.20928955078125

> <overlap_score>
1.0003458261489868

$$$$
BENZO_448_1
  -OEChem-08232013473D

 51 54  0     0  0  0  0  0  0999 V2000
    4.2750    1.7050   20.8490 C   0  0  0  0  0  0  0  0  0  0  0  0
    3.9160    2.0630   19.5520 C   0  0  0  0  0  0  0  0  0  0  0  0
    5.4210    0.9600   21.0930 C   0  0  0  0  0  0  0  0  0  0  0  0
    4.6890    1.6810   18.4640 C   0  0  0  0  0  0  0  0  0  0  0  0
    9.0720   -1.1280   24.8640 C   0  0  0  0  0  0  0  0  0  0  0  0
    9.7200   -2.2600   22.8630 C   0  0  0  0  0  0  0  0  0  0  0  0
    8.9960   -2.3380   25.5320 C   0  0  0  0  0  0  0  0  0  0  0  0
    9.6730   -3.4710   23.5300 C   0  0  0  0  0  0  0  0  0  0  0  0
   12.4440    2.3610   23.6471 C   0  0  0  0  0  0  0  0  0  0  0  0
    7.6390   -0.2680   18.5410 C   0  0  0  0  0  0  0  0  0  0  0  0
   13.7771    2.0160   23.6093 C   0  0  0  0  0  0  0  0  0  0  0  0
   12.3095    0.0456   23.4948 C   0  0  0  0  0  0  0  0  0  0  0  0
    6.1790    0.5730   19.9990 C   0  0  0  0  0  0  0  0  0  0  0  0
   11.5937    1.2196   23.5810 C   0  0  0  0  0  0  0  0  0  0  0  0
    7.3170   -0.1610   19.8550 C   0  0  0  0  0  0  0  0  0  0  0  0
    5.8300    0.9190   18.6970 C   0  0  0  0  0  0  0  0  0  0  0  0
    9.3350   -1.0880   23.5010 C   0  0  0  0  0  0  0  0  0  0  0  0
    9.3070   -3.5340   24.8780 C   0  0  0  0  0  0  0  0  0  0  0  0
    9.0420    0.3700   21.5280 C   0  0  0  0  0  0  0  0  0  0  0  0
    8.0128   -5.2151   26.1416 C   0  0  0  0  0  0  0  0  0  0  0  0
   10.4372   -5.5860   25.6589 C   0  0  0  0  0  0  0  0  0  0  0  0
    8.1890   -0.7180   20.8700 C   0  0  0  0  0  0  0  0  0  0  0  0
   10.0942    1.2904   23.6018 C   0  0  0  0  0  0  0  0  0  0  0  0
    6.7580    0.3810   17.8350 N   0  0  0  0  0  0  0  0  0  0  0  0
    9.4560    0.1560   22.8130 N   0  0  0  0  0  0  0  0  0  0  0  0
    9.2543   -4.7552   25.5519 N   0  0  0  0  0  0  0  0  0  0  0  0
    9.2690    1.4140   20.9380 O   0  0  0  0  0  0  0  0  0  0  0  0
   13.9994    0.3220   23.4943 S   0  0  0  0  0  0  0  0  0  0  0  0
    3.6455    2.0160   21.6826 H   0  0  0  0  0  0  0  0  0  0  0  0
    3.0144    2.6518   19.3914 H   0  0  0  0  0  0  0  0  0  0  0  0
    5.6994    0.6999   22.1043 H   0  0  0  0  0  0  0  0  0  0  0  0
    4.4044    1.9727   17.4490 H   0  0  0  0  0  0  0  0  0  0  0  0
    8.9217   -0.1995   25.4232 H   0  0  0  0  0  0  0  0  0  0  0  0
   10.0643   -2.2341   21.8254 H   0  0  0  0  0  0  0  0  0  0  0  0
    8.6893   -2.3540   26.5808 H   0  0  0  0  0  0  0  0  0  0  0  0
    9.9257   -4.3898   22.9921 H   0  0  0  0  0  0  0  0  0  0  0  0
   12.0996    3.3850   23.7185 H   0  0  0  0  0  0  0  0  0  0  0  0
    8.4839   -0.7930   18.0639 H   0  0  0  0  0  0  0  0  0  0  0  0
   14.6312    2.6776   23.6429 H   0  0  0  0  0  0  0  0  0  0  0  0
   11.9248   -0.9629   23.4308 H   0  0  0  0  0  0  0  0  0  0  0  0
    8.1744   -6.1904   26.6238 H   0  0  0  0  0  0  0  0  0  0  0  0
    7.6718   -4.4870   26.8924 H   0  0  0  0  0  0  0  0  0  0  0  0
    7.2494   -5.3166   25.3561 H   0  0  0  0  0  0  0  0  0  0  0  0
   10.1946   -6.4995   26.2216 H   0  0  0  0  0  0  0  0  0  0  0  0
   10.7865   -5.8578   24.6518 H   0  0  0  0  0  0  0  0  0  0  0  0
   11.2285   -5.0312   26.1842 H   0  0  0  0  0  0  0  0  0  0  0  0
    7.6077   -1.2085   21.6613 H   0  0  0  0  0  0  0  0  0  0  0  0
    8.8716   -1.4650   20.4448 H   0  0  0  0  0  0  0  0  0  0  0  0
    9.7196    1.2411   24.6301 H   0  0  0  0  0  0  0  0  0  0  0  0
    9.7392    2.2326   23.1712 H   0  0  0  0  0  0  0  0  0  0  0  0
    6.7270    0.4925   16.8305 H   0  0  0  0  0  0  0  0  0  0  0  0
  1  2  1  0  0  0  0
  1  3  2  0  0  0  0
  2  4  2  0  0  0  0
  3 13  1  0  0  0  0
  4 16  1  0  0  0  0
  5  7  2  0  0  0  0
  5 17  1  0  0  0  0
  6  8  1  0  0  0  0
  6 17  2  0  0  0  0
  7 18  1  0  0  0  0
  8 18  2  0  0  0  0
  9 11  2  0  0  0  0
  9 14  1  0  0  0  0
 10 15  2  0  0  0  0
 10 24  1  0  0  0  0
 11 28  1  0  0  0  0
 12 14  2  0  0  0  0
 12 28  1  0  0  0  0
 13 15  1  0  0  0  0
 13 16  2  0  0  0  0
 14 23  1  0  0  0  0
 15 22  1  0  0  0  0
 16 24  1  0  0  0  0
 17 25  1  0  0  0  0
 18 26  1  0  0  0  0
 19 22  1  0  0  0  0
 19 25  1  0  0  0  0
 19 27  2  0  0  0  0
 20 26  1  0  0  0  0
 21 26  1  0  0  0  0
 23 25  1  0  0  0  0
  1 29  1  0  0  0  0
  2 30  1  0  0  0  0
  3 31  1  0  0  0  0
  4 32  1  0  0  0  0
  5 33  1  0  0  0  0
  6 34  1  0  0  0  0
  7 35  1  0  0  0  0
  8 36  1  0  0  0  0
  9 37  1  0  0  0  0
 10 38  1  0  0  0  0
 11 39  1  0  0  0  0
 12 40  1  0  0  0  0
 20 41  1  0  0  0  0
 20 42  1  0  0  0  0
 20 43  1  0  0  0  0
 21 44  1  0  0  0  0
 21 45  1  0  0  0  0
 21 46  1  0  0  0  0
 22 47  1  0  0  0  0
 22 48  1  0  0  0  0
 23 49  1  0  0  0  0
 23 50  1  0  0  0  0
 24 51  1  0  0  0  0
M  END
> <clash_score>
0

> <docking_score>
-8.83073902130127

> <overlap_score>
0.9695918560028076

$$$$
BENZO_451_1
  -OEChem-08232013473D

 54 57  0     0  0  0  0  0  0999 V2000
    4.2750    1.7050   20.8490 C   0  0  0  0  0  0  0  0  0  0  0  0
    3.9160    2.0630   19.5520 C   0  0  0  0  0  0  0  0  0  0  0  0
    5.4210    0.9600   21.0930 C   0  0  0  0  0  0  0  0  0  0  0  0
    4.6890    1.6810   18.4640 C   0  0  0  0  0  0  0  0  0  0  0  0
    9.0720   -1.1280   24.8640 C   0  0  0  0  0  0  0  0  0  0  0  0
    9.7200   -2.2600   22.8630 C   0  0  0  0  0  0  0  0  0  0  0  0
    8.9960   -2.3380   25.5320 C   0  0  0  0  0  0  0  0  0  0  0  0
    9.6730   -3.4710   23.5300 C   0  0  0  0  0  0  0  0  0  0  0  0
   12.4857    2.0141   22.8360 C   0  0  0  0  0  0  0  0  0  0  0  0
    7.6390   -0.2680   18.5410 C   0  0  0  0  0  0  0  0  0  0  0  0
   12.4036    0.3650   24.2882 C   0  0  0  0  0  0  0  0  0  0  0  0
    6.1790    0.5730   19.9990 C   0  0  0  0  0  0  0  0  0  0  0  0
   11.5937    1.2196   23.5810 C   0  0  0  0  0  0  0  0  0  0  0  0
    7.3170   -0.1610   19.8550 C   0  0  0  0  0  0  0  0  0  0  0  0
    5.8300    0.9190   18.6970 C   0  0  0  0  0  0  0  0  0  0  0  0
    9.3350   -1.0880   23.5010 C   0  0  0  0  0  0  0  0  0  0  0  0
    9.3070   -3.5340   24.8780 C   0  0  0  0  0  0  0  0  0  0  0  0
    9.0420    0.3700   21.5280 C   0  0  0  0  0  0  0  0  0  0  0  0
   14.8870    0.0600   24.4246 C   0  0  0  0  0  0  0  0  0  0  0  0
    8.0128   -5.2151   26.1416 C   0  0  0  0  0  0  0  0  0  0  0  0
   10.4372   -5.5860   25.6589 C   0  0  0  0  0  0  0  0  0  0  0  0
    8.1890   -0.7180   20.8700 C   0  0  0  0  0  0  0  0  0  0  0  0
   10.0942    1.2904   23.6018 C   0  0  0  0  0  0  0  0  0  0  0  0
   13.7644    1.6929   23.0502 N   0  0  0  0  0  0  0  0  0  0  0  0
    6.7580    0.3810   17.8350 N   0  0  0  0  0  0  0  0  0  0  0  0
   13.6818    0.6872   23.9378 N   0  0  0  0  0  0  0  0  0  0  0  0
    9.4560    0.1560   22.8130 N   0  0  0  0  0  0  0  0  0  0  0  0
    9.2543   -4.7552   25.5519 N   0  0  0  0  0  0  0  0  0  0  0  0
    9.2690    1.4140   20.9380 O   0  0  0  0  0  0  0  0  0  0  0  0
    3.6455    2.0160   21.6826 H   0  0  0  0  0  0  0  0  0  0  0  0
    3.0144    2.6518   19.3914 H   0  0  0  0  0  0  0  0  0  0  0  0
    5.6994    0.6999   22.1043 H   0  0  0  0  0  0  0  0  0  0  0  0
    4.4044    1.9727   17.4490 H   0  0  0  0  0  0  0  0  0  0  0  0
    8.9217   -0.1995   25.4232 H   0  0  0  0  0  0  0  0  0  0  0  0
   10.0643   -2.2341   21.8254 H   0  0  0  0  0  0  0  0  0  0  0  0
    8.6893   -2.3540   26.5808 H   0  0  0  0  0  0  0  0  0  0  0  0
    9.9257   -4.3898   22.9921 H   0  0  0  0  0  0  0  0  0  0  0  0
   12.2598    2.8148   22.1461 H   0  0  0  0  0  0  0  0  0  0  0  0
    8.4839   -0.7930   18.0639 H   0  0  0  0  0  0  0  0  0  0  0  0
   12.1849   -0.4245   24.9944 H   0  0  0  0  0  0  0  0  0  0  0  0
   15.1274   -0.7720   23.7575 H   0  0  0  0  0  0  0  0  0  0  0  0
   15.7003    0.7911   24.4324 H   0  0  0  0  0  0  0  0  0  0  0  0
   14.7203   -0.3011   25.4433 H   0  0  0  0  0  0  0  0  0  0  0  0
    8.1744   -6.1904   26.6238 H   0  0  0  0  0  0  0  0  0  0  0  0
    7.6718   -4.4870   26.8924 H   0  0  0  0  0  0  0  0  0  0  0  0
    7.2494   -5.3166   25.3561 H   0  0  0  0  0  0  0  0  0  0  0  0
   10.1946   -6.4995   26.2216 H   0  0  0  0  0  0  0  0  0  0  0  0
   10.7865   -5.8578   24.6518 H   0  0  0  0  0  0  0  0  0  0  0  0
   11.2285   -5.0312   26.1842 H   0  0  0  0  0  0  0  0  0  0  0  0
    7.6077   -1.2085   21.6613 H   0  0  0  0  0  0  0  0  0  0  0  0
    8.8716   -1.4650   20.4448 H   0  0  0  0  0  0  0  0  0  0  0  0
    9.7196    1.2411   24.6301 H   0  0  0  0  0  0  0  0  0  0  0  0
    9.7392    2.2326   23.1712 H   0  0  0  0  0  0  0  0  0  0  0  0
    6.7270    0.4925   16.8305 H   0  0  0  0  0  0  0  0  0  0  0  0
  1  2  1  0  0  0  0
  1  3  2  0  0  0  0
  2  4  2  0  0  0  0
  3 12  1  0  0  0  0
  4 15  1  0  0  0  0
  5  7  2  0  0  0  0
  5 16  1  0  0  0  0
  6  8  1  0  0  0  0
  6 16  2  0  0  0  0
  7 17  1  0  0  0  0
  8 17  2  0  0  0  0
  9 13  1  0  0  0  0
  9 24  2  0  0  0  0
 10 14  2  0  0  0  0
 10 25  1  0  0  0  0
 11 13  2  0  0  0  0
 11 26  1  0  0  0  0
 12 14  1  0  0  0  0
 12 15  2  0  0  0  0
 13 23  1  0  0  0  0
 14 22  1  0  0  0  0
 15 25  1  0  0  0  0
 16 27  1  0  0  0  0
 17 28  1  0  0  0  0
 18 22  1  0  0  0  0
 18 27  1  0  0  0  0
 18 29  2  0  0  0  0
 19 26  1  0  0  0  0
 20 28  1  0  0  0  0
 21 28  1  0  0  0  0
 23 27  1  0  0  0  0
 24 26  1  0  0  0  0
  1 30  1  0  0  0  0
  2 31  1  0  0  0  0
  3 32  1  0  0  0  0
  4 33  1  0  0  0  0
  5 34  1  0  0  0  0
  6 35  1  0  0  0  0
  7 36  1  0  0  0  0
  8 37  1  0  0  0  0
  9 38  1  0  0  0  0
 10 39  1  0  0  0  0
 11 40  1  0  0  0  0
 19 41  1  0  0  0  0
 19 42  1  0  0  0  0
 19 43  1  0  0  0  0
 20 44  1  0  0  0  0
 20 45  1  0  0  0  0
 20 46  1  0  0  0  0
 21 47  1  0  0  0  0
 21 48  1  0  0  0  0
 21 49  1  0  0  0  0
 22 50  1  0  0  0  0
 22 51  1  0  0  0  0
 23 52  1  0  0  0  0
 23 53  1  0  0  0  0
 25 54  1  0  0  0  0
M  END
> <clash_score>
0

> <docking_score>
-9.114452362060547

> <overlap_score>
0.97984778881073

$$$$
BENZO_450_1
  -OEChem-08232013473D

 54 57  0     0  0  0  0  0  0999 V2000
    4.2750    1.7050   20.8490 C   0  0  0  0  0  0  0  0  0  0  0  0
    3.9160    2.0630   19.5520 C   0  0  0  0  0  0  0  0  0  0  0  0
   13.7147    2.0302   22.7556 C   0  0  0  0  0  0  0  0  0  0  0  0
    5.4210    0.9600   21.0930 C   0  0  0  0  0  0  0  0  0  0  0  0
   12.3215    2.0947   22.7745 C   0  0  0  0  0  0  0  0  0  0  0  0
    4.6890    1.6810   18.4640 C   0  0  0  0  0  0  0  0  0  0  0  0
    9.0720   -1.1280   24.8640 C   0  0  0  0  0  0  0  0  0  0  0  0
    9.7200   -2.2600   22.8630 C   0  0  0  0  0  0  0  0  0  0  0  0
    8.9960   -2.3380   25.5320 C   0  0  0  0  0  0  0  0  0  0  0  0
    9.6730   -3.4710   23.5300 C   0  0  0  0  0  0  0  0  0  0  0  0
   14.3802    1.0906   23.5430 C   0  0  0  0  0  0  0  0  0  0  0  0
   12.2592    0.2800   24.3684 C   0  0  0  0  0  0  0  0  0  0  0  0
    7.6390   -0.2680   18.5410 C   0  0  0  0  0  0  0  0  0  0  0  0
    6.1790    0.5730   19.9990 C   0  0  0  0  0  0  0  0  0  0  0  0
   11.5937    1.2196   23.5810 C   0  0  0  0  0  0  0  0  0  0  0  0
    7.3170   -0.1610   19.8550 C   0  0  0  0  0  0  0  0  0  0  0  0
    5.8300    0.9190   18.6970 C   0  0  0  0  0  0  0  0  0  0  0  0
    9.3350   -1.0880   23.5010 C   0  0  0  0  0  0  0  0  0  0  0  0
    9.3070   -3.5340   24.8780 C   0  0  0  0  0  0  0  0  0  0  0  0
   13.6525    0.2156   24.3494 C   0  0  0  0  0  0  0  0  0  0  0  0
    9.0420    0.3700   21.5280 C   0  0  0  0  0  0  0  0  0  0  0  0
    8.0128   -5.2151   26.1416 C   0  0  0  0  0  0  0  0  0  0  0  0
   10.4372   -5.5860   25.6589 C   0  0  0  0  0  0  0  0  0  0  0  0
    8.1890   -0.7180   20.8700 C   0  0  0  0  0  0  0  0  0  0  0  0
   10.0942    1.2904   23.6018 C   0  0  0  0  0  0  0  0  0  0  0  0
    6.7580    0.3810   17.8350 N   0  0  0  0  0  0  0  0  0  0  0  0
    9.4560    0.1560   22.8130 N   0  0  0  0  0  0  0  0  0  0  0  0
    9.2543   -4.7552   25.5519 N   0  0  0  0  0  0  0  0  0  0  0  0
    9.2690    1.4140   20.9380 O   0  0  0  0  0  0  0  0  0  0  0  0
   14.4742   -0.9427   25.3215 Cl  0  0  0  0  0  0  0  0  0  0  0  0
    3.6455    2.0160   21.6826 H   0  0  0  0  0  0  0  0  0  0  0  0
    3.0144    2.6518   19.3914 H   0  0  0  0  0  0  0  0  0  0  0  0
   14.2810    2.7119   22.1276 H   0  0  0  0  0  0  0  0  0  0  0  0
    5.6994    0.6999   22.1043 H   0  0  0  0  0  0  0  0  0  0  0  0
   11.8113    2.8300   22.1579 H   0  0  0  0  0  0  0  0  0  0  0  0
    4.4044    1.9727   17.4490 H   0  0  0  0  0  0  0  0  0  0  0  0
    8.9217   -0.1995   25.4232 H   0  0  0  0  0  0  0  0  0  0  0  0
   10.0643   -2.2341   21.8254 H   0  0  0  0  0  0  0  0  0  0  0  0
    8.6893   -2.3540   26.5808 H   0  0  0  0  0  0  0  0  0  0  0  0
    9.9257   -4.3898   22.9921 H   0  0  0  0  0  0  0  0  0  0  0  0
   15.4665    1.0520   23.5183 H   0  0  0  0  0  0  0  0  0  0  0  0
   11.6873   -0.4003   24.9951 H   0  0  0  0  0  0  0  0  0  0  0  0
    8.4839   -0.7930   18.0639 H   0  0  0  0  0  0  0  0  0  0  0  0
    8.1744   -6.1904   26.6238 H   0  0  0  0  0  0  0  0  0  0  0  0
    7.6718   -4.4870   26.8924 H   0  0  0  0  0  0  0  0  0  0  0  0
    7.2494   -5.3166   25.3561 H   0  0  0  0  0  0  0  0  0  0  0  0
   10.1946   -6.4995   26.2216 H   0  0  0  0  0  0  0  0  0  0  0  0
   10.7865   -5.8578   24.6518 H   0  0  0  0  0  0  0  0  0  0  0  0
   11.2285   -5.0312   26.1842 H   0  0  0  0  0  0  0  0  0  0  0  0
    7.6077   -1.2085   21.6613 H   0  0  0  0  0  0  0  0  0  0  0  0
    8.8716   -1.4650   20.4448 H   0  0  0  0  0  0  0  0  0  0  0  0
    9.7196    1.2411   24.6301 H   0  0  0  0  0  0  0  0  0  0  0  0
    9.7392    2.2326   23.1712 H   0  0  0  0  0  0  0  0  0  0  0  0
    6.7270    0.4925   16.8305 H   0  0  0  0  0  0  0  0  0  0  0  0
  1  2  1  0  0  0  0
  1  4  2  0  0  0  0
  2  6  2  0  0  0  0
  3  5  2  0  0  0  0
  3 11  1  0  0  0  0
  4 14  1  0  0  0  0
  5 15  1  0  0  0  0
  6 17  1  0  0  0  0
  7  9  2  0  0  0  0
  7 18  1  0  0  0  0
  8 10  1  0  0  0  0
  8 18  2  0  0  0  0
  9 19  1  0  0  0  0
 10 19  2  0  0  0  0
 11 20  2  0  0  0  0
 12 15  2  0  0  0  0
 12 20  1  0  0  0  0
 13 16  2  0  0  0  0
 13 26  1  0  0  0  0
 14 16  1  0  0  0  0
 14 17  2  0  0  0  0
 15 25  1  0  0  0  0
 16 24  1  0  0  0  0
 17 26  1  0  0  0  0
 18 27  1  0  0  0  0
 19 28  1  0  0  0  0
 20 30  1  0  0  0  0
 21 24  1  0  0  0  0
 21 27  1  0  0  0  0
 21 29  2  0  0  0  0
 22 28  1  0  0  0  0
 23 28  1  0  0  0  0
 25 27  1  0  0  0  0
  1 31  1  0  0  0  0
  2 32  1  0  0  0  0
  3 33  1  0  0  0  0
  4 34  1  0  0  0  0
  5 35  1  0  0  0  0
  6 36  1  0  0  0  0
  7 37  1  0  0  0  0
  8 38  1  0  0  0  0
  9 39  1  0  0  0  0
 10 40  1  0  0  0  0
 11 41  1  0  0  0  0
 12 42  1  0  0  0  0
 13 43  1  0  0  0  0
 22 44  1  0  0  0  0
 22 45  1  0  0  0  0
 22 46  1  0  0  0  0
 23 47  1  0  0  0  0
 23 48  1  0  0  0  0
 23 49  1  0  0  0  0
 24 50  1  0  0  0  0
 24 51  1  0  0  0  0
 25 52  1  0  0  0  0
 25 53  1  0  0  0  0
 26 54  1  0  0  0  0
M  END
> <clash_score>
0.7279747806401634

> <docking_score>
-8.3602876663208

> <overlap_score>
0.9827743172645569

$$$$
BENZO_453_1
  -OEChem-08232013473D

 56 59  0     0  0  0  0  0  0999 V2000
   14.3801    1.0884   23.5409 C   0  0  0  0  0  0  0  0  0  0  0  0
    4.2750    1.7050   20.8490 C   0  0  0  0  0  0  0  0  0  0  0  0
   13.6658    0.4386   24.5473 C   0  0  0  0  0  0  0  0  0  0  0  0
   13.7013    1.8040   22.5545 C   0  0  0  0  0  0  0  0  0  0  0  0
    3.9160    2.0630   19.5520 C   0  0  0  0  0  0  0  0  0  0  0  0
    5.4210    0.9600   21.0930 C   0  0  0  0  0  0  0  0  0  0  0  0
   12.2726    0.5041   24.5674 C   0  0  0  0  0  0  0  0  0  0  0  0
   12.3081    1.8695   22.5745 C   0  0  0  0  0  0  0  0  0  0  0  0
    4.6890    1.6810   18.4640 C   0  0  0  0  0  0  0  0  0  0  0  0
    8.9960   -2.3380   25.5320 C   0  0  0  0  0  0  0  0  0  0  0  0
    9.6730   -3.4710   23.5300 C   0  0  0  0  0  0  0  0  0  0  0  0
    9.0720   -1.1280   24.8640 C   0  0  0  0  0  0  0  0  0  0  0  0
    9.7200   -2.2600   22.8630 C   0  0  0  0  0  0  0  0  0  0  0  0
    7.6390   -0.2680   18.5410 C   0  0  0  0  0  0  0  0  0  0  0  0
    6.1790    0.5730   19.9990 C   0  0  0  0  0  0  0  0  0  0  0  0
   11.5937    1.2196   23.5810 C   0  0  0  0  0  0  0  0  0  0  0  0
    7.3170   -0.1610   19.8550 C   0  0  0  0  0  0  0  0  0  0  0  0
    5.8300    0.9190   18.6970 C   0  0  0  0  0  0  0  0  0  0  0  0
    9.3070   -3.5340   24.8780 C   0  0  0  0  0  0  0  0  0  0  0  0
    9.3350   -1.0880   23.5010 C   0  0  0  0  0  0  0  0  0  0  0  0
    9.0420    0.3700   21.5280 C   0  0  0  0  0  0  0  0  0  0  0  0
    9.5334   -6.0236   25.0414 C   0  0  0  0  0  0  0  0  0  0  0  0
   10.6330   -7.3746   26.8775 C   0  0  0  0  0  0  0  0  0  0  0  0
    8.1890   -0.7180   20.8700 C   0  0  0  0  0  0  0  0  0  0  0  0
   10.0942    1.2904   23.6018 C   0  0  0  0  0  0  0  0  0  0  0  0
    9.3522   -7.0865   26.1149 C   0  0  0  0  0  0  0  0  0  0  0  0
    6.7580    0.3810   17.8350 N   0  0  0  0  0  0  0  0  0  0  0  0
    9.2546   -4.7422   25.5438 N   0  0  0  0  0  0  0  0  0  0  0  0
    9.4560    0.1560   22.8130 N   0  0  0  0  0  0  0  0  0  0  0  0
    9.2690    1.4140   20.9380 O   0  0  0  0  0  0  0  0  0  0  0  0
    9.8805   -6.3053   23.8992 O   0  0  0  0  0  0  0  0  0  0  0  0
   15.4650    1.0384   23.5262 H   0  0  0  0  0  0  0  0  0  0  0  0
    3.6455    2.0160   21.6826 H   0  0  0  0  0  0  0  0  0  0  0  0
   14.1942   -0.1177   25.3161 H   0  0  0  0  0  0  0  0  0  0  0  0
   14.2572    2.3110   21.7714 H   0  0  0  0  0  0  0  0  0  0  0  0
    3.0144    2.6518   19.3914 H   0  0  0  0  0  0  0  0  0  0  0  0
    5.6994    0.6999   22.1043 H   0  0  0  0  0  0  0  0  0  0  0  0
   11.7242   -0.0055   25.3553 H   0  0  0  0  0  0  0  0  0  0  0  0
   11.7877    2.4292   21.8018 H   0  0  0  0  0  0  0  0  0  0  0  0
    4.4044    1.9727   17.4490 H   0  0  0  0  0  0  0  0  0  0  0  0
    8.6895   -2.3529   26.5807 H   0  0  0  0  0  0  0  0  0  0  0  0
    9.9262   -4.3897   22.9916 H   0  0  0  0  0  0  0  0  0  0  0  0
    8.9224   -0.1998   25.4238 H   0  0  0  0  0  0  0  0  0  0  0  0
   10.0649   -2.2343   21.8258 H   0  0  0  0  0  0  0  0  0  0  0  0
    8.4839   -0.7930   18.0639 H   0  0  0  0  0  0  0  0  0  0  0  0
   11.4241   -7.7171   26.2024 H   0  0  0  0  0  0  0  0  0  0  0  0
   10.4628   -8.1530   27.6277 H   0  0  0  0  0  0  0  0  0  0  0  0
   10.9949   -6.4779   27.3912 H   0  0  0  0  0  0  0  0  0  0  0  0
    7.6077   -1.2085   21.6613 H   0  0  0  0  0  0  0  0  0  0  0  0
    8.8716   -1.4650   20.4448 H   0  0  0  0  0  0  0  0  0  0  0  0
    9.7196    1.2411   24.6301 H   0  0  0  0  0  0  0  0  0  0  0  0
    9.7392    2.2326   23.1712 H   0  0  0  0  0  0  0  0  0  0  0  0
    8.5795   -6.7463   26.8138 H   0  0  0  0  0  0  0  0  0  0  0  0
    8.9965   -8.0064   25.6368 H   0  0  0  0  0  0  0  0  0  0  0  0
    6.7270    0.4925   16.8305 H   0  0  0  0  0  0  0  0  0  0  0  0
    8.9776   -4.7057   26.5317 H   0  0  0  0  0  0  0  0  0  0  0  0
  1  3  1  0  0  0  0
  1  4  2  0  0  0  0
  2  5  1  0  0  0  0
  2  6  2  0  0  0  0
  3  7  2  0  0  0  0
  4  8  1  0  0  0  0
  5  9  2  0  0  0  0
  6 15  1  0  0  0  0
  7 16  1  0  0  0  0
  8 16  2  0  0  0  0
  9 18  1  0  0  0  0
 10 12  2  0  0  0  0
 10 19  1  0  0  0  0
 11 13  1  0  0  0  0
 11 19  2  0  0  0  0
 12 20  1  0  0  0  0
 13 20  2  0  0  0  0
 14 17  2  0  0  0  0
 14 27  1  0  0  0  0
 15 17  1  0  0  0  0
 15 18  2  0  0  0  0
 16 25  1  0  0  0  0
 17 24  1  0  0  0  0
 18 27  1  0  0  0  0
 19 28  1  0  0  0  0
 20 29  1  0  0  0  0
 21 24  1  0  0  0  0
 21 29  1  0  0  0  0
 21 30  2  0  0  0  0
 22 26  1  0  0  0  0
 22 28  1  0  0  0  0
 22 31  2  0  0  0  0
 23 26  1  0  0  0  0
 25 29  1  0  0  0  0
  1 32  1  0  0  0  0
  2 33  1  0  0  0  0
  3 34  1  0  0  0  0
  4 35  1  0  0  0  0
  5 36  1  0  0  0  0
  6 37  1  0  0  0  0
  7 38  1  0  0  0  0
  8 39  1  0  0  0  0
  9 40  1  0  0  0  0
 10 41  1  0  0  0  0
 11 42  1  0  0  0  0
 12 43  1  0  0  0  0
 13 44  1  0  0  0  0
 14 45  1  0  0  0  0
 23 46  1  0  0  0  0
 23 47  1  0  0  0  0
 23 48  1  0  0  0  0
 24 49  1  0  0  0  0
 24 50  1  0  0  0  0
 25 51  1  0  0  0  0
 25 52  1  0  0  0  0
 26 53  1  0  0  0  0
 26 54  1  0  0  0  0
 27 55  1  0  0  0  0
 28 56  1  0  0  0  0
M  END
> <clash_score>
1.498667137989192

> <docking_score>
-6.1449384689331055

> <overlap_score>
0.9793576598167419

$$$$
BENZO_452_1
  -OEChem-08232013473D

 53 56  0     0  0  0  0  0  0999 V2000
    4.2750    1.7050   20.8490 C   0  0  0  0  0  0  0  0  0  0  0  0
    3.9160    2.0630   19.5520 C   0  0  0  0  0  0  0  0  0  0  0  0
    5.4210    0.9600   21.0930 C   0  0  0  0  0  0  0  0  0  0  0  0
    4.6890    1.6810   18.4640 C   0  0  0  0  0  0  0  0  0  0  0  0
    8.9960   -2.3380   25.5320 C   0  0  0  0  0  0  0  0  0  0  0  0
    9.6730   -3.4710   23.5300 C   0  0  0  0  0  0  0  0  0  0  0  0
    9.0720   -1.1280   24.8640 C   0  0  0  0  0  0  0  0  0  0  0  0
    9.7200   -2.2600   22.8630 C   0  0  0  0  0  0  0  0  0  0  0  0
   12.4440    2.3610   23.6471 C   0  0  0  0  0  0  0  0  0  0  0  0
    7.6390   -0.2680   18.5410 C   0  0  0  0  0  0  0  0  0  0  0  0
   13.7771    2.0160   23.6093 C   0  0  0  0  0  0  0  0  0  0  0  0
   12.3095    0.0456   23.4948 C   0  0  0  0  0  0  0  0  0  0  0  0
    6.1790    0.5730   19.9990 C   0  0  0  0  0  0  0  0  0  0  0  0
   11.5937    1.2196   23.5810 C   0  0  0  0  0  0  0  0  0  0  0  0
    7.3170   -0.1610   19.8550 C   0  0  0  0  0  0  0  0  0  0  0  0
    5.8300    0.9190   18.6970 C   0  0  0  0  0  0  0  0  0  0  0  0
    9.3070   -3.5340   24.8780 C   0  0  0  0  0  0  0  0  0  0  0  0
    9.3350   -1.0880   23.5010 C   0  0  0  0  0  0  0  0  0  0  0  0
    9.0420    0.3700   21.5280 C   0  0  0  0  0  0  0  0  0  0  0  0
    9.5334   -6.0236   25.0414 C   0  0  0  0  0  0  0  0  0  0  0  0
   10.6330   -7.3746   26.8775 C   0  0  0  0  0  0  0  0  0  0  0  0
    8.1890   -0.7180   20.8700 C   0  0  0  0  0  0  0  0  0  0  0  0
   10.0942    1.2904   23.6018 C   0  0  0  0  0  0  0  0  0  0  0  0
    9.3522   -7.0865   26.1149 C   0  0  0  0  0  0  0  0  0  0  0  0
    6.7580    0.3810   17.8350 N   0  0  0  0  0  0  0  0  0  0  0  0
    9.2546   -4.7422   25.5438 N   0  0  0  0  0  0  0  0  0  0  0  0
    9.4560    0.1560   22.8130 N   0  0  0  0  0  0  0  0  0  0  0  0
    9.2690    1.4140   20.9380 O   0  0  0  0  0  0  0  0  0  0  0  0
    9.8805   -6.3053   23.8992 O   0  0  0  0  0  0  0  0  0  0  0  0
   13.9994    0.3220   23.4943 S   0  0  0  0  0  0  0  0  0  0  0  0
    3.6455    2.0160   21.6826 H   0  0  0  0  0  0  0  0  0  0  0  0
    3.0144    2.6518   19.3914 H   0  0  0  0  0  0  0  0  0  0  0  0
    5.6994    0.6999   22.1043 H   0  0  0  0  0  0  0  0  0  0  0  0
    4.4044    1.9727   17.4490 H   0  0  0  0  0  0  0  0  0  0  0  0
    8.6895   -2.3529   26.5807 H   0  0  0  0  0  0  0  0  0  0  0  0
    9.9262   -4.3897   22.9916 H   0  0  0  0  0  0  0  0  0  0  0  0
    8.9224   -0.1998   25.4238 H   0  0  0  0  0  0  0  0  0  0  0  0
   10.0649   -2.2343   21.8258 H   0  0  0  0  0  0  0  0  0  0  0  0
   12.0996    3.3850   23.7185 H   0  0  0  0  0  0  0  0  0  0  0  0
    8.4839   -0.7930   18.0639 H   0  0  0  0  0  0  0  0  0  0  0  0
   14.6312    2.6776   23.6429 H   0  0  0  0  0  0  0  0  0  0  0  0
   11.9248   -0.9629   23.4308 H   0  0  0  0  0  0  0  0  0  0  0  0
   11.4241   -7.7171   26.2024 H   0  0  0  0  0  0  0  0  0  0  0  0
   10.4628   -8.1530   27.6277 H   0  0  0  0  0  0  0  0  0  0  0  0
   10.9949   -6.4779   27.3912 H   0  0  0  0  0  0  0  0  0  0  0  0
    7.6077   -1.2085   21.6613 H   0  0  0  0  0  0  0  0  0  0  0  0
    8.8716   -1.4650   20.4448 H   0  0  0  0  0  0  0  0  0  0  0  0
    9.7196    1.2411   24.6301 H   0  0  0  0  0  0  0  0  0  0  0  0
    9.7392    2.2326   23.1712 H   0  0  0  0  0  0  0  0  0  0  0  0
    8.5795   -6.7463   26.8138 H   0  0  0  0  0  0  0  0  0  0  0  0
    8.9965   -8.0064   25.6368 H   0  0  0  0  0  0  0  0  0  0  0  0
    6.7270    0.4925   16.8305 H   0  0  0  0  0  0  0  0  0  0  0  0
    8.9776   -4.7057   26.5317 H   0  0  0  0  0  0  0  0  0  0  0  0
  1  2  1  0  0  0  0
  1  3  2  0  0  0  0
  2  4  2  0  0  0  0
  3 13  1  0  0  0  0
  4 16  1  0  0  0  0
  5  7  2  0  0  0  0
  5 17  1  0  0  0  0
  6  8  1  0  0  0  0
  6 17  2  0  0  0  0
  7 18  1  0  0  0  0
  8 18  2  0  0  0  0
  9 11  2  0  0  0  0
  9 14  1  0  0  0  0
 10 15  2  0  0  0  0
 10 25  1  0  0  0  0
 11 30  1  0  0  0  0
 12 14  2  0  0  0  0
 12 30  1  0  0  0  0
 13 15  1  0  0  0  0
 13 16  2  0  0  0  0
 14 23  1  0  0  0  0
 15 22  1  0  0  0  0
 16 25  1  0  0  0  0
 17 26  1  0  0  0  0
 18 27  1  0  0  0  0
 19 22  1  0  0  0  0
 19 27  1  0  0  0  0
 19 28  2  0  0  0  0
 20 24  1  0  0  0  0
 20 26  1  0  0  0  0
 20 29  2  0  0  0  0
 21 24  1  0  0  0  0
 23 27  1  0  0  0  0
  1 31  1  0  0  0  0
  2 32  1  0  0  0  0
  3 33  1  0  0  0  0
  4 34  1  0  0  0  0
  5 35  1  0  0  0  0
  6 36  1  0  0  0  0
  7 37  1  0  0  0  0
  8 38  1  0  0  0  0
  9 39  1  0  0  0  0
 10 40  1  0  0  0  0
 11 41  1  0  0  0  0
 12 42  1  0  0  0  0
 21 43  1  0  0  0  0
 21 44  1  0  0  0  0
 21 45  1  0  0  0  0
 22 46  1  0  0  0  0
 22 47  1  0  0  0  0
 23 48  1  0  0  0  0
 23 49  1  0  0  0  0
 24 50  1  0  0  0  0
 24 51  1  0  0  0  0
 25 52  1  0  0  0  0
 26 53  1  0  0  0  0
M  END
> <clash_score>
1.498667137989192

> <docking_score>
-5.636463165283203

> <overlap_score>
0.9718428254127502

$$$$
BENZO_457_1
  -OEChem-08232013473D

 61 65  0     0  0  0  0  0  0999 V2000
   14.2737    1.3490   23.8824 C   0  0  0  0  0  0  0  0  0  0  0  0
    4.2750    1.7050   20.8490 C   0  0  0  0  0  0  0  0  0  0  0  0
   13.5272    0.6563   24.8356 C   0  0  0  0  0  0  0  0  0  0  0  0
   13.6277    2.0286   22.8497 C   0  0  0  0  0  0  0  0  0  0  0  0
    3.9160    2.0630   19.5520 C   0  0  0  0  0  0  0  0  0  0  0  0
    5.4210    0.9600   21.0930 C   0  0  0  0  0  0  0  0  0  0  0  0
   12.1346    0.6431   24.7559 C   0  0  0  0  0  0  0  0  0  0  0  0
   12.2352    2.0153   22.7700 C   0  0  0  0  0  0  0  0  0  0  0  0
    4.6890    1.6810   18.4640 C   0  0  0  0  0  0  0  0  0  0  0  0
    8.9960   -2.3380   25.5320 C   0  0  0  0  0  0  0  0  0  0  0  0
    9.6730   -3.4710   23.5300 C   0  0  0  0  0  0  0  0  0  0  0  0
    9.0720   -1.1280   24.8640 C   0  0  0  0  0  0  0  0  0  0  0  0
    9.7200   -2.2600   22.8630 C   0  0  0  0  0  0  0  0  0  0  0  0
    7.6390   -0.2680   18.5410 C   0  0  0  0  0  0  0  0  0  0  0  0
    6.1790    0.5730   19.9990 C   0  0  0  0  0  0  0  0  0  0  0  0
   11.4886    1.3226   23.7231 C   0  0  0  0  0  0  0  0  0  0  0  0
    7.3170   -0.1610   19.8550 C   0  0  0  0  0  0  0  0  0  0  0  0
    5.8300    0.9190   18.6970 C   0  0  0  0  0  0  0  0  0  0  0  0
    9.3070   -3.5340   24.8780 C   0  0  0  0  0  0  0  0  0  0  0  0
    9.3350   -1.0880   23.5010 C   0  0  0  0  0  0  0  0  0  0  0  0
    9.0420    0.3700   21.5280 C   0  0  0  0  0  0  0  0  0  0  0  0
    7.3635   -6.1361   27.1888 C   0  0  0  0  0  0  0  0  0  0  0  0
    8.1961   -4.9735   27.7341 C   0  0  0  0  0  0  0  0  0  0  0  0
    7.1942   -6.0394   25.6709 C   0  0  0  0  0  0  0  0  0  0  0  0
    9.5196   -4.8490   26.9797 C   0  0  0  0  0  0  0  0  0  0  0  0
    8.5442   -5.8838   24.9639 C   0  0  0  0  0  0  0  0  0  0  0  0
    8.1890   -0.7180   20.8700 C   0  0  0  0  0  0  0  0  0  0  0  0
    9.9898    1.3085   23.6366 C   0  0  0  0  0  0  0  0  0  0  0  0
    6.7580    0.3810   17.8350 N   0  0  0  0  0  0  0  0  0  0  0  0
    9.2562   -4.7384   25.5422 N   0  0  0  0  0  0  0  0  0  0  0  0
    9.4560    0.1560   22.8130 N   0  0  0  0  0  0  0  0  0  0  0  0
    9.2690    1.4140   20.9380 O   0  0  0  0  0  0  0  0  0  0  0  0
   15.3579    1.3604   23.9454 H   0  0  0  0  0  0  0  0  0  0  0  0
    3.6455    2.0160   21.6826 H   0  0  0  0  0  0  0  0  0  0  0  0
   14.0299    0.1281   25.6404 H   0  0  0  0  0  0  0  0  0  0  0  0
   14.2085    2.5689   22.1081 H   0  0  0  0  0  0  0  0  0  0  0  0
    3.0144    2.6518   19.3914 H   0  0  0  0  0  0  0  0  0  0  0  0
    5.6994    0.6999   22.1043 H   0  0  0  0  0  0  0  0  0  0  0  0
   11.5611    0.1005   25.5028 H   0  0  0  0  0  0  0  0  0  0  0  0
   11.7404    2.5475   21.9618 H   0  0  0  0  0  0  0  0  0  0  0  0
    4.4044    1.9727   17.4490 H   0  0  0  0  0  0  0  0  0  0  0  0
    8.6905   -2.3533   26.5810 H   0  0  0  0  0  0  0  0  0  0  0  0
    9.9266   -4.3896   22.9917 H   0  0  0  0  0  0  0  0  0  0  0  0
    8.9233   -0.1992   25.4231 H   0  0  0  0  0  0  0  0  0  0  0  0
   10.0650   -2.2330   21.8256 H   0  0  0  0  0  0  0  0  0  0  0  0
    8.4839   -0.7930   18.0639 H   0  0  0  0  0  0  0  0  0  0  0  0
    7.8482   -7.0901   27.4469 H   0  0  0  0  0  0  0  0  0  0  0  0
    6.3760   -6.1438   27.6724 H   0  0  0  0  0  0  0  0  0  0  0  0
    7.6307   -4.0424   27.6403 H   0  0  0  0  0  0  0  0  0  0  0  0
    8.3915   -5.1310   28.7968 H   0  0  0  0  0  0  0  0  0  0  0  0
    6.6888   -6.9376   25.3010 H   0  0  0  0  0  0  0  0  0  0  0  0
    6.5515   -5.1859   25.4257 H   0  0  0  0  0  0  0  0  0  0  0  0
   10.0492   -3.9640   27.3414 H   0  0  0  0  0  0  0  0  0  0  0  0
   10.1431   -5.7254   27.1778 H   0  0  0  0  0  0  0  0  0  0  0  0
    9.1338   -6.7931   25.0868 H   0  0  0  0  0  0  0  0  0  0  0  0
    8.3656   -5.7264   23.8998 H   0  0  0  0  0  0  0  0  0  0  0  0
    7.5972   -1.2056   21.6500 H   0  0  0  0  0  0  0  0  0  0  0  0
    8.8612   -1.4622   20.4334 H   0  0  0  0  0  0  0  0  0  0  0  0
    9.5459    1.2490   24.6363 H   0  0  0  0  0  0  0  0  0  0  0  0
    9.6146    2.2245   23.1682 H   0  0  0  0  0  0  0  0  0  0  0  0
    6.7270    0.4925   16.8305 H   0  0  0  0  0  0  0  0  0  0  0  0
  1  3  1  0  0  0  0
  1  4  2  0  0  0  0
  2  5  1  0  0  0  0
  2  6  2  0  0  0  0
  3  7  2  0  0  0  0
  4  8  1  0  0  0  0
  5  9  2  0  0  0  0
  6 15  1  0  0  0  0
  7 16  1  0  0  0  0
  8 16  2  0  0  0  0
  9 18  1  0  0  0  0
 10 12  2  0  0  0  0
 10 19  1  0  0  0  0
 11 13  1  0  0  0  0
 11 19  2  0  0  0  0
 12 20  1  0  0  0  0
 13 20  2  0  0  0  0
 14 17  2  0  0  0  0
 14 29  1  0  0  0  0
 15 17  1  0  0  0  0
 15 18  2  0  0  0  0
 16 28  1  0  0  0  0
 17 27  1  0  0  0  0
 18 29  1  0  0  0  0
 19 30  1  0  0  0  0
 20 31  1  0  0  0  0
 21 27  1  0  0  0  0
 21 31  1  0  0  0  0
 21 32  2  0  0  0  0
 22 23  1  0  0  0  0
 22 24  1  0  0  0  0
 23 25  1  0  0  0  0
 24 26  1  0  0  0  0
 25 30  1  0  0  0  0
 26 30  1  0  0  0  0
 28 31  1  0  0  0  0
  1 33  1  0  0  0  0
  2 34  1  0  0  0  0
  3 35  1  0  0  0  0
  4 36  1  0  0  0  0
  5 37  1  0  0  0  0
  6 38  1  0  0  0  0
  7 39  1  0  0  0  0
  8 40  1  0  0  0  0
  9 41  1  0  0  0  0
 10 42  1  0  0  0  0
 11 43  1  0  0  0  0
 12 44  1  0  0  0  0
 13 45  1  0  0  0  0
 14 46  1  0  0  0  0
 22 47  1  0  0  0  0
 22 48  1  0  0  0  0
 23 49  1  0  0  0  0
 23 50  1  0  0  0  0
 24 51  1  0  0  0  0
 24 52  1  0  0  0  0
 25 53  1  0  0  0  0
 25 54  1  0  0  0  0
 26 55  1  0  0  0  0
 26 56  1  0  0  0  0
 27 57  1  0  0  0  0
 27 58  1  0  0  0  0
 28 59  1  0  0  0  0
 28 60  1  0  0  0  0
 29 61  1  0  0  0  0
M  END
> <clash_score>
0

> <docking_score>
-8.460041046142578

> <overlap_score>
0.9931350946426392

$$$$
BENZO_455_1
  -OEChem-08232013473D

 56 59  0     0  0  0  0  0  0999 V2000
    4.2750    1.7050   20.8490 C   0  0  0  0  0  0  0  0  0  0  0  0
    3.9160    2.0630   19.5520 C   0  0  0  0  0  0  0  0  0  0  0  0
    5.4210    0.9600   21.0930 C   0  0  0  0  0  0  0  0  0  0  0  0
    4.6890    1.6810   18.4640 C   0  0  0  0  0  0  0  0  0  0  0  0
    8.9960   -2.3380   25.5320 C   0  0  0  0  0  0  0  0  0  0  0  0
    9.6730   -3.4710   23.5300 C   0  0  0  0  0  0  0  0  0  0  0  0
    9.0720   -1.1280   24.8640 C   0  0  0  0  0  0  0  0  0  0  0  0
    9.7200   -2.2600   22.8630 C   0  0  0  0  0  0  0  0  0  0  0  0
   12.4857    2.0141   22.8360 C   0  0  0  0  0  0  0  0  0  0  0  0
    7.6390   -0.2680   18.5410 C   0  0  0  0  0  0  0  0  0  0  0  0
   12.4036    0.3650   24.2882 C   0  0  0  0  0  0  0  0  0  0  0  0
    6.1790    0.5730   19.9990 C   0  0  0  0  0  0  0  0  0  0  0  0
   11.5937    1.2196   23.5810 C   0  0  0  0  0  0  0  0  0  0  0  0
    7.3170   -0.1610   19.8550 C   0  0  0  0  0  0  0  0  0  0  0  0
    5.8300    0.9190   18.6970 C   0  0  0  0  0  0  0  0  0  0  0  0
    9.3070   -3.5340   24.8780 C   0  0  0  0  0  0  0  0  0  0  0  0
    9.3350   -1.0880   23.5010 C   0  0  0  0  0  0  0  0  0  0  0  0
    9.0420    0.3700   21.5280 C   0  0  0  0  0  0  0  0  0  0  0  0
    9.5334   -6.0236   25.0414 C   0  0  0  0  0  0  0  0  0  0  0  0
   10.6330   -7.3746   26.8775 C   0  0  0  0  0  0  0  0  0  0  0  0
   14.8870    0.0600   24.4246 C   0  0  0  0  0  0  0  0  0  0  0  0
    8.1890   -0.7180   20.8700 C   0  0  0  0  0  0  0  0  0  0  0  0
   10.0942    1.2904   23.6018 C   0  0  0  0  0  0  0  0  0  0  0  0
    9.3522   -7.0865   26.1149 C   0  0  0  0  0  0  0  0  0  0  0  0
   13.7644    1.6929   23.0502 N   0  0  0  0  0  0  0  0  0  0  0  0
    6.7580    0.3810   17.8350 N   0  0  0  0  0  0  0  0  0  0  0  0
   13.6818    0.6872   23.9378 N   0  0  0  0  0  0  0  0  0  0  0  0
    9.2546   -4.7422   25.5438 N   0  0  0  0  0  0  0  0  0  0  0  0
    9.4560    0.1560   22.8130 N   0  0  0  0  0  0  0  0  0  0  0  0
    9.2690    1.4140   20.9380 O   0  0  0  0  0  0  0  0  0  0  0  0
    9.8805   -6.3053   23.8992 O   0  0  0  0  0  0  0  0  0  0  0  0
    3.6455    2.0160   21.6826 H   0  0  0  0  0  0  0  0  0  0  0  0
    3.0144    2.6518   19.3914 H   0  0  0  0  0  0  0  0  0  0  0  0
    5.6994    0.6999   22.1043 H   0  0  0  0  0  0  0  0  0  0  0  0
    4.4044    1.9727   17.4490 H   0  0  0  0  0  0  0  0  0  0  0  0
    8.6895   -2.3529   26.5807 H   0  0  0  0  0  0  0  0  0  0  0  0
    9.9262   -4.3897   22.9916 H   0  0  0  0  0  0  0  0  0  0  0  0
    8.9224   -0.1998   25.4238 H   0  0  0  0  0  0  0  0  0  0  0  0
   10.0649   -2.2343   21.8258 H   0  0  0  0  0  0  0  0  0  0  0  0
   12.2598    2.8148   22.1461 H   0  0  0  0  0  0  0  0  0  0  0  0
    8.4839   -0.7930   18.0639 H   0  0  0  0  0  0  0  0  0  0  0  0
   12.1849   -0.4245   24.9944 H   0  0  0  0  0  0  0  0  0  0  0  0
   11.4241   -7.7171   26.2024 H   0  0  0  0  0  0  0  0  0  0  0  0
   10.4628   -8.1530   27.6277 H   0  0  0  0  0  0  0  0  0  0  0  0
   10.9949   -6.4779   27.3912 H   0  0  0  0  0  0  0  0  0  0  0  0
   15.1274   -0.7720   23.7575 H   0  0  0  0  0  0  0  0  0  0  0  0
   15.7003    0.7911   24.4324 H   0  0  0  0  0  0  0  0  0  0  0  0
   14.7203   -0.3011   25.4433 H   0  0  0  0  0  0  0  0  0  0  0  0
    7.6077   -1.2085   21.6613 H   0  0  0  0  0  0  0  0  0  0  0  0
    8.8716   -1.4650   20.4448 H   0  0  0  0  0  0  0  0  0  0  0  0
    9.7196    1.2411   24.6301 H   0  0  0  0  0  0  0  0  0  0  0  0
    9.7392    2.2326   23.1712 H   0  0  0  0  0  0  0  0  0  0  0  0
    8.5795   -6.7463   26.8138 H   0  0  0  0  0  0  0  0  0  0  0  0
    8.9965   -8.0064   25.6368 H   0  0  0  0  0  0  0  0  0  0  0  0
    6.7270    0.4925   16.8305 H   0  0  0  0  0  0  0  0  0  0  0  0
    8.9776   -4.7057   26.5317 H   0  0  0  0  0  0  0  0  0  0  0  0
  1  2  1  0  0  0  0
  1  3  2  0  0  0  0
  2  4  2  0  0  0  0
  3 12  1  0  0  0  0
  4 15  1  0  0  0  0
  5  7  2  0  0  0  0
  5 16  1  0  0  0  0
  6  8  1  0  0  0  0
  6 16  2  0  0  0  0
  7 17  1  0  0  0  0
  8 17  2  0  0  0  0
  9 13  1  0  0  0  0
  9 25  2  0  0  0  0
 10 14  2  0  0  0  0
 10 26  1  0  0  0  0
 11 13  2  0  0  0  0
 11 27  1  0  0  0  0
 12 14  1  0  0  0  0
 12 15  2  0  0  0  0
 13 23  1  0  0  0  0
 14 22  1  0  0  0  0
 15 26  1  0  0  0  0
 16 28  1  0  0  0  0
 17 29  1  0  0  0  0
 18 22  1  0  0  0  0
 18 29  1  0  0  0  0
 18 30  2  0  0  0  0
 19 24  1  0  0  0  0
 19 28  1  0  0  0  0
 19 31  2  0  0  0  0
 20 24  1  0  0  0  0
 21 27  1  0  0  0  0
 23 29  1  0  0  0  0
 25 27  1  0  0  0  0
  1 32  1  0  0  0  0
  2 33  1  0  0  0  0
  3 34  1  0  0  0  0
  4 35  1  0  0  0  0
  5 36  1  0  0  0  0
  6 37  1  0  0  0  0
  7 38  1  0  0  0  0
  8 39  1  0  0  0  0
  9 40  1  0  0  0  0
 10 41  1  0  0  0  0
 11 42  1  0  0  0  0
 20 43  1  0  0  0  0
 20 44  1  0  0  0  0
 20 45  1  0  0  0  0
 21 46  1  0  0  0  0
 21 47  1  0  0  0  0
 21 48  1  0  0  0  0
 22 49  1  0  0  0  0
 22 50  1  0  0  0  0
 23 51  1  0  0  0  0
 23 52  1  0  0  0  0
 24 53  1  0  0  0  0
 24 54  1  0  0  0  0
 26 55  1  0  0  0  0
 28 56  1  0  0  0  0
M  END
> <clash_score>
1.498667137989192

> <docking_score>
-5.920176982879639

> <overlap_score>
0.9820586442947388

$$$$
BENZO_454_1
  -OEChem-08232013473D

 56 59  0     0  0  0  0  0  0999 V2000
    4.2750    1.7050   20.8490 C   0  0  0  0  0  0  0  0  0  0  0  0
    3.9160    2.0630   19.5520 C   0  0  0  0  0  0  0  0  0  0  0  0
   13.7147    2.0302   22.7556 C   0  0  0  0  0  0  0  0  0  0  0  0
    5.4210    0.9600   21.0930 C   0  0  0  0  0  0  0  0  0  0  0  0
   12.3215    2.0947   22.7745 C   0  0  0  0  0  0  0  0  0  0  0  0
    4.6890    1.6810   18.4640 C   0  0  0  0  0  0  0  0  0  0  0  0
    8.9960   -2.3380   25.5320 C   0  0  0  0  0  0  0  0  0  0  0  0
    9.6730   -3.4710   23.5300 C   0  0  0  0  0  0  0  0  0  0  0  0
    9.0720   -1.1280   24.8640 C   0  0  0  0  0  0  0  0  0  0  0  0
    9.7200   -2.2600   22.8630 C   0  0  0  0  0  0  0  0  0  0  0  0
   14.3802    1.0906   23.5430 C   0  0  0  0  0  0  0  0  0  0  0  0
   12.2592    0.2800   24.3684 C   0  0  0  0  0  0  0  0  0  0  0  0
    7.6390   -0.2680   18.5410 C   0  0  0  0  0  0  0  0  0  0  0  0
    6.1790    0.5730   19.9990 C   0  0  0  0  0  0  0  0  0  0  0  0
   11.5937    1.2196   23.5810 C   0  0  0  0  0  0  0  0  0  0  0  0
    7.3170   -0.1610   19.8550 C   0  0  0  0  0  0  0  0  0  0  0  0
    5.8300    0.9190   18.6970 C   0  0  0  0  0  0  0  0  0  0  0  0
    9.3070   -3.5340   24.8780 C   0  0  0  0  0  0  0  0  0  0  0  0
    9.3350   -1.0880   23.5010 C   0  0  0  0  0  0  0  0  0  0  0  0
   13.6525    0.2156   24.3494 C   0  0  0  0  0  0  0  0  0  0  0  0
    9.0420    0.3700   21.5280 C   0  0  0  0  0  0  0  0  0  0  0  0
    9.5334   -6.0236   25.0414 C   0  0  0  0  0  0  0  0  0  0  0  0
   10.6330   -7.3746   26.8775 C   0  0  0  0  0  0  0  0  0  0  0  0
    8.1890   -0.7180   20.8700 C   0  0  0  0  0  0  0  0  0  0  0  0
   10.0942    1.2904   23.6018 C   0  0  0  0  0  0  0  0  0  0  0  0
    9.3522   -7.0865   26.1149 C   0  0  0  0  0  0  0  0  0  0  0  0
    6.7580    0.3810   17.8350 N   0  0  0  0  0  0  0  0  0  0  0  0
    9.2546   -4.7422   25.5438 N   0  0  0  0  0  0  0  0  0  0  0  0
    9.4560    0.1560   22.8130 N   0  0  0  0  0  0  0  0  0  0  0  0
    9.2690    1.4140   20.9380 O   0  0  0  0  0  0  0  0  0  0  0  0
    9.8805   -6.3053   23.8992 O   0  0  0  0  0  0  0  0  0  0  0  0
   14.4742   -0.9427   25.3215 Cl  0  0  0  0  0  0  0  0  0  0  0  0
    3.6455    2.0160   21.6826 H   0  0  0  0  0  0  0  0  0  0  0  0
    3.0144    2.6518   19.3914 H   0  0  0  0  0  0  0  0  0  0  0  0
   14.2810    2.7119   22.1276 H   0  0  0  0  0  0  0  0  0  0  0  0
    5.6994    0.6999   22.1043 H   0  0  0  0  0  0  0  0  0  0  0  0
   11.8113    2.8300   22.1579 H   0  0  0  0  0  0  0  0  0  0  0  0
    4.4044    1.9727   17.4490 H   0  0  0  0  0  0  0  0  0  0  0  0
    8.6895   -2.3529   26.5807 H   0  0  0  0  0  0  0  0  0  0  0  0
    9.9262   -4.3897   22.9916 H   0  0  0  0  0  0  0  0  0  0  0  0
    8.9224   -0.1998   25.4238 H   0  0  0  0  0  0  0  0  0  0  0  0
   10.0649   -2.2343   21.8258 H   0  0  0  0  0  0  0  0  0  0  0  0
   15.4665    1.0520   23.5183 H   0  0  0  0  0  0  0  0  0  0  0  0
   11.6873   -0.4003   24.9951 H   0  0  0  0  0  0  0  0  0  0  0  0
    8.4839   -0.7930   18.0639 H   0  0  0  0  0  0  0  0  0  0  0  0
   11.4241   -7.7171   26.2024 H   0  0  0  0  0  0  0  0  0  0  0  0
   10.4628   -8.1530   27.6277 H   0  0  0  0  0  0  0  0  0  0  0  0
   10.9949   -6.4779   27.3912 H   0  0  0  0  0  0  0  0  0  0  0  0
    7.6077   -1.2085   21.6613 H   0  0  0  0  0  0  0  0  0  0  0  0
    8.8716   -1.4650   20.4448 H   0  0  0  0  0  0  0  0  0  0  0  0
    9.7196    1.2411   24.6301 H   0  0  0  0  0  0  0  0  0  0  0  0
    9.7392    2.2326   23.1712 H   0  0  0  0  0  0  0  0  0  0  0  0
    8.5795   -6.7463   26.8138 H   0  0  0  0  0  0  0  0  0  0  0  0
    8.9965   -8.0064   25.6368 H   0  0  0  0  0  0  0  0  0  0  0  0
    6.7270    0.4925   16.8305 H   0  0  0  0  0  0  0  0  0  0  0  0
    8.9776   -4.7057   26.5317 H   0  0  0  0  0  0  0  0  0  0  0  0
  1  2  1  0  0  0  0
  1  4  2  0  0  0  0
  2  6  2  0  0  0  0
  3  5  2  0  0  0  0
  3 11  1  0  0  0  0
  4 14  1  0  0  0  0
  5 15  1  0  0  0  0
  6 17  1  0  0  0  0
  7  9  2  0  0  0  0
  7 18  1  0  0  0  0
  8 10  1  0  0  0  0
  8 18  2  0  0  0  0
  9 19  1  0  0  0  0
 10 19  2  0  0  0  0
 11 20  2  0  0  0  0
 12 15  2  0  0  0  0
 12 20  1  0  0  0  0
 13 16  2  0  0  0  0
 13 27  1  0  0  0  0
 14 16  1  0  0  0  0
 14 17  2  0  0  0  0
 15 25  1  0  0  0  0
 16 24  1  0  0  0  0
 17 27  1  0  0  0  0
 18 28  1  0  0  0  0
 19 29  1  0  0  0  0
 20 32  1  0  0  0  0
 21 24  1  0  0  0  0
 21 29  1  0  0  0  0
 21 30  2  0  0  0  0
 22 26  1  0  0  0  0
 22 28  1  0  0  0  0
 22 31  2  0  0  0  0
 23 26  1  0  0  0  0
 25 29  1  0  0  0  0
  1 33  1  0  0  0  0
  2 34  1  0  0  0  0
  3 35  1  0  0  0  0
  4 36  1  0  0  0  0
  5 37  1  0  0  0  0
  6 38  1  0  0  0  0
  7 39  1  0  0  0  0
  8 40  1  0  0  0  0
  9 41  1  0  0  0  0
 10 42  1  0  0  0  0
 11 43  1  0  0  0  0
 12 44  1  0  0  0  0
 13 45  1  0  0  0  0
 23 46  1  0  0  0  0
 23 47  1  0  0  0  0
 23 48  1  0  0  0  0
 24 49  1  0  0  0  0
 24 50  1  0  0  0  0
 25 51  1  0  0  0  0
 25 52  1  0  0  0  0
 26 53  1  0  0  0  0
 26 54  1  0  0  0  0
 27 55  1  0  0  0  0
 28 56  1  0  0  0  0
M  END
> <clash_score>
2.2266419186293556

> <docking_score>
-5.166011810302734

> <overlap_score>
0.984973132610321

$$$$
BENZO_456_1
  -OEChem-08232013473D

 58 62  0     0  0  0  0  0  0999 V2000
    4.2750    1.7050   20.8490 C   0  0  0  0  0  0  0  0  0  0  0  0
    3.9160    2.0630   19.5520 C   0  0  0  0  0  0  0  0  0  0  0  0
    5.4210    0.9600   21.0930 C   0  0  0  0  0  0  0  0  0  0  0  0
    4.6890    1.6810   18.4640 C   0  0  0  0  0  0  0  0  0  0  0  0
    8.9960   -2.3380   25.5320 C   0  0  0  0  0  0  0  0  0  0  0  0
    9.6730   -3.4710   23.5300 C   0  0  0  0  0  0  0  0  0  0  0  0
    9.0720   -1.1280   24.8640 C   0  0  0  0  0  0  0  0  0  0  0  0
    9.7200   -2.2600   22.8630 C   0  0  0  0  0  0  0  0  0  0  0  0
   12.3492    1.3945   22.5898 C   0  0  0  0  0  0  0  0  0  0  0  0
    7.6390   -0.2680   18.5410 C   0  0  0  0  0  0  0  0  0  0  0  0
   13.6791    1.3910   22.9490 C   0  0  0  0  0  0  0  0  0  0  0  0
   12.1936    1.2666   24.9054 C   0  0  0  0  0  0  0  0  0  0  0  0
    6.1790    0.5730   19.9990 C   0  0  0  0  0  0  0  0  0  0  0  0
   11.4886    1.3226   23.7231 C   0  0  0  0  0  0  0  0  0  0  0  0
    7.3170   -0.1610   19.8550 C   0  0  0  0  0  0  0  0  0  0  0  0
    5.8300    0.9190   18.6970 C   0  0  0  0  0  0  0  0  0  0  0  0
    9.3070   -3.5340   24.8780 C   0  0  0  0  0  0  0  0  0  0  0  0
    9.3350   -1.0880   23.5010 C   0  0  0  0  0  0  0  0  0  0  0  0
    9.0420    0.3700   21.5280 C   0  0  0  0  0  0  0  0  0  0  0  0
    7.2235   -6.6199   26.3009 C   0  0  0  0  0  0  0  0  0  0  0  0
    7.4293   -5.3101   27.0652 C   0  0  0  0  0  0  0  0  0  0  0  0
    7.7217   -6.5099   24.8580 C   0  0  0  0  0  0  0  0  0  0  0  0
    8.8782   -4.8357   26.9548 C   0  0  0  0  0  0  0  0  0  0  0  0
    9.1652   -6.0007   24.7995 C   0  0  0  0  0  0  0  0  0  0  0  0
    8.1890   -0.7180   20.8700 C   0  0  0  0  0  0  0  0  0  0  0  0
    9.9898    1.3085   23.6366 C   0  0  0  0  0  0  0  0  0  0  0  0
    6.7580    0.3810   17.8350 N   0  0  0  0  0  0  0  0  0  0  0  0
    9.2562   -4.7384   25.5422 N   0  0  0  0  0  0  0  0  0  0  0  0
    9.4560    0.1560   22.8130 N   0  0  0  0  0  0  0  0  0  0  0  0
    9.2690    1.4140   20.9380 O   0  0  0  0  0  0  0  0  0  0  0  0
   13.8860    1.3012   24.6465 S   0  0  0  0  0  0  0  0  0  0  0  0
    3.6455    2.0160   21.6826 H   0  0  0  0  0  0  0  0  0  0  0  0
    3.0144    2.6518   19.3914 H   0  0  0  0  0  0  0  0  0  0  0  0
    5.6994    0.6999   22.1043 H   0  0  0  0  0  0  0  0  0  0  0  0
    4.4044    1.9727   17.4490 H   0  0  0  0  0  0  0  0  0  0  0  0
    8.6905   -2.3533   26.5810 H   0  0  0  0  0  0  0  0  0  0  0  0
    9.9266   -4.3896   22.9917 H   0  0  0  0  0  0  0  0  0  0  0  0
    8.9233   -0.1992   25.4231 H   0  0  0  0  0  0  0  0  0  0  0  0
   10.0650   -2.2330   21.8256 H   0  0  0  0  0  0  0  0  0  0  0  0
   12.0141    1.4459   21.5616 H   0  0  0  0  0  0  0  0  0  0  0  0
    8.4839   -0.7930   18.0639 H   0  0  0  0  0  0  0  0  0  0  0  0
   14.5391    1.4362   22.2958 H   0  0  0  0  0  0  0  0  0  0  0  0
   11.7999    1.2059   25.9105 H   0  0  0  0  0  0  0  0  0  0  0  0
    7.7559   -7.4347   26.8149 H   0  0  0  0  0  0  0  0  0  0  0  0
    6.1572   -6.8883   26.3055 H   0  0  0  0  0  0  0  0  0  0  0  0
    6.7602   -4.5435   26.6651 H   0  0  0  0  0  0  0  0  0  0  0  0
    7.1684   -5.4551   28.1155 H   0  0  0  0  0  0  0  0  0  0  0  0
    7.6595   -7.4899   24.3736 H   0  0  0  0  0  0  0  0  0  0  0  0
    7.0706   -5.8317   24.2943 H   0  0  0  0  0  0  0  0  0  0  0  0
    8.9681   -3.8621   27.4435 H   0  0  0  0  0  0  0  0  0  0  0  0
    9.5387   -5.5390   27.4697 H   0  0  0  0  0  0  0  0  0  0  0  0
    9.8374   -6.7413   25.2344 H   0  0  0  0  0  0  0  0  0  0  0  0
    9.4414   -5.8515   23.7552 H   0  0  0  0  0  0  0  0  0  0  0  0
    7.5972   -1.2056   21.6500 H   0  0  0  0  0  0  0  0  0  0  0  0
    8.8612   -1.4622   20.4334 H   0  0  0  0  0  0  0  0  0  0  0  0
    9.5459    1.2490   24.6363 H   0  0  0  0  0  0  0  0  0  0  0  0
    9.6146    2.2245   23.1682 H   0  0  0  0  0  0  0  0  0  0  0  0
    6.7270    0.4925   16.8305 H   0  0  0  0  0  0  0  0  0  0  0  0
  1  2  1  0  0  0  0
  1  3  2  0  0  0  0
  2  4  2  0  0  0  0
  3 13  1  0  0  0  0
  4 16  1  0  0  0  0
  5  7  2  0  0  0  0
  5 17  1  0  0  0  0
  6  8  1  0  0  0  0
  6 17  2  0  0  0  0
  7 18  1  0  0  0  0
  8 18  2  0  0  0  0
  9 11  2  0  0  0  0
  9 14  1  0  0  0  0
 10 15  2  0  0  0  0
 10 27  1  0  0  0  0
 11 31  1  0  0  0  0
 12 14  2  0  0  0  0
 12 31  1  0  0  0  0
 13 15  1  0  0  0  0
 13 16  2  0  0  0  0
 14 26  1  0  0  0  0
 15 25  1  0  0  0  0
 16 27  1  0  0  0  0
 17 28  1  0  0  0  0
 18 29  1  0  0  0  0
 19 25  1  0  0  0  0
 19 29  1  0  0  0  0
 19 30  2  0  0  0  0
 20 21  1  0  0  0  0
 20 22  1  0  0  0  0
 21 23  1  0  0  0  0
 22 24  1  0  0  0  0
 23 28  1  0  0  0  0
 24 28  1  0  0  0  0
 26 29  1  0  0  0  0
  1 32  1  0  0  0  0
  2 33  1  0  0  0  0
  3 34  1  0  0  0  0
  4 35  1  0  0  0  0
  5 36  1  0  0  0  0
  6 37  1  0  0  0  0
  7 38  1  0  0  0  0
  8 39  1  0  0  0  0
  9 40  1  0  0  0  0
 10 41  1  0  0  0  0
 11 42  1  0  0  0  0
 12 43  1  0  0  0  0
 20 44  1  0  0  0  0
 20 45  1  0  0  0  0
 21 46  1  0  0  0  0
 21 47  1  0  0  0  0
 22 48  1  0  0  0  0
 22 49  1  0  0  0  0
 23 50  1  0  0  0  0
 23 51  1  0  0  0  0
 24 52  1  0  0  0  0
 24 53  1  0  0  0  0
 25 54  1  0  0  0  0
 25 55  1  0  0  0  0
 26 56  1  0  0  0  0
 26 57  1  0  0  0  0
 27 58  1  0  0  0  0
M  END
> <clash_score>
0

> <docking_score>
-8.378067016601562

> <overlap_score>
0.97699373960495

$$$$
BENZO_461_1
  -OEChem-08232013473D

 49 52  0     0  0  0  0  0  0999 V2000
   14.3801    1.0867   23.5427 C   0  0  0  0  0  0  0  0  0  0  0  0
    4.2750    1.7050   20.8490 C   0  0  0  0  0  0  0  0  0  0  0  0
   13.7422    2.3229   23.6452 C   0  0  0  0  0  0  0  0  0  0  0  0
   13.6248   -0.0830   23.4592 C   0  0  0  0  0  0  0  0  0  0  0  0
    3.9160    2.0630   19.5520 C   0  0  0  0  0  0  0  0  0  0  0  0
    5.4210    0.9600   21.0930 C   0  0  0  0  0  0  0  0  0  0  0  0
   12.3490    2.3894   23.6644 C   0  0  0  0  0  0  0  0  0  0  0  0
   12.2317   -0.0166   23.4784 C   0  0  0  0  0  0  0  0  0  0  0  0
    8.9960   -2.3380   25.5320 C   0  0  0  0  0  0  0  0  0  0  0  0
    9.6730   -3.4710   23.5300 C   0  0  0  0  0  0  0  0  0  0  0  0
    4.6890    1.6810   18.4640 C   0  0  0  0  0  0  0  0  0  0  0  0
    9.0720   -1.1280   24.8640 C   0  0  0  0  0  0  0  0  0  0  0  0
    9.7200   -2.2600   22.8630 C   0  0  0  0  0  0  0  0  0  0  0  0
    7.6390   -0.2680   18.5410 C   0  0  0  0  0  0  0  0  0  0  0  0
    6.1790    0.5730   19.9990 C   0  0  0  0  0  0  0  0  0  0  0  0
    9.3070   -3.5340   24.8780 C   0  0  0  0  0  0  0  0  0  0  0  0
   11.5937    1.2196   23.5810 C   0  0  0  0  0  0  0  0  0  0  0  0
    7.3170   -0.1610   19.8550 C   0  0  0  0  0  0  0  0  0  0  0  0
    5.8300    0.9190   18.6970 C   0  0  0  0  0  0  0  0  0  0  0  0
    9.3350   -1.0880   23.5010 C   0  0  0  0  0  0  0  0  0  0  0  0
    9.0420    0.3700   21.5280 C   0  0  0  0  0  0  0  0  0  0  0  0
    9.2505   -4.8264   25.5904 C   0  0  0  0  0  0  0  0  0  0  0  0
    8.1890   -0.7180   20.8700 C   0  0  0  0  0  0  0  0  0  0  0  0
   10.0942    1.2904   23.6018 C   0  0  0  0  0  0  0  0  0  0  0  0
    6.7580    0.3810   17.8350 N   0  0  0  0  0  0  0  0  0  0  0  0
    9.4560    0.1560   22.8130 N   0  0  0  0  0  0  0  0  0  0  0  0
    9.2690    1.4140   20.9380 O   0  0  0  0  0  0  0  0  0  0  0  0
   15.4648    1.0353   23.5264 H   0  0  0  0  0  0  0  0  0  0  0  0
    3.6455    2.0160   21.6826 H   0  0  0  0  0  0  0  0  0  0  0  0
   14.3301    3.2339   23.7091 H   0  0  0  0  0  0  0  0  0  0  0  0
   14.1211   -1.0456   23.3782 H   0  0  0  0  0  0  0  0  0  0  0  0
    3.0144    2.6518   19.3914 H   0  0  0  0  0  0  0  0  0  0  0  0
    5.6994    0.6999   22.1043 H   0  0  0  0  0  0  0  0  0  0  0  0
   11.8606    3.3570   23.7448 H   0  0  0  0  0  0  0  0  0  0  0  0
   11.6514   -0.9332   23.4130 H   0  0  0  0  0  0  0  0  0  0  0  0
    8.6919   -2.3557   26.5813 H   0  0  0  0  0  0  0  0  0  0  0  0
    9.9267   -4.3907   22.9939 H   0  0  0  0  0  0  0  0  0  0  0  0
    4.4044    1.9727   17.4490 H   0  0  0  0  0  0  0  0  0  0  0  0
    8.9217   -0.1995   25.4231 H   0  0  0  0  0  0  0  0  0  0  0  0
   10.0653   -2.2339   21.8256 H   0  0  0  0  0  0  0  0  0  0  0  0
    8.4839   -0.7930   18.0639 H   0  0  0  0  0  0  0  0  0  0  0  0
    8.2503   -5.2678   25.5020 H   0  0  0  0  0  0  0  0  0  0  0  0
    9.9817   -5.5374   25.1845 H   0  0  0  0  0  0  0  0  0  0  0  0
    9.4841   -4.7043   26.6562 H   0  0  0  0  0  0  0  0  0  0  0  0
    7.6077   -1.2085   21.6613 H   0  0  0  0  0  0  0  0  0  0  0  0
    8.8716   -1.4650   20.4448 H   0  0  0  0  0  0  0  0  0  0  0  0
    9.7196    1.2411   24.6301 H   0  0  0  0  0  0  0  0  0  0  0  0
    9.7392    2.2326   23.1712 H   0  0  0  0  0  0  0  0  0  0  0  0
    6.7270    0.4925   16.8305 H   0  0  0  0  0  0  0  0  0  0  0  0
  1  3  1  0  0  0  0
  1  4  2  0  0  0  0
  2  5  1  0  0  0  0
  2  6  2  0  0  0  0
  3  7  2  0  0  0  0
  4  8  1  0  0  0  0
  5 11  2  0  0  0  0
  6 15  1  0  0  0  0
  7 17  1  0  0  0  0
  8 17  2  0  0  0  0
  9 12  2  0  0  0  0
  9 16  1  0  0  0  0
 10 13  1  0  0  0  0
 10 16  2  0  0  0  0
 11 19  1  0  0  0  0
 12 20  1  0  0  0  0
 13 20  2  0  0  0  0
 14 18  2  0  0  0  0
 14 25  1  0  0  0  0
 15 18  1  0  0  0  0
 15 19  2  0  0  0  0
 16 22  1  0  0  0  0
 17 24  1  0  0  0  0
 18 23  1  0  0  0  0
 19 25  1  0  0  0  0
 20 26  1  0  0  0  0
 21 23  1  0  0  0  0
 21 26  1  0  0  0  0
 21 27  2  0  0  0  0
 24 26  1  0  0  0  0
  1 28  1  0  0  0  0
  2 29  1  0  0  0  0
  3 30  1  0  0  0  0
  4 31  1  0  0  0  0
  5 32  1  0  0  0  0
  6 33  1  0  0  0  0
  7 34  1  0  0  0  0
  8 35  1  0  0  0  0
  9 36  1  0  0  0  0
 10 37  1  0  0  0  0
 11 38  1  0  0  0  0
 12 39  1  0  0  0  0
 13 40  1  0  0  0  0
 14 41  1  0  0  0  0
 22 42  1  0  0  0  0
 22 43  1  0  0  0  0
 22 44  1  0  0  0  0
 23 45  1  0  0  0  0
 23 46  1  0  0  0  0
 24 47  1  0  0  0  0
 24 48  1  0  0  0  0
 25 49  1  0  0  0  0
M  END
> <clash_score>
0

> <docking_score>
-7.385873794555664

> <overlap_score>
0.9425555467605591

$$$$
BENZO_460_1
  -OEChem-08232013473D

 46 49  0     0  0  0  0  0  0999 V2000
    4.2750    1.7050   20.8490 C   0  0  0  0  0  0  0  0  0  0  0  0
    3.9160    2.0630   19.5520 C   0  0  0  0  0  0  0  0  0  0  0  0
    5.4210    0.9600   21.0930 C   0  0  0  0  0  0  0  0  0  0  0  0
    8.9960   -2.3380   25.5320 C   0  0  0  0  0  0  0  0  0  0  0  0
    9.6730   -3.4710   23.5300 C   0  0  0  0  0  0  0  0  0  0  0  0
    4.6890    1.6810   18.4640 C   0  0  0  0  0  0  0  0  0  0  0  0
    9.0720   -1.1280   24.8640 C   0  0  0  0  0  0  0  0  0  0  0  0
    9.7200   -2.2600   22.8630 C   0  0  0  0  0  0  0  0  0  0  0  0
   12.4440    2.3610   23.6471 C   0  0  0  0  0  0  0  0  0  0  0  0
    7.6390   -0.2680   18.5410 C   0  0  0  0  0  0  0  0  0  0  0  0
   13.7771    2.0160   23.6093 C   0  0  0  0  0  0  0  0  0  0  0  0
   12.3095    0.0456   23.4948 C   0  0  0  0  0  0  0  0  0  0  0  0
    6.1790    0.5730   19.9990 C   0  0  0  0  0  0  0  0  0  0  0  0
    9.3070   -3.5340   24.8780 C   0  0  0  0  0  0  0  0  0  0  0  0
   11.5937    1.2196   23.5810 C   0  0  0  0  0  0  0  0  0  0  0  0
    7.3170   -0.1610   19.8550 C   0  0  0  0  0  0  0  0  0  0  0  0
    5.8300    0.9190   18.6970 C   0  0  0  0  0  0  0  0  0  0  0  0
    9.3350   -1.0880   23.5010 C   0  0  0  0  0  0  0  0  0  0  0  0
    9.0420    0.3700   21.5280 C   0  0  0  0  0  0  0  0  0  0  0  0
    9.2505   -4.8264   25.5904 C   0  0  0  0  0  0  0  0  0  0  0  0
    8.1890   -0.7180   20.8700 C   0  0  0  0  0  0  0  0  0  0  0  0
   10.0942    1.2904   23.6018 C   0  0  0  0  0  0  0  0  0  0  0  0
    6.7580    0.3810   17.8350 N   0  0  0  0  0  0  0  0  0  0  0  0
    9.4560    0.1560   22.8130 N   0  0  0  0  0  0  0  0  0  0  0  0
    9.2690    1.4140   20.9380 O   0  0  0  0  0  0  0  0  0  0  0  0
   13.9994    0.3220   23.4943 S   0  0  0  0  0  0  0  0  0  0  0  0
    3.6455    2.0160   21.6826 H   0  0  0  0  0  0  0  0  0  0  0  0
    3.0144    2.6518   19.3914 H   0  0  0  0  0  0  0  0  0  0  0  0
    5.6994    0.6999   22.1043 H   0  0  0  0  0  0  0  0  0  0  0  0
    8.6919   -2.3557   26.5813 H   0  0  0  0  0  0  0  0  0  0  0  0
    9.9267   -4.3907   22.9939 H   0  0  0  0  0  0  0  0  0  0  0  0
    4.4044    1.9727   17.4490 H   0  0  0  0  0  0  0  0  0  0  0  0
    8.9217   -0.1995   25.4231 H   0  0  0  0  0  0  0  0  0  0  0  0
   10.0653   -2.2339   21.8256 H   0  0  0  0  0  0  0  0  0  0  0  0
   12.0996    3.3850   23.7185 H   0  0  0  0  0  0  0  0  0  0  0  0
    8.4839   -0.7930   18.0639 H   0  0  0  0  0  0  0  0  0  0  0  0
   14.6312    2.6776   23.6429 H   0  0  0  0  0  0  0  0  0  0  0  0
   11.9248   -0.9629   23.4308 H   0  0  0  0  0  0  0  0  0  0  0  0
    8.2503   -5.2678   25.5020 H   0  0  0  0  0  0  0  0  0  0  0  0
    9.9817   -5.5374   25.1845 H   0  0  0  0  0  0  0  0  0  0  0  0
    9.4841   -4.7043   26.6562 H   0  0  0  0  0  0  0  0  0  0  0  0
    7.6077   -1.2085   21.6613 H   0  0  0  0  0  0  0  0  0  0  0  0
    8.8716   -1.4650   20.4448 H   0  0  0  0  0  0  0  0  0  0  0  0
    9.7196    1.2411   24.6301 H   0  0  0  0  0  0  0  0  0  0  0  0
    9.7392    2.2326   23.1712 H   0  0  0  0  0  0  0  0  0  0  0  0
    6.7270    0.4925   16.8305 H   0  0  0  0  0  0  0  0  0  0  0  0
  1  2  1  0  0  0  0
  1  3  2  0  0  0  0
  2  6  2  0  0  0  0
  3 13  1  0  0  0  0
  4  7  2  0  0  0  0
  4 14  1  0  0  0  0
  5  8  1  0  0  0  0
  5 14  2  0  0  0  0
  6 17  1  0  0  0  0
  7 18  1  0  0  0  0
  8 18  2  0  0  0  0
  9 11  2  0  0  0  0
  9 15  1  0  0  0  0
 10 16  2  0  0  0  0
 10 23  1  0  0  0  0
 11 26  1  0  0  0  0
 12 15  2  0  0  0  0
 12 26  1  0  0  0  0
 13 16  1  0  0  0  0
 13 17  2  0  0  0  0
 14 20  1  0  0  0  0
 15 22  1  0  0  0  0
 16 21  1  0  0  0  0
 17 23  1  0  0  0  0
 18 24  1  0  0  0  0
 19 21  1  0  0  0  0
 19 24  1  0  0  0  0
 19 25  2  0  0  0  0
 22 24  1  0  0  0  0
  1 27  1  0  0  0  0
  2 28  1  0  0  0  0
  3 29  1  0  0  0  0
  4 30  1  0  0  0  0
  5 31  1  0  0  0  0
  6 32  1  0  0  0  0
  7 33  1  0  0  0  0
  8 34  1  0  0  0  0
  9 35  1  0  0  0  0
 10 36  1  0  0  0  0
 11 37  1  0  0  0  0
 12 38  1  0  0  0  0
 20 39  1  0  0  0  0
 20 40  1  0  0  0  0
 20 41  1  0  0  0  0
 21 42  1  0  0  0  0
 21 43  1  0  0  0  0
 22 44  1  0  0  0  0
 22 45  1  0  0  0  0
 23 46  1  0  0  0  0
M  END
> <clash_score>
0

> <docking_score>
-8.171538352966309

> <overlap_score>
0.9309110641479492

$$$$
BENZO_458_1
  -OEChem-08232013473D

 61 65  0     0  0  0  0  0  0999 V2000
    4.2750    1.7050   20.8490 C   0  0  0  0  0  0  0  0  0  0  0  0
    3.9160    2.0630   19.5520 C   0  0  0  0  0  0  0  0  0  0  0  0
   13.5386    0.4411   24.6489 C   0  0  0  0  0  0  0  0  0  0  0  0
    5.4210    0.9600   21.0930 C   0  0  0  0  0  0  0  0  0  0  0  0
   12.1462    0.4294   24.5690 C   0  0  0  0  0  0  0  0  0  0  0  0
    4.6890    1.6810   18.4640 C   0  0  0  0  0  0  0  0  0  0  0  0
    8.9960   -2.3380   25.5320 C   0  0  0  0  0  0  0  0  0  0  0  0
    9.6730   -3.4710   23.5300 C   0  0  0  0  0  0  0  0  0  0  0  0
    9.0720   -1.1280   24.8640 C   0  0  0  0  0  0  0  0  0  0  0  0
    9.7200   -2.2600   22.8630 C   0  0  0  0  0  0  0  0  0  0  0  0
   14.2736    1.3462   23.8831 C   0  0  0  0  0  0  0  0  0  0  0  0
   12.2236    2.2276   22.9572 C   0  0  0  0  0  0  0  0  0  0  0  0
    7.6390   -0.2680   18.5410 C   0  0  0  0  0  0  0  0  0  0  0  0
    6.1790    0.5730   19.9990 C   0  0  0  0  0  0  0  0  0  0  0  0
   11.4886    1.3226   23.7231 C   0  0  0  0  0  0  0  0  0  0  0  0
    7.3170   -0.1610   19.8550 C   0  0  0  0  0  0  0  0  0  0  0  0
    5.8300    0.9190   18.6970 C   0  0  0  0  0  0  0  0  0  0  0  0
    9.3070   -3.5340   24.8780 C   0  0  0  0  0  0  0  0  0  0  0  0
    9.3350   -1.0880   23.5010 C   0  0  0  0  0  0  0  0  0  0  0  0
   13.6161    2.2394   23.0373 C   0  0  0  0  0  0  0  0  0  0  0  0
    9.0420    0.3700   21.5280 C   0  0  0  0  0  0  0  0  0  0  0  0
    7.3635   -6.1361   27.1888 C   0  0  0  0  0  0  0  0  0  0  0  0
    8.1961   -4.9735   27.7341 C   0  0  0  0  0  0  0  0  0  0  0  0
    7.1942   -6.0394   25.6709 C   0  0  0  0  0  0  0  0  0  0  0  0
    9.5196   -4.8490   26.9797 C   0  0  0  0  0  0  0  0  0  0  0  0
    8.5442   -5.8838   24.9639 C   0  0  0  0  0  0  0  0  0  0  0  0
    8.1890   -0.7180   20.8700 C   0  0  0  0  0  0  0  0  0  0  0  0
    9.9898    1.3085   23.6366 C   0  0  0  0  0  0  0  0  0  0  0  0
    6.7580    0.3810   17.8350 N   0  0  0  0  0  0  0  0  0  0  0  0
    9.2562   -4.7384   25.5422 N   0  0  0  0  0  0  0  0  0  0  0  0
    9.4560    0.1560   22.8130 N   0  0  0  0  0  0  0  0  0  0  0  0
    9.2690    1.4140   20.9380 O   0  0  0  0  0  0  0  0  0  0  0  0
   14.5235    3.3549   22.0918 Cl  0  0  0  0  0  0  0  0  0  0  0  0
    3.6455    2.0160   21.6826 H   0  0  0  0  0  0  0  0  0  0  0  0
    3.0144    2.6518   19.3914 H   0  0  0  0  0  0  0  0  0  0  0  0
   14.0503   -0.2547   25.3076 H   0  0  0  0  0  0  0  0  0  0  0  0
    5.6994    0.6999   22.1043 H   0  0  0  0  0  0  0  0  0  0  0  0
   11.5816   -0.2793   25.1692 H   0  0  0  0  0  0  0  0  0  0  0  0
    4.4044    1.9727   17.4490 H   0  0  0  0  0  0  0  0  0  0  0  0
    8.6905   -2.3533   26.5810 H   0  0  0  0  0  0  0  0  0  0  0  0
    9.9266   -4.3896   22.9917 H   0  0  0  0  0  0  0  0  0  0  0  0
    8.9233   -0.1992   25.4231 H   0  0  0  0  0  0  0  0  0  0  0  0
   10.0650   -2.2330   21.8256 H   0  0  0  0  0  0  0  0  0  0  0  0
   15.3585    1.3438   23.9554 H   0  0  0  0  0  0  0  0  0  0  0  0
   11.7062    2.9223   22.2996 H   0  0  0  0  0  0  0  0  0  0  0  0
    8.4839   -0.7930   18.0639 H   0  0  0  0  0  0  0  0  0  0  0  0
    7.8482   -7.0901   27.4469 H   0  0  0  0  0  0  0  0  0  0  0  0
    6.3760   -6.1438   27.6724 H   0  0  0  0  0  0  0  0  0  0  0  0
    7.6307   -4.0424   27.6403 H   0  0  0  0  0  0  0  0  0  0  0  0
    8.3915   -5.1310   28.7968 H   0  0  0  0  0  0  0  0  0  0  0  0
    6.6888   -6.9376   25.3010 H   0  0  0  0  0  0  0  0  0  0  0  0
    6.5515   -5.1859   25.4257 H   0  0  0  0  0  0  0  0  0  0  0  0
   10.0492   -3.9640   27.3414 H   0  0  0  0  0  0  0  0  0  0  0  0
   10.1431   -5.7254   27.1778 H   0  0  0  0  0  0  0  0  0  0  0  0
    9.1338   -6.7931   25.0868 H   0  0  0  0  0  0  0  0  0  0  0  0
    8.3656   -5.7264   23.8998 H   0  0  0  0  0  0  0  0  0  0  0  0
    7.5972   -1.2056   21.6500 H   0  0  0  0  0  0  0  0  0  0  0  0
    8.8612   -1.4622   20.4334 H   0  0  0  0  0  0  0  0  0  0  0  0
    9.5459    1.2490   24.6363 H   0  0  0  0  0  0  0  0  0  0  0  0
    9.6146    2.2245   23.1682 H   0  0  0  0  0  0  0  0  0  0  0  0
    6.7270    0.4925   16.8305 H   0  0  0  0  0  0  0  0  0  0  0  0
  1  2  1  0  0  0  0
  1  4  2  0  0  0  0
  2  6  2  0  0  0  0
  3  5  2  0  0  0  0
  3 11  1  0  0  0  0
  4 14  1  0  0  0  0
  5 15  1  0  0  0  0
  6 17  1  0  0  0  0
  7  9  2  0  0  0  0
  7 18  1  0  0  0  0
  8 10  1  0  0  0  0
  8 18  2  0  0  0  0
  9 19  1  0  0  0  0
 10 19  2  0  0  0  0
 11 20  2  0  0  0  0
 12 15  2  0  0  0  0
 12 20  1  0  0  0  0
 13 16  2  0  0  0  0
 13 29  1  0  0  0  0
 14 16  1  0  0  0  0
 14 17  2  0  0  0  0
 15 28  1  0  0  0  0
 16 27  1  0  0  0  0
 17 29  1  0  0  0  0
 18 30  1  0  0  0  0
 19 31  1  0  0  0  0
 20 33  1  0  0  0  0
 21 27  1  0  0  0  0
 21 31  1  0  0  0  0
 21 32  2  0  0  0  0
 22 23  1  0  0  0  0
 22 24  1  0  0  0  0
 23 25  1  0  0  0  0
 24 26  1  0  0  0  0
 25 30  1  0  0  0  0
 26 30  1  0  0  0  0
 28 31  1  0  0  0  0
  1 34  1  0  0  0  0
  2 35  1  0  0  0  0
  3 36  1  0  0  0  0
  4 37  1  0  0  0  0
  5 38  1  0  0  0  0
  6 39  1  0  0  0  0
  7 40  1  0  0  0  0
  8 41  1  0  0  0  0
  9 42  1  0  0  0  0
 10 43  1  0  0  0  0
 11 44  1  0  0  0  0
 12 45  1  0  0  0  0
 13 46  1  0  0  0  0
 22 47  1  0  0  0  0
 22 48  1  0  0  0  0
 23 49  1  0  0  0  0
 23 50  1  0  0  0  0
 24 51  1  0  0  0  0
 24 52  1  0  0  0  0
 25 53  1  0  0  0  0
 25 54  1  0  0  0  0
 26 55  1  0  0  0  0
 26 56  1  0  0  0  0
 27 57  1  0  0  0  0
 27 58  1  0  0  0  0
 28 59  1  0  0  0  0
 28 60  1  0  0  0  0
 29 61  1  0  0  0  0
M  END
> <clash_score>
0

> <docking_score>
-7.368844032287598

> <overlap_score>
1.0036605596542358

$$$$
BENZO_459_1
  -OEChem-08232013473D

 61 65  0     0  0  0  0  0  0999 V2000
    4.2750    1.7050   20.8490 C   0  0  0  0  0  0  0  0  0  0  0  0
    3.9160    2.0630   19.5520 C   0  0  0  0  0  0  0  0  0  0  0  0
    5.4210    0.9600   21.0930 C   0  0  0  0  0  0  0  0  0  0  0  0
    4.6890    1.6810   18.4640 C   0  0  0  0  0  0  0  0  0  0  0  0
    8.9960   -2.3380   25.5320 C   0  0  0  0  0  0  0  0  0  0  0  0
    9.6730   -3.4710   23.5300 C   0  0  0  0  0  0  0  0  0  0  0  0
    9.0720   -1.1280   24.8640 C   0  0  0  0  0  0  0  0  0  0  0  0
    9.7200   -2.2600   22.8630 C   0  0  0  0  0  0  0  0  0  0  0  0
   12.2876    1.2701   24.8810 C   0  0  0  0  0  0  0  0  0  0  0  0
    7.6390   -0.2680   18.5410 C   0  0  0  0  0  0  0  0  0  0  0  0
   12.3886    1.3870   22.6876 C   0  0  0  0  0  0  0  0  0  0  0  0
    6.1790    0.5730   19.9990 C   0  0  0  0  0  0  0  0  0  0  0  0
   11.4886    1.3226   23.7231 C   0  0  0  0  0  0  0  0  0  0  0  0
    7.3170   -0.1610   19.8550 C   0  0  0  0  0  0  0  0  0  0  0  0
    5.8300    0.9190   18.6970 C   0  0  0  0  0  0  0  0  0  0  0  0
    9.3070   -3.5340   24.8780 C   0  0  0  0  0  0  0  0  0  0  0  0
    9.3350   -1.0880   23.5010 C   0  0  0  0  0  0  0  0  0  0  0  0
    9.0420    0.3700   21.5280 C   0  0  0  0  0  0  0  0  0  0  0  0
    7.3635   -6.1361   27.1888 C   0  0  0  0  0  0  0  0  0  0  0  0
    8.1961   -4.9735   27.7341 C   0  0  0  0  0  0  0  0  0  0  0  0
    7.1942   -6.0394   25.6709 C   0  0  0  0  0  0  0  0  0  0  0  0
    9.5196   -4.8490   26.9797 C   0  0  0  0  0  0  0  0  0  0  0  0
    8.5442   -5.8838   24.9639 C   0  0  0  0  0  0  0  0  0  0  0  0
   14.8917    1.4193   22.5779 C   0  0  0  0  0  0  0  0  0  0  0  0
    8.1890   -0.7180   20.8700 C   0  0  0  0  0  0  0  0  0  0  0  0
    9.9898    1.3085   23.6366 C   0  0  0  0  0  0  0  0  0  0  0  0
   13.5946    1.2985   24.6073 N   0  0  0  0  0  0  0  0  0  0  0  0
    6.7580    0.3810   17.8350 N   0  0  0  0  0  0  0  0  0  0  0  0
   13.6238    1.3695   23.2656 N   0  0  0  0  0  0  0  0  0  0  0  0
    9.2562   -4.7384   25.5422 N   0  0  0  0  0  0  0  0  0  0  0  0
    9.4560    0.1560   22.8130 N   0  0  0  0  0  0  0  0  0  0  0  0
    9.2690    1.4140   20.9380 O   0  0  0  0  0  0  0  0  0  0  0  0
    3.6455    2.0160   21.6826 H   0  0  0  0  0  0  0  0  0  0  0  0
    3.0144    2.6518   19.3914 H   0  0  0  0  0  0  0  0  0  0  0  0
    5.6994    0.6999   22.1043 H   0  0  0  0  0  0  0  0  0  0  0  0
    4.4044    1.9727   17.4490 H   0  0  0  0  0  0  0  0  0  0  0  0
    8.6905   -2.3533   26.5810 H   0  0  0  0  0  0  0  0  0  0  0  0
    9.9266   -4.3896   22.9917 H   0  0  0  0  0  0  0  0  0  0  0  0
    8.9233   -0.1992   25.4231 H   0  0  0  0  0  0  0  0  0  0  0  0
   10.0650   -2.2330   21.8256 H   0  0  0  0  0  0  0  0  0  0  0  0
   11.9742    1.2113   25.9137 H   0  0  0  0  0  0  0  0  0  0  0  0
    8.4839   -0.7930   18.0639 H   0  0  0  0  0  0  0  0  0  0  0  0
   12.2585    1.4412   21.6152 H   0  0  0  0  0  0  0  0  0  0  0  0
    7.8482   -7.0901   27.4469 H   0  0  0  0  0  0  0  0  0  0  0  0
    6.3760   -6.1438   27.6724 H   0  0  0  0  0  0  0  0  0  0  0  0
    7.6307   -4.0424   27.6403 H   0  0  0  0  0  0  0  0  0  0  0  0
    8.3915   -5.1310   28.7968 H   0  0  0  0  0  0  0  0  0  0  0  0
    6.6888   -6.9376   25.3010 H   0  0  0  0  0  0  0  0  0  0  0  0
    6.5515   -5.1859   25.4257 H   0  0  0  0  0  0  0  0  0  0  0  0
   10.0492   -3.9640   27.3414 H   0  0  0  0  0  0  0  0  0  0  0  0
   10.1431   -5.7254   27.1778 H   0  0  0  0  0  0  0  0  0  0  0  0
    9.1338   -6.7931   25.0868 H   0  0  0  0  0  0  0  0  0  0  0  0
    8.3656   -5.7264   23.8998 H   0  0  0  0  0  0  0  0  0  0  0  0
   15.1771    2.4693   22.4722 H   0  0  0  0  0  0  0  0  0  0  0  0
   15.6424    0.8757   23.1584 H   0  0  0  0  0  0  0  0  0  0  0  0
   14.7889    0.9492   21.5959 H   0  0  0  0  0  0  0  0  0  0  0  0
    7.5972   -1.2056   21.6500 H   0  0  0  0  0  0  0  0  0  0  0  0
    8.8612   -1.4622   20.4334 H   0  0  0  0  0  0  0  0  0  0  0  0
    9.5459    1.2490   24.6363 H   0  0  0  0  0  0  0  0  0  0  0  0
    9.6146    2.2245   23.1682 H   0  0  0  0  0  0  0  0  0  0  0  0
    6.7270    0.4925   16.8305 H   0  0  0  0  0  0  0  0  0  0  0  0
  1  2  1  0  0  0  0
  1  3  2  0  0  0  0
  2  4  2  0  0  0  0
  3 12  1  0  0  0  0
  4 15  1  0  0  0  0
  5  7  2  0  0  0  0
  5 16  1  0  0  0  0
  6  8  1  0  0  0  0
  6 16  2  0  0  0  0
  7 17  1  0  0  0  0
  8 17  2  0  0  0  0
  9 13  1  0  0  0  0
  9 27  2  0  0  0  0
 10 14  2  0  0  0  0
 10 28  1  0  0  0  0
 11 13  2  0  0  0  0
 11 29  1  0  0  0  0
 12 14  1  0  0  0  0
 12 15  2  0  0  0  0
 13 26  1  0  0  0  0
 14 25  1  0  0  0  0
 15 28  1  0  0  0  0
 16 30  1  0  0  0  0
 17 31  1  0  0  0  0
 18 25  1  0  0  0  0
 18 31  1  0  0  0  0
 18 32  2  0  0  0  0
 19 20  1  0  0  0  0
 19 21  1  0  0  0  0
 20 22  1  0  0  0  0
 21 23  1  0  0  0  0
 22 30  1  0  0  0  0
 23 30  1  0  0  0  0
 24 29  1  0  0  0  0
 26 31  1  0  0  0  0
 27 29  1  0  0  0  0
  1 33  1  0  0  0  0
  2 34  1  0  0  0  0
  3 35  1  0  0  0  0
  4 36  1  0  0  0  0
  5 37  1  0  0  0  0
  6 38  1  0  0  0  0
  7 39  1  0  0  0  0
  8 40  1  0  0  0  0
  9 41  1  0  0  0  0
 10 42  1  0  0  0  0
 11 43  1  0  0  0  0
 19 44  1  0  0  0  0
 19 45  1  0  0  0  0
 20 46  1  0  0  0  0
 20 47  1  0  0  0  0
 21 48  1  0  0  0  0
 21 49  1  0  0  0  0
 22 50  1  0  0  0  0
 22 51  1  0  0  0  0
 23 52  1  0  0  0  0
 23 53  1  0  0  0  0
 24 54  1  0  0  0  0
 24 55  1  0  0  0  0
 24 56  1  0  0  0  0
 25 57  1  0  0  0  0
 25 58  1  0  0  0  0
 26 59  1  0  0  0  0
 26 60  1  0  0  0  0
 28 61  1  0  0  0  0
M  END
> <clash_score>
0

> <docking_score>
-8.262007713317871

> <overlap_score>
0.985912561416626

$$$$
BENZO_462_1
  -OEChem-08232013473D

 49 52  0     0  0  0  0  0  0999 V2000
    4.2750    1.7050   20.8490 C   0  0  0  0  0  0  0  0  0  0  0  0
    3.9160    2.0630   19.5520 C   0  0  0  0  0  0  0  0  0  0  0  0
   13.7147    2.0302   22.7556 C   0  0  0  0  0  0  0  0  0  0  0  0
    5.4210    0.9600   21.0930 C   0  0  0  0  0  0  0  0  0  0  0  0
   12.3215    2.0947   22.7745 C   0  0  0  0  0  0  0  0  0  0  0  0
    8.9960   -2.3380   25.5320 C   0  0  0  0  0  0  0  0  0  0  0  0
    9.6730   -3.4710   23.5300 C   0  0  0  0  0  0  0  0  0  0  0  0
    4.6890    1.6810   18.4640 C   0  0  0  0  0  0  0  0  0  0  0  0
    9.0720   -1.1280   24.8640 C   0  0  0  0  0  0  0  0  0  0  0  0
    9.7200   -2.2600   22.8630 C   0  0  0  0  0  0  0  0  0  0  0  0
   14.3802    1.0906   23.5430 C   0  0  0  0  0  0  0  0  0  0  0  0
   12.2592    0.2800   24.3684 C   0  0  0  0  0  0  0  0  0  0  0  0
    7.6390   -0.2680   18.5410 C   0  0  0  0  0  0  0  0  0  0  0  0
    6.1790    0.5730   19.9990 C   0  0  0  0  0  0  0  0  0  0  0  0
    9.3070   -3.5340   24.8780 C   0  0  0  0  0  0  0  0  0  0  0  0
   11.5937    1.2196   23.5810 C   0  0  0  0  0  0  0  0  0  0  0  0
    7.3170   -0.1610   19.8550 C   0  0  0  0  0  0  0  0  0  0  0  0
    5.8300    0.9190   18.6970 C   0  0  0  0  0  0  0  0  0  0  0  0
    9.3350   -1.0880   23.5010 C   0  0  0  0  0  0  0  0  0  0  0  0
   13.6525    0.2156   24.3494 C   0  0  0  0  0  0  0  0  0  0  0  0
    9.0420    0.3700   21.5280 C   0  0  0  0  0  0  0  0  0  0  0  0
    9.2505   -4.8264   25.5904 C   0  0  0  0  0  0  0  0  0  0  0  0
    8.1890   -0.7180   20.8700 C   0  0  0  0  0  0  0  0  0  0  0  0
   10.0942    1.2904   23.6018 C   0  0  0  0  0  0  0  0  0  0  0  0
    6.7580    0.3810   17.8350 N   0  0  0  0  0  0  0  0  0  0  0  0
    9.4560    0.1560   22.8130 N   0  0  0  0  0  0  0  0  0  0  0  0
    9.2690    1.4140   20.9380 O   0  0  0  0  0  0  0  0  0  0  0  0
   14.4742   -0.9427   25.3215 Cl  0  0  0  0  0  0  0  0  0  0  0  0
    3.6455    2.0160   21.6826 H   0  0  0  0  0  0  0  0  0  0  0  0
    3.0144    2.6518   19.3914 H   0  0  0  0  0  0  0  0  0  0  0  0
   14.2810    2.7119   22.1276 H   0  0  0  0  0  0  0  0  0  0  0  0
    5.6994    0.6999   22.1043 H   0  0  0  0  0  0  0  0  0  0  0  0
   11.8113    2.8300   22.1579 H   0  0  0  0  0  0  0  0  0  0  0  0
    8.6919   -2.3557   26.5813 H   0  0  0  0  0  0  0  0  0  0  0  0
    9.9267   -4.3907   22.9939 H   0  0  0  0  0  0  0  0  0  0  0  0
    4.4044    1.9727   17.4490 H   0  0  0  0  0  0  0  0  0  0  0  0
    8.9217   -0.1995   25.4231 H   0  0  0  0  0  0  0  0  0  0  0  0
   10.0653   -2.2339   21.8256 H   0  0  0  0  0  0  0  0  0  0  0  0
   15.4665    1.0520   23.5183 H   0  0  0  0  0  0  0  0  0  0  0  0
   11.6873   -0.4003   24.9951 H   0  0  0  0  0  0  0  0  0  0  0  0
    8.4839   -0.7930   18.0639 H   0  0  0  0  0  0  0  0  0  0  0  0
    8.2503   -5.2678   25.5020 H   0  0  0  0  0  0  0  0  0  0  0  0
    9.9817   -5.5374   25.1845 H   0  0  0  0  0  0  0  0  0  0  0  0
    9.4841   -4.7043   26.6562 H   0  0  0  0  0  0  0  0  0  0  0  0
    7.6077   -1.2085   21.6613 H   0  0  0  0  0  0  0  0  0  0  0  0
    8.8716   -1.4650   20.4448 H   0  0  0  0  0  0  0  0  0  0  0  0
    9.7196    1.2411   24.6301 H   0  0  0  0  0  0  0  0  0  0  0  0
    9.7392    2.2326   23.1712 H   0  0  0  0  0  0  0  0  0  0  0  0
    6.7270    0.4925   16.8305 H   0  0  0  0  0  0  0  0  0  0  0  0
  1  2  1  0  0  0  0
  1  4  2  0  0  0  0
  2  8  2  0  0  0  0
  3  5  2  0  0  0  0
  3 11  1  0  0  0  0
  4 14  1  0  0  0  0
  5 16  1  0  0  0  0
  6  9  2  0  0  0  0
  6 15  1  0  0  0  0
  7 10  1  0  0  0  0
  7 15  2  0  0  0  0
  8 18  1  0  0  0  0
  9 19  1  0  0  0  0
 10 19  2  0  0  0  0
 11 20  2  0  0  0  0
 12 16  2  0  0  0  0
 12 20  1  0  0  0  0
 13 17  2  0  0  0  0
 13 25  1  0  0  0  0
 14 17  1  0  0  0  0
 14 18  2  0  0  0  0
 15 22  1  0  0  0  0
 16 24  1  0  0  0  0
 17 23  1  0  0  0  0
 18 25  1  0  0  0  0
 19 26  1  0  0  0  0
 20 28  1  0  0  0  0
 21 23  1  0  0  0  0
 21 26  1  0  0  0  0
 21 27  2  0  0  0  0
 24 26  1  0  0  0  0
  1 29  1  0  0  0  0
  2 30  1  0  0  0  0
  3 31  1  0  0  0  0
  4 32  1  0  0  0  0
  5 33  1  0  0  0  0
  6 34  1  0  0  0  0
  7 35  1  0  0  0  0
  8 36  1  0  0  0  0
  9 37  1  0  0  0  0
 10 38  1  0  0  0  0
 11 39  1  0  0  0  0
 12 40  1  0  0  0  0
 13 41  1  0  0  0  0
 22 42  1  0  0  0  0
 22 43  1  0  0  0  0
 22 44  1  0  0  0  0
 23 45  1  0  0  0  0
 23 46  1  0  0  0  0
 24 47  1  0  0  0  0
 24 48  1  0  0  0  0
 25 49  1  0  0  0  0
M  END
> <clash_score>
0.7279747806401634

> <docking_score>
-7.70108699798584

> <overlap_score>
0.9442806243896484

$$$$
BENZO_465_1
  -OEChem-08232013473D

 50 53  0     0  0  0  0  0  0999 V2000
   14.3801    1.0867   23.5427 C   0  0  0  0  0  0  0  0  0  0  0  0
    4.2750    1.7050   20.8490 C   0  0  0  0  0  0  0  0  0  0  0  0
   13.7422    2.3229   23.6452 C   0  0  0  0  0  0  0  0  0  0  0  0
   13.6248   -0.0830   23.4592 C   0  0  0  0  0  0  0  0  0  0  0  0
    3.9160    2.0630   19.5520 C   0  0  0  0  0  0  0  0  0  0  0  0
    5.4210    0.9600   21.0930 C   0  0  0  0  0  0  0  0  0  0  0  0
   12.3490    2.3894   23.6644 C   0  0  0  0  0  0  0  0  0  0  0  0
   12.2317   -0.0166   23.4784 C   0  0  0  0  0  0  0  0  0  0  0  0
    4.6890    1.6810   18.4640 C   0  0  0  0  0  0  0  0  0  0  0  0
    9.0720   -1.1280   24.8640 C   0  0  0  0  0  0  0  0  0  0  0  0
    9.7200   -2.2600   22.8630 C   0  0  0  0  0  0  0  0  0  0  0  0
    8.9960   -2.3380   25.5320 C   0  0  0  0  0  0  0  0  0  0  0  0
    9.6730   -3.4710   23.5300 C   0  0  0  0  0  0  0  0  0  0  0  0
    7.6390   -0.2680   18.5410 C   0  0  0  0  0  0  0  0  0  0  0  0
    6.1790    0.5730   19.9990 C   0  0  0  0  0  0  0  0  0  0  0  0
   11.5937    1.2196   23.5810 C   0  0  0  0  0  0  0  0  0  0  0  0
    7.3170   -0.1610   19.8550 C   0  0  0  0  0  0  0  0  0  0  0  0
    5.8300    0.9190   18.6970 C   0  0  0  0  0  0  0  0  0  0  0  0
    9.3350   -1.0880   23.5010 C   0  0  0  0  0  0  0  0  0  0  0  0
    9.3070   -3.5340   24.8780 C   0  0  0  0  0  0  0  0  0  0  0  0
    9.0420    0.3700   21.5280 C   0  0  0  0  0  0  0  0  0  0  0  0
    8.8720   -4.6805   26.9013 C   0  0  0  0  0  0  0  0  0  0  0  0
    8.1890   -0.7180   20.8700 C   0  0  0  0  0  0  0  0  0  0  0  0
   10.0942    1.2904   23.6018 C   0  0  0  0  0  0  0  0  0  0  0  0
    6.7580    0.3810   17.8350 N   0  0  0  0  0  0  0  0  0  0  0  0
    9.4560    0.1560   22.8130 N   0  0  0  0  0  0  0  0  0  0  0  0
    9.2690    1.4140   20.9380 O   0  0  0  0  0  0  0  0  0  0  0  0
    9.2555   -4.7124   25.5274 O   0  0  0  0  0  0  0  0  0  0  0  0
   15.4648    1.0353   23.5264 H   0  0  0  0  0  0  0  0  0  0  0  0
    3.6455    2.0160   21.6826 H   0  0  0  0  0  0  0  0  0  0  0  0
   14.3301    3.2339   23.7091 H   0  0  0  0  0  0  0  0  0  0  0  0
   14.1211   -1.0456   23.3782 H   0  0  0  0  0  0  0  0  0  0  0  0
    3.0144    2.6518   19.3914 H   0  0  0  0  0  0  0  0  0  0  0  0
    5.6994    0.6999   22.1043 H   0  0  0  0  0  0  0  0  0  0  0  0
   11.8606    3.3570   23.7448 H   0  0  0  0  0  0  0  0  0  0  0  0
   11.6514   -0.9332   23.4130 H   0  0  0  0  0  0  0  0  0  0  0  0
    4.4044    1.9727   17.4490 H   0  0  0  0  0  0  0  0  0  0  0  0
    8.9221   -0.1995   25.4231 H   0  0  0  0  0  0  0  0  0  0  0  0
   10.0642   -2.2347   21.8253 H   0  0  0  0  0  0  0  0  0  0  0  0
    8.6902   -2.3588   26.5805 H   0  0  0  0  0  0  0  0  0  0  0  0
    9.9254   -4.3921   22.9961 H   0  0  0  0  0  0  0  0  0  0  0  0
    8.4839   -0.7930   18.0639 H   0  0  0  0  0  0  0  0  0  0  0  0
    8.8711   -5.6964   27.3038 H   0  0  0  0  0  0  0  0  0  0  0  0
    7.8758   -4.2402   26.9923 H   0  0  0  0  0  0  0  0  0  0  0  0
    9.5894   -4.0716   27.4566 H   0  0  0  0  0  0  0  0  0  0  0  0
    7.6077   -1.2085   21.6613 H   0  0  0  0  0  0  0  0  0  0  0  0
    8.8716   -1.4650   20.4448 H   0  0  0  0  0  0  0  0  0  0  0  0
    9.7196    1.2411   24.6301 H   0  0  0  0  0  0  0  0  0  0  0  0
    9.7392    2.2326   23.1712 H   0  0  0  0  0  0  0  0  0  0  0  0
    6.7270    0.4925   16.8305 H   0  0  0  0  0  0  0  0  0  0  0  0
  1  3  1  0  0  0  0
  1  4  2  0  0  0  0
  2  5  1  0  0  0  0
  2  6  2  0  0  0  0
  3  7  2  0  0  0  0
  4  8  1  0  0  0  0
  5  9  2  0  0  0  0
  6 15  1  0  0  0  0
  7 16  1  0  0  0  0
  8 16  2  0  0  0  0
  9 18  1  0  0  0  0
 10 12  2  0  0  0  0
 10 19  1  0  0  0  0
 11 13  1  0  0  0  0
 11 19  2  0  0  0  0
 12 20  1  0  0  0  0
 13 20  2  0  0  0  0
 14 17  2  0  0  0  0
 14 25  1  0  0  0  0
 15 17  1  0  0  0  0
 15 18  2  0  0  0  0
 16 24  1  0  0  0  0
 17 23  1  0  0  0  0
 18 25  1  0  0  0  0
 19 26  1  0  0  0  0
 20 28  1  0  0  0  0
 21 23  1  0  0  0  0
 21 26  1  0  0  0  0
 21 27  2  0  0  0  0
 22 28  1  0  0  0  0
 24 26  1  0  0  0  0
  1 29  1  0  0  0  0
  2 30  1  0  0  0  0
  3 31  1  0  0  0  0
  4 32  1  0  0  0  0
  5 33  1  0  0  0  0
  6 34  1  0  0  0  0
  7 35  1  0  0  0  0
  8 36  1  0  0  0  0
  9 37  1  0  0  0  0
 10 38  1  0  0  0  0
 11 39  1  0  0  0  0
 12 40  1  0  0  0  0
 13 41  1  0  0  0  0
 14 42  1  0  0  0  0
 22 43  1  0  0  0  0
 22 44  1  0  0  0  0
 22 45  1  0  0  0  0
 23 46  1  0  0  0  0
 23 47  1  0  0  0  0
 24 48  1  0  0  0  0
 24 49  1  0  0  0  0
 25 50  1  0  0  0  0
M  END
> <clash_score>
0

> <docking_score>
-7.122176170349121

> <overlap_score>
0.9649080634117126

$$$$
BENZO_463_1
  -OEChem-08232013473D

 49 52  0     0  0  0  0  0  0999 V2000
    4.2750    1.7050   20.8490 C   0  0  0  0  0  0  0  0  0  0  0  0
    3.9160    2.0630   19.5520 C   0  0  0  0  0  0  0  0  0  0  0  0
    5.4210    0.9600   21.0930 C   0  0  0  0  0  0  0  0  0  0  0  0
    8.9960   -2.3380   25.5320 C   0  0  0  0  0  0  0  0  0  0  0  0
    9.6730   -3.4710   23.5300 C   0  0  0  0  0  0  0  0  0  0  0  0
    4.6890    1.6810   18.4640 C   0  0  0  0  0  0  0  0  0  0  0  0
    9.0720   -1.1280   24.8640 C   0  0  0  0  0  0  0  0  0  0  0  0
    9.7200   -2.2600   22.8630 C   0  0  0  0  0  0  0  0  0  0  0  0
   12.4857    2.0141   22.8360 C   0  0  0  0  0  0  0  0  0  0  0  0
    7.6390   -0.2680   18.5410 C   0  0  0  0  0  0  0  0  0  0  0  0
   12.4036    0.3650   24.2882 C   0  0  0  0  0  0  0  0  0  0  0  0
    6.1790    0.5730   19.9990 C   0  0  0  0  0  0  0  0  0  0  0  0
    9.3070   -3.5340   24.8780 C   0  0  0  0  0  0  0  0  0  0  0  0
   11.5937    1.2196   23.5810 C   0  0  0  0  0  0  0  0  0  0  0  0
    7.3170   -0.1610   19.8550 C   0  0  0  0  0  0  0  0  0  0  0  0
    5.8300    0.9190   18.6970 C   0  0  0  0  0  0  0  0  0  0  0  0
    9.3350   -1.0880   23.5010 C   0  0  0  0  0  0  0  0  0  0  0  0
    9.0420    0.3700   21.5280 C   0  0  0  0  0  0  0  0  0  0  0  0
    9.2505   -4.8264   25.5904 C   0  0  0  0  0  0  0  0  0  0  0  0
   14.8870    0.0600   24.4246 C   0  0  0  0  0  0  0  0  0  0  0  0
    8.1890   -0.7180   20.8700 C   0  0  0  0  0  0  0  0  0  0  0  0
   10.0942    1.2904   23.6018 C   0  0  0  0  0  0  0  0  0  0  0  0
   13.7644    1.6929   23.0502 N   0  0  0  0  0  0  0  0  0  0  0  0
    6.7580    0.3810   17.8350 N   0  0  0  0  0  0  0  0  0  0  0  0
   13.6818    0.6872   23.9378 N   0  0  0  0  0  0  0  0  0  0  0  0
    9.4560    0.1560   22.8130 N   0  0  0  0  0  0  0  0  0  0  0  0
    9.2690    1.4140   20.9380 O   0  0  0  0  0  0  0  0  0  0  0  0
    3.6455    2.0160   21.6826 H   0  0  0  0  0  0  0  0  0  0  0  0
    3.0144    2.6518   19.3914 H   0  0  0  0  0  0  0  0  0  0  0  0
    5.6994    0.6999   22.1043 H   0  0  0  0  0  0  0  0  0  0  0  0
    8.6919   -2.3557   26.5813 H   0  0  0  0  0  0  0  0  0  0  0  0
    9.9267   -4.3907   22.9939 H   0  0  0  0  0  0  0  0  0  0  0  0
    4.4044    1.9727   17.4490 H   0  0  0  0  0  0  0  0  0  0  0  0
    8.9217   -0.1995   25.4231 H   0  0  0  0  0  0  0  0  0  0  0  0
   10.0653   -2.2339   21.8256 H   0  0  0  0  0  0  0  0  0  0  0  0
   12.2598    2.8148   22.1461 H   0  0  0  0  0  0  0  0  0  0  0  0
    8.4839   -0.7930   18.0639 H   0  0  0  0  0  0  0  0  0  0  0  0
   12.1849   -0.4245   24.9944 H   0  0  0  0  0  0  0  0  0  0  0  0
    8.2503   -5.2678   25.5020 H   0  0  0  0  0  0  0  0  0  0  0  0
    9.9817   -5.5374   25.1845 H   0  0  0  0  0  0  0  0  0  0  0  0
    9.4841   -4.7043   26.6562 H   0  0  0  0  0  0  0  0  0  0  0  0
   15.1274   -0.7720   23.7575 H   0  0  0  0  0  0  0  0  0  0  0  0
   15.7003    0.7911   24.4324 H   0  0  0  0  0  0  0  0  0  0  0  0
   14.7203   -0.3011   25.4433 H   0  0  0  0  0  0  0  0  0  0  0  0
    7.6077   -1.2085   21.6613 H   0  0  0  0  0  0  0  0  0  0  0  0
    8.8716   -1.4650   20.4448 H   0  0  0  0  0  0  0  0  0  0  0  0
    9.7196    1.2411   24.6301 H   0  0  0  0  0  0  0  0  0  0  0  0
    9.7392    2.2326   23.1712 H   0  0  0  0  0  0  0  0  0  0  0  0
    6.7270    0.4925   16.8305 H   0  0  0  0  0  0  0  0  0  0  0  0
  1  2  1  0  0  0  0
  1  3  2  0  0  0  0
  2  6  2  0  0  0  0
  3 12  1  0  0  0  0
  4  7  2  0  0  0  0
  4 13  1  0  0  0  0
  5  8  1  0  0  0  0
  5 13  2  0  0  0  0
  6 16  1  0  0  0  0
  7 17  1  0  0  0  0
  8 17  2  0  0  0  0
  9 14  1  0  0  0  0
  9 23  2  0  0  0  0
 10 15  2  0  0  0  0
 10 24  1  0  0  0  0
 11 14  2  0  0  0  0
 11 25  1  0  0  0  0
 12 15  1  0  0  0  0
 12 16  2  0  0  0  0
 13 19  1  0  0  0  0
 14 22  1  0  0  0  0
 15 21  1  0  0  0  0
 16 24  1  0  0  0  0
 17 26  1  0  0  0  0
 18 21  1  0  0  0  0
 18 26  1  0  0  0  0
 18 27  2  0  0  0  0
 20 25  1  0  0  0  0
 22 26  1  0  0  0  0
 23 25  1  0  0  0  0
  1 28  1  0  0  0  0
  2 29  1  0  0  0  0
  3 30  1  0  0  0  0
  4 31  1  0  0  0  0
  5 32  1  0  0  0  0
  6 33  1  0  0  0  0
  7 34  1  0  0  0  0
  8 35  1  0  0  0  0
  9 36  1  0  0  0  0
 10 37  1  0  0  0  0
 11 38  1  0  0  0  0
 19 39  1  0  0  0  0
 19 40  1  0  0  0  0
 19 41  1  0  0  0  0
 20 42  1  0  0  0  0
 20 43  1  0  0  0  0
 20 44  1  0  0  0  0
 21 45  1  0  0  0  0
 21 46  1  0  0  0  0
 22 47  1  0  0  0  0
 22 48  1  0  0  0  0
 24 49  1  0  0  0  0
M  END
> <clash_score>
0

> <docking_score>
-8.455251693725586

> <overlap_score>
0.9413028359413147

$$$$
BENZO_464_1
  -OEChem-08232013473D

 47 50  0     0  0  0  0  0  0999 V2000
    4.2750    1.7050   20.8490 C   0  0  0  0  0  0  0  0  0  0  0  0
    3.9160    2.0630   19.5520 C   0  0  0  0  0  0  0  0  0  0  0  0
    5.4210    0.9600   21.0930 C   0  0  0  0  0  0  0  0  0  0  0  0
    4.6890    1.6810   18.4640 C   0  0  0  0  0  0  0  0  0  0  0  0
    9.0720   -1.1280   24.8640 C   0  0  0  0  0  0  0  0  0  0  0  0
    9.7200   -2.2600   22.8630 C   0  0  0  0  0  0  0  0  0  0  0  0
    8.9960   -2.3380   25.5320 C   0  0  0  0  0  0  0  0  0  0  0  0
    9.6730   -3.4710   23.5300 C   0  0  0  0  0  0  0  0  0  0  0  0
   12.4440    2.3610   23.6471 C   0  0  0  0  0  0  0  0  0  0  0  0
    7.6390   -0.2680   18.5410 C   0  0  0  0  0  0  0  0  0  0  0  0
   13.7771    2.0160   23.6093 C   0  0  0  0  0  0  0  0  0  0  0  0
   12.3095    0.0456   23.4948 C   0  0  0  0  0  0  0  0  0  0  0  0
    6.1790    0.5730   19.9990 C   0  0  0  0  0  0  0  0  0  0  0  0
   11.5937    1.2196   23.5810 C   0  0  0  0  0  0  0  0  0  0  0  0
    7.3170   -0.1610   19.8550 C   0  0  0  0  0  0  0  0  0  0  0  0
    5.8300    0.9190   18.6970 C   0  0  0  0  0  0  0  0  0  0  0  0
    9.3350   -1.0880   23.5010 C   0  0  0  0  0  0  0  0  0  0  0  0
    9.3070   -3.5340   24.8780 C   0  0  0  0  0  0  0  0  0  0  0  0
    9.0420    0.3700   21.5280 C   0  0  0  0  0  0  0  0  0  0  0  0
    8.8720   -4.6805   26.9013 C   0  0  0  0  0  0  0  0  0  0  0  0
    8.1890   -0.7180   20.8700 C   0  0  0  0  0  0  0  0  0  0  0  0
   10.0942    1.2904   23.6018 C   0  0  0  0  0  0  0  0  0  0  0  0
    6.7580    0.3810   17.8350 N   0  0  0  0  0  0  0  0  0  0  0  0
    9.4560    0.1560   22.8130 N   0  0  0  0  0  0  0  0  0  0  0  0
    9.2690    1.4140   20.9380 O   0  0  0  0  0  0  0  0  0  0  0  0
    9.2555   -4.7124   25.5274 O   0  0  0  0  0  0  0  0  0  0  0  0
   13.9994    0.3220   23.4943 S   0  0  0  0  0  0  0  0  0  0  0  0
    3.6455    2.0160   21.6826 H   0  0  0  0  0  0  0  0  0  0  0  0
    3.0144    2.6518   19.3914 H   0  0  0  0  0  0  0  0  0  0  0  0
    5.6994    0.6999   22.1043 H   0  0  0  0  0  0  0  0  0  0  0  0
    4.4044    1.9727   17.4490 H   0  0  0  0  0  0  0  0  0  0  0  0
    8.9221   -0.1995   25.4231 H   0  0  0  0  0  0  0  0  0  0  0  0
   10.0642   -2.2347   21.8253 H   0  0  0  0  0  0  0  0  0  0  0  0
    8.6902   -2.3588   26.5805 H   0  0  0  0  0  0  0  0  0  0  0  0
    9.9254   -4.3921   22.9961 H   0  0  0  0  0  0  0  0  0  0  0  0
   12.0996    3.3850   23.7185 H   0  0  0  0  0  0  0  0  0  0  0  0
    8.4839   -0.7930   18.0639 H   0  0  0  0  0  0  0  0  0  0  0  0
   14.6312    2.6776   23.6429 H   0  0  0  0  0  0  0  0  0  0  0  0
   11.9248   -0.9629   23.4308 H   0  0  0  0  0  0  0  0  0  0  0  0
    8.8711   -5.6964   27.3038 H   0  0  0  0  0  0  0  0  0  0  0  0
    7.8758   -4.2402   26.9923 H   0  0  0  0  0  0  0  0  0  0  0  0
    9.5894   -4.0716   27.4566 H   0  0  0  0  0  0  0  0  0  0  0  0
    7.6077   -1.2085   21.6613 H   0  0  0  0  0  0  0  0  0  0  0  0
    8.8716   -1.4650   20.4448 H   0  0  0  0  0  0  0  0  0  0  0  0
    9.7196    1.2411   24.6301 H   0  0  0  0  0  0  0  0  0  0  0  0
    9.7392    2.2326   23.1712 H   0  0  0  0  0  0  0  0  0  0  0  0
    6.7270    0.4925   16.8305 H   0  0  0  0  0  0  0  0  0  0  0  0
  1  2  1  0  0  0  0
  1  3  2  0  0  0  0
  2  4  2  0  0  0  0
  3 13  1  0  0  0  0
  4 16  1  0  0  0  0
  5  7  2  0  0  0  0
  5 17  1  0  0  0  0
  6  8  1  0  0  0  0
  6 17  2  0  0  0  0
  7 18  1  0  0  0  0
  8 18  2  0  0  0  0
  9 11  2  0  0  0  0
  9 14  1  0  0  0  0
 10 15  2  0  0  0  0
 10 23  1  0  0  0  0
 11 27  1  0  0  0  0
 12 14  2  0  0  0  0
 12 27  1  0  0  0  0
 13 15  1  0  0  0  0
 13 16  2  0  0  0  0
 14 22  1  0  0  0  0
 15 21  1  0  0  0  0
 16 23  1  0  0  0  0
 17 24  1  0  0  0  0
 18 26  1  0  0  0  0
 19 21  1  0  0  0  0
 19 24  1  0  0  0  0
 19 25  2  0  0  0  0
 20 26  1  0  0  0  0
 22 24  1  0  0  0  0
  1 28  1  0  0  0  0
  2 29  1  0  0  0  0
  3 30  1  0  0  0  0
  4 31  1  0  0  0  0
  5 32  1  0  0  0  0
  6 33  1  0  0  0  0
  7 34  1  0  0  0  0
  8 35  1  0  0  0  0
  9 36  1  0  0  0  0
 10 37  1  0  0  0  0
 11 38  1  0  0  0  0
 12 39  1  0  0  0  0
 20 40  1  0  0  0  0
 20 41  1  0  0  0  0
 20 42  1  0  0  0  0
 21 43  1  0  0  0  0
 21 44  1  0  0  0  0
 22 45  1  0  0  0  0
 22 46  1  0  0  0  0
 23 47  1  0  0  0  0
M  END
> <clash_score>
0

> <docking_score>
-7.907841682434082

> <overlap_score>
0.9533374309539795

$$$$
BENZO_466_1
  -OEChem-08232013473D

 50 53  0     0  0  0  0  0  0999 V2000
    4.2750    1.7050   20.8490 C   0  0  0  0  0  0  0  0  0  0  0  0
    3.9160    2.0630   19.5520 C   0  0  0  0  0  0  0  0  0  0  0  0
   13.7147    2.0302   22.7556 C   0  0  0  0  0  0  0  0  0  0  0  0
    5.4210    0.9600   21.0930 C   0  0  0  0  0  0  0  0  0  0  0  0
   12.3215    2.0947   22.7745 C   0  0  0  0  0  0  0  0  0  0  0  0
    4.6890    1.6810   18.4640 C   0  0  0  0  0  0  0  0  0  0  0  0
    9.0720   -1.1280   24.8640 C   0  0  0  0  0  0  0  0  0  0  0  0
    9.7200   -2.2600   22.8630 C   0  0  0  0  0  0  0  0  0  0  0  0
    8.9960   -2.3380   25.5320 C   0  0  0  0  0  0  0  0  0  0  0  0
    9.6730   -3.4710   23.5300 C   0  0  0  0  0  0  0  0  0  0  0  0
   14.3802    1.0906   23.5430 C   0  0  0  0  0  0  0  0  0  0  0  0
   12.2592    0.2800   24.3684 C   0  0  0  0  0  0  0  0  0  0  0  0
    7.6390   -0.2680   18.5410 C   0  0  0  0  0  0  0  0  0  0  0  0
    6.1790    0.5730   19.9990 C   0  0  0  0  0  0  0  0  0  0  0  0
   11.5937    1.2196   23.5810 C   0  0  0  0  0  0  0  0  0  0  0  0
    7.3170   -0.1610   19.8550 C   0  0  0  0  0  0  0  0  0  0  0  0
    5.8300    0.9190   18.6970 C   0  0  0  0  0  0  0  0  0  0  0  0
    9.3350   -1.0880   23.5010 C   0  0  0  0  0  0  0  0  0  0  0  0
    9.3070   -3.5340   24.8780 C   0  0  0  0  0  0  0  0  0  0  0  0
   13.6525    0.2156   24.3494 C   0  0  0  0  0  0  0  0  0  0  0  0
    9.0420    0.3700   21.5280 C   0  0  0  0  0  0  0  0  0  0  0  0
    8.8720   -4.6805   26.9013 C   0  0  0  0  0  0  0  0  0  0  0  0
    8.1890   -0.7180   20.8700 C   0  0  0  0  0  0  0  0  0  0  0  0
   10.0942    1.2904   23.6018 C   0  0  0  0  0  0  0  0  0  0  0  0
    6.7580    0.3810   17.8350 N   0  0  0  0  0  0  0  0  0  0  0  0
    9.4560    0.1560   22.8130 N   0  0  0  0  0  0  0  0  0  0  0  0
    9.2690    1.4140   20.9380 O   0  0  0  0  0  0  0  0  0  0  0  0
    9.2555   -4.7124   25.5274 O   0  0  0  0  0  0  0  0  0  0  0  0
   14.4742   -0.9427   25.3215 Cl  0  0  0  0  0  0  0  0  0  0  0  0
    3.6455    2.0160   21.6826 H   0  0  0  0  0  0  0  0  0  0  0  0
    3.0144    2.6518   19.3914 H   0  0  0  0  0  0  0  0  0  0  0  0
   14.2810    2.7119   22.1276 H   0  0  0  0  0  0  0  0  0  0  0  0
    5.6994    0.6999   22.1043 H   0  0  0  0  0  0  0  0  0  0  0  0
   11.8113    2.8300   22.1579 H   0  0  0  0  0  0  0  0  0  0  0  0
    4.4044    1.9727   17.4490 H   0  0  0  0  0  0  0  0  0  0  0  0
    8.9221   -0.1995   25.4231 H   0  0  0  0  0  0  0  0  0  0  0  0
   10.0642   -2.2347   21.8253 H   0  0  0  0  0  0  0  0  0  0  0  0
    8.6902   -2.3588   26.5805 H   0  0  0  0  0  0  0  0  0  0  0  0
    9.9254   -4.3921   22.9961 H   0  0  0  0  0  0  0  0  0  0  0  0
   15.4665    1.0520   23.5183 H   0  0  0  0  0  0  0  0  0  0  0  0
   11.6873   -0.4003   24.9951 H   0  0  0  0  0  0  0  0  0  0  0  0
    8.4839   -0.7930   18.0639 H   0  0  0  0  0  0  0  0  0  0  0  0
    8.8711   -5.6964   27.3038 H   0  0  0  0  0  0  0  0  0  0  0  0
    7.8758   -4.2402   26.9923 H   0  0  0  0  0  0  0  0  0  0  0  0
    9.5894   -4.0716   27.4566 H   0  0  0  0  0  0  0  0  0  0  0  0
    7.6077   -1.2085   21.6613 H   0  0  0  0  0  0  0  0  0  0  0  0
    8.8716   -1.4650   20.4448 H   0  0  0  0  0  0  0  0  0  0  0  0
    9.7196    1.2411   24.6301 H   0  0  0  0  0  0  0  0  0  0  0  0
    9.7392    2.2326   23.1712 H   0  0  0  0  0  0  0  0  0  0  0  0
    6.7270    0.4925   16.8305 H   0  0  0  0  0  0  0  0  0  0  0  0
  1  2  1  0  0  0  0
  1  4  2  0  0  0  0
  2  6  2  0  0  0  0
  3  5  2  0  0  0  0
  3 11  1  0  0  0  0
  4 14  1  0  0  0  0
  5 15  1  0  0  0  0
  6 17  1  0  0  0  0
  7  9  2  0  0  0  0
  7 18  1  0  0  0  0
  8 10  1  0  0  0  0
  8 18  2  0  0  0  0
  9 19  1  0  0  0  0
 10 19  2  0  0  0  0
 11 20  2  0  0  0  0
 12 15  2  0  0  0  0
 12 20  1  0  0  0  0
 13 16  2  0  0  0  0
 13 25  1  0  0  0  0
 14 16  1  0  0  0  0
 14 17  2  0  0  0  0
 15 24  1  0  0  0  0
 16 23  1  0  0  0  0
 17 25  1  0  0  0  0
 18 26  1  0  0  0  0
 19 28  1  0  0  0  0
 20 29  1  0  0  0  0
 21 23  1  0  0  0  0
 21 26  1  0  0  0  0
 21 27  2  0  0  0  0
 22 28  1  0  0  0  0
 24 26  1  0  0  0  0
  1 30  1  0  0  0  0
  2 31  1  0  0  0  0
  3 32  1  0  0  0  0
  4 33  1  0  0  0  0
  5 34  1  0  0  0  0
  6 35  1  0  0  0  0
  7 36  1  0  0  0  0
  8 37  1  0  0  0  0
  9 38  1  0  0  0  0
 10 39  1  0  0  0  0
 11 40  1  0  0  0  0
 12 41  1  0  0  0  0
 13 42  1  0  0  0  0
 22 43  1  0  0  0  0
 22 44  1  0  0  0  0
 22 45  1  0  0  0  0
 23 46  1  0  0  0  0
 23 47  1  0  0  0  0
 24 48  1  0  0  0  0
 24 49  1  0  0  0  0
 25 50  1  0  0  0  0
M  END
> <clash_score>
0.7279747806401634

> <docking_score>
-7.437390327453613

> <overlap_score>
0.9666000604629517

$$$$
BENZO_467_1
  -OEChem-08232013473D

 50 53  0     0  0  0  0  0  0999 V2000
    4.2750    1.7050   20.8490 C   0  0  0  0  0  0  0  0  0  0  0  0
    3.9160    2.0630   19.5520 C   0  0  0  0  0  0  0  0  0  0  0  0
    5.4210    0.9600   21.0930 C   0  0  0  0  0  0  0  0  0  0  0  0
    4.6890    1.6810   18.4640 C   0  0  0  0  0  0  0  0  0  0  0  0
    9.0720   -1.1280   24.8640 C   0  0  0  0  0  0  0  0  0  0  0  0
    9.7200   -2.2600   22.8630 C   0  0  0  0  0  0  0  0  0  0  0  0
    8.9960   -2.3380   25.5320 C   0  0  0  0  0  0  0  0  0  0  0  0
    9.6730   -3.4710   23.5300 C   0  0  0  0  0  0  0  0  0  0  0  0
   12.4857    2.0141   22.8360 C   0  0  0  0  0  0  0  0  0  0  0  0
    7.6390   -0.2680   18.5410 C   0  0  0  0  0  0  0  0  0  0  0  0
   12.4036    0.3650   24.2882 C   0  0  0  0  0  0  0  0  0  0  0  0
    6.1790    0.5730   19.9990 C   0  0  0  0  0  0  0  0  0  0  0  0
   11.5937    1.2196   23.5810 C   0  0  0  0  0  0  0  0  0  0  0  0
    7.3170   -0.1610   19.8550 C   0  0  0  0  0  0  0  0  0  0  0  0
    5.8300    0.9190   18.6970 C   0  0  0  0  0  0  0  0  0  0  0  0
    9.3350   -1.0880   23.5010 C   0  0  0  0  0  0  0  0  0  0  0  0
    9.3070   -3.5340   24.8780 C   0  0  0  0  0  0  0  0  0  0  0  0
    9.0420    0.3700   21.5280 C   0  0  0  0  0  0  0  0  0  0  0  0
   14.8870    0.0600   24.4246 C   0  0  0  0  0  0  0  0  0  0  0  0
    8.8720   -4.6805   26.9013 C   0  0  0  0  0  0  0  0  0  0  0  0
    8.1890   -0.7180   20.8700 C   0  0  0  0  0  0  0  0  0  0  0  0
   10.0942    1.2904   23.6018 C   0  0  0  0  0  0  0  0  0  0  0  0
   13.7644    1.6929   23.0502 N   0  0  0  0  0  0  0  0  0  0  0  0
    6.7580    0.3810   17.8350 N   0  0  0  0  0  0  0  0  0  0  0  0
   13.6818    0.6872   23.9378 N   0  0  0  0  0  0  0  0  0  0  0  0
    9.4560    0.1560   22.8130 N   0  0  0  0  0  0  0  0  0  0  0  0
    9.2690    1.4140   20.9380 O   0  0  0  0  0  0  0  0  0  0  0  0
    9.2555   -4.7124   25.5274 O   0  0  0  0  0  0  0  0  0  0  0  0
    3.6455    2.0160   21.6826 H   0  0  0  0  0  0  0  0  0  0  0  0
    3.0144    2.6518   19.3914 H   0  0  0  0  0  0  0  0  0  0  0  0
    5.6994    0.6999   22.1043 H   0  0  0  0  0  0  0  0  0  0  0  0
    4.4044    1.9727   17.4490 H   0  0  0  0  0  0  0  0  0  0  0  0
    8.9221   -0.1995   25.4231 H   0  0  0  0  0  0  0  0  0  0  0  0
   10.0642   -2.2347   21.8253 H   0  0  0  0  0  0  0  0  0  0  0  0
    8.6902   -2.3588   26.5805 H   0  0  0  0  0  0  0  0  0  0  0  0
    9.9254   -4.3921   22.9961 H   0  0  0  0  0  0  0  0  0  0  0  0
   12.2598    2.8148   22.1461 H   0  0  0  0  0  0  0  0  0  0  0  0
    8.4839   -0.7930   18.0639 H   0  0  0  0  0  0  0  0  0  0  0  0
   12.1849   -0.4245   24.9944 H   0  0  0  0  0  0  0  0  0  0  0  0
   15.1274   -0.7720   23.7575 H   0  0  0  0  0  0  0  0  0  0  0  0
   15.7003    0.7911   24.4324 H   0  0  0  0  0  0  0  0  0  0  0  0
   14.7203   -0.3011   25.4433 H   0  0  0  0  0  0  0  0  0  0  0  0
    8.8711   -5.6964   27.3038 H   0  0  0  0  0  0  0  0  0  0  0  0
    7.8758   -4.2402   26.9923 H   0  0  0  0  0  0  0  0  0  0  0  0
    9.5894   -4.0716   27.4566 H   0  0  0  0  0  0  0  0  0  0  0  0
    7.6077   -1.2085   21.6613 H   0  0  0  0  0  0  0  0  0  0  0  0
    8.8716   -1.4650   20.4448 H   0  0  0  0  0  0  0  0  0  0  0  0
    9.7196    1.2411   24.6301 H   0  0  0  0  0  0  0  0  0  0  0  0
    9.7392    2.2326   23.1712 H   0  0  0  0  0  0  0  0  0  0  0  0
    6.7270    0.4925   16.8305 H   0  0  0  0  0  0  0  0  0  0  0  0
  1  2  1  0  0  0  0
  1  3  2  0  0  0  0
  2  4  2  0  0  0  0
  3 12  1  0  0  0  0
  4 15  1  0  0  0  0
  5  7  2  0  0  0  0
  5 16  1  0  0  0  0
  6  8  1  0  0  0  0
  6 16  2  0  0  0  0
  7 17  1  0  0  0  0
  8 17  2  0  0  0  0
  9 13  1  0  0  0  0
  9 23  2  0  0  0  0
 10 14  2  0  0  0  0
 10 24  1  0  0  0  0
 11 13  2  0  0  0  0
 11 25  1  0  0  0  0
 12 14  1  0  0  0  0
 12 15  2  0  0  0  0
 13 22  1  0  0  0  0
 14 21  1  0  0  0  0
 15 24  1  0  0  0  0
 16 26  1  0  0  0  0
 17 28  1  0  0  0  0
 18 21  1  0  0  0  0
 18 26  1  0  0  0  0
 18 27  2  0  0  0  0
 19 25  1  0  0  0  0
 20 28  1  0  0  0  0
 22 26  1  0  0  0  0
 23 25  1  0  0  0  0
  1 29  1  0  0  0  0
  2 30  1  0  0  0  0
  3 31  1  0  0  0  0
  4 32  1  0  0  0  0
  5 33  1  0  0  0  0
  6 34  1  0  0  0  0
  7 35  1  0  0  0  0
  8 36  1  0  0  0  0
  9 37  1  0  0  0  0
 10 38  1  0  0  0  0
 11 39  1  0  0  0  0
 19 40  1  0  0  0  0
 19 41  1  0  0  0  0
 19 42  1  0  0  0  0
 20 43  1  0  0  0  0
 20 44  1  0  0  0  0
 20 45  1  0  0  0  0
 21 46  1  0  0  0  0
 21 47  1  0  0  0  0
 22 48  1  0  0  0  0
 22 49  1  0  0  0  0
 24 50  1  0  0  0  0
M  END
> <clash_score>
0

> <docking_score>
-8.191555976867676

> <overlap_score>
0.9636516571044922

$$$$
BENZO_469_1
  -OEChem-08232013473D

 60 64  0     0  0  0  0  0  0999 V2000
   14.3801    1.0884   23.5409 C   0  0  0  0  0  0  0  0  0  0  0  0
    4.2750    1.7050   20.8490 C   0  0  0  0  0  0  0  0  0  0  0  0
   13.6658    0.4386   24.5473 C   0  0  0  0  0  0  0  0  0  0  0  0
   13.7013    1.8040   22.5545 C   0  0  0  0  0  0  0  0  0  0  0  0
    3.9160    2.0630   19.5520 C   0  0  0  0  0  0  0  0  0  0  0  0
    5.4210    0.9600   21.0930 C   0  0  0  0  0  0  0  0  0  0  0  0
   12.2726    0.5041   24.5674 C   0  0  0  0  0  0  0  0  0  0  0  0
   12.3081    1.8695   22.5745 C   0  0  0  0  0  0  0  0  0  0  0  0
    4.6890    1.6810   18.4640 C   0  0  0  0  0  0  0  0  0  0  0  0
    8.9960   -2.3380   25.5320 C   0  0  0  0  0  0  0  0  0  0  0  0
    9.6730   -3.4710   23.5300 C   0  0  0  0  0  0  0  0  0  0  0  0
    9.0720   -1.1280   24.8640 C   0  0  0  0  0  0  0  0  0  0  0  0
    9.7200   -2.2600   22.8630 C   0  0  0  0  0  0  0  0  0  0  0  0
    7.6390   -0.2680   18.5410 C   0  0  0  0  0  0  0  0  0  0  0  0
    6.1790    0.5730   19.9990 C   0  0  0  0  0  0  0  0  0  0  0  0
   11.5937    1.2196   23.5810 C   0  0  0  0  0  0  0  0  0  0  0  0
    7.3170   -0.1610   19.8550 C   0  0  0  0  0  0  0  0  0  0  0  0
    5.8300    0.9190   18.6970 C   0  0  0  0  0  0  0  0  0  0  0  0
    9.3070   -3.5340   24.8780 C   0  0  0  0  0  0  0  0  0  0  0  0
    9.3350   -1.0880   23.5010 C   0  0  0  0  0  0  0  0  0  0  0  0
    8.3597   -5.0072   26.6307 C   0  0  0  0  0  0  0  0  0  0  0  0
    9.0420    0.3700   21.5280 C   0  0  0  0  0  0  0  0  0  0  0  0
    8.4719   -6.3980   27.2297 C   0  0  0  0  0  0  0  0  0  0  0  0
    9.9251   -6.7605   27.4804 C   0  0  0  0  0  0  0  0  0  0  0  0
   10.7833   -6.6094   26.2282 C   0  0  0  0  0  0  0  0  0  0  0  0
   10.0539   -5.9100   25.0823 C   0  0  0  0  0  0  0  0  0  0  0  0
    8.1890   -0.7180   20.8700 C   0  0  0  0  0  0  0  0  0  0  0  0
   10.0942    1.2904   23.6018 C   0  0  0  0  0  0  0  0  0  0  0  0
    6.7580    0.3810   17.8350 N   0  0  0  0  0  0  0  0  0  0  0  0
    9.2530   -4.7797   25.5644 N   0  0  0  0  0  0  0  0  0  0  0  0
    9.4560    0.1560   22.8130 N   0  0  0  0  0  0  0  0  0  0  0  0
    7.4954   -4.2355   27.0449 O   0  0  0  0  0  0  0  0  0  0  0  0
    9.2690    1.4140   20.9380 O   0  0  0  0  0  0  0  0  0  0  0  0
   15.4650    1.0384   23.5262 H   0  0  0  0  0  0  0  0  0  0  0  0
    3.6455    2.0160   21.6826 H   0  0  0  0  0  0  0  0  0  0  0  0
   14.1942   -0.1177   25.3161 H   0  0  0  0  0  0  0  0  0  0  0  0
   14.2572    2.3110   21.7714 H   0  0  0  0  0  0  0  0  0  0  0  0
    3.0144    2.6518   19.3914 H   0  0  0  0  0  0  0  0  0  0  0  0
    5.6994    0.6999   22.1043 H   0  0  0  0  0  0  0  0  0  0  0  0
   11.7242   -0.0055   25.3553 H   0  0  0  0  0  0  0  0  0  0  0  0
   11.7877    2.4292   21.8018 H   0  0  0  0  0  0  0  0  0  0  0  0
    4.4044    1.9727   17.4490 H   0  0  0  0  0  0  0  0  0  0  0  0
    8.6895   -2.3529   26.5807 H   0  0  0  0  0  0  0  0  0  0  0  0
    9.9262   -4.3897   22.9916 H   0  0  0  0  0  0  0  0  0  0  0  0
    8.9224   -0.1998   25.4238 H   0  0  0  0  0  0  0  0  0  0  0  0
   10.0649   -2.2343   21.8258 H   0  0  0  0  0  0  0  0  0  0  0  0
    8.4839   -0.7930   18.0639 H   0  0  0  0  0  0  0  0  0  0  0  0
    7.9324   -6.4147   28.1641 H   0  0  0  0  0  0  0  0  0  0  0  0
    8.0253   -7.0920   26.5333 H   0  0  0  0  0  0  0  0  0  0  0  0
   10.3386   -6.1266   28.2923 H   0  0  0  0  0  0  0  0  0  0  0  0
    9.9903   -7.8023   27.8538 H   0  0  0  0  0  0  0  0  0  0  0  0
   11.7036   -6.0405   26.4772 H   0  0  0  0  0  0  0  0  0  0  0  0
   11.1410   -7.6068   25.8920 H   0  0  0  0  0  0  0  0  0  0  0  0
   10.7782   -5.5173   24.3764 H   0  0  0  0  0  0  0  0  0  0  0  0
    9.4030   -6.6182   24.5832 H   0  0  0  0  0  0  0  0  0  0  0  0
    7.6077   -1.2085   21.6613 H   0  0  0  0  0  0  0  0  0  0  0  0
    8.8716   -1.4650   20.4448 H   0  0  0  0  0  0  0  0  0  0  0  0
    9.7196    1.2411   24.6301 H   0  0  0  0  0  0  0  0  0  0  0  0
    9.7392    2.2326   23.1712 H   0  0  0  0  0  0  0  0  0  0  0  0
    6.7270    0.4925   16.8305 H   0  0  0  0  0  0  0  0  0  0  0  0
  1  3  1  0  0  0  0
  1  4  2  0  0  0  0
  2  5  1  0  0  0  0
  2  6  2  0  0  0  0
  3  7  2  0  0  0  0
  4  8  1  0  0  0  0
  5  9  2  0  0  0  0
  6 15  1  0  0  0  0
  7 16  1  0  0  0  0
  8 16  2  0  0  0  0
  9 18  1  0  0  0  0
 10 12  2  0  0  0  0
 10 19  1  0  0  0  0
 11 13  1  0  0  0  0
 11 19  2  0  0  0  0
 12 20  1  0  0  0  0
 13 20  2  0  0  0  0
 14 17  2  0  0  0  0
 14 29  1  0  0  0  0
 15 17  1  0  0  0  0
 15 18  2  0  0  0  0
 16 28  1  0  0  0  0
 17 27  1  0  0  0  0
 18 29  1  0  0  0  0
 19 30  1  0  0  0  0
 20 31  1  0  0  0  0
 21 23  1  0  0  0  0
 21 30  1  0  0  0  0
 21 32  2  0  0  0  0
 22 27  1  0  0  0  0
 22 31  1  0  0  0  0
 22 33  2  0  0  0  0
 23 24  1  0  0  0  0
 24 25  1  0  0  0  0
 25 26  1  0  0  0  0
 26 30  1  0  0  0  0
 28 31  1  0  0  0  0
  1 34  1  0  0  0  0
  2 35  1  0  0  0  0
  3 36  1  0  0  0  0
  4 37  1  0  0  0  0
  5 38  1  0  0  0  0
  6 39  1  0  0  0  0
  7 40  1  0  0  0  0
  8 41  1  0  0  0  0
  9 42  1  0  0  0  0
 10 43  1  0  0  0  0
 11 44  1  0  0  0  0
 12 45  1  0  0  0  0
 13 46  1  0  0  0  0
 14 47  1  0  0  0  0
 23 48  1  0  0  0  0
 23 49  1  0  0  0  0
 24 50  1  0  0  0  0
 24 51  1  0  0  0  0
 25 52  1  0  0  0  0
 25 53  1  0  0  0  0
 26 54  1  0  0  0  0
 26 55  1  0  0  0  0
 27 56  1  0  0  0  0
 27 57  1  0  0  0  0
 28 58  1  0  0  0  0
 28 59  1  0  0  0  0
 29 60  1  0  0  0  0
M  END
> <clash_score>
0.7790617508365236

> <docking_score>
-7.776027679443359

> <overlap_score>
1.0032377243041992

$$$$
BENZO_468_1
  -OEChem-08232013473D

 57 61  0     0  0  0  0  0  0999 V2000
    4.2750    1.7050   20.8490 C   0  0  0  0  0  0  0  0  0  0  0  0
    3.9160    2.0630   19.5520 C   0  0  0  0  0  0  0  0  0  0  0  0
    5.4210    0.9600   21.0930 C   0  0  0  0  0  0  0  0  0  0  0  0
    4.6890    1.6810   18.4640 C   0  0  0  0  0  0  0  0  0  0  0  0
    8.9960   -2.3380   25.5320 C   0  0  0  0  0  0  0  0  0  0  0  0
    9.6730   -3.4710   23.5300 C   0  0  0  0  0  0  0  0  0  0  0  0
    9.0720   -1.1280   24.8640 C   0  0  0  0  0  0  0  0  0  0  0  0
    9.7200   -2.2600   22.8630 C   0  0  0  0  0  0  0  0  0  0  0  0
   12.3746    1.2600   22.3899 C   0  0  0  0  0  0  0  0  0  0  0  0
    7.6390   -0.2680   18.5410 C   0  0  0  0  0  0  0  0  0  0  0  0
   13.7242    1.1772   22.6529 C   0  0  0  0  0  0  0  0  0  0  0  0
   12.3764    1.1071   24.7091 C   0  0  0  0  0  0  0  0  0  0  0  0
    6.1790    0.5730   19.9990 C   0  0  0  0  0  0  0  0  0  0  0  0
   11.5937    1.2196   23.5810 C   0  0  0  0  0  0  0  0  0  0  0  0
    7.3170   -0.1610   19.8550 C   0  0  0  0  0  0  0  0  0  0  0  0
    5.8300    0.9190   18.6970 C   0  0  0  0  0  0  0  0  0  0  0  0
    9.3070   -3.5340   24.8780 C   0  0  0  0  0  0  0  0  0  0  0  0
    9.3350   -1.0880   23.5010 C   0  0  0  0  0  0  0  0  0  0  0  0
    8.3596   -5.0073   26.6308 C   0  0  0  0  0  0  0  0  0  0  0  0
    9.0420    0.3700   21.5280 C   0  0  0  0  0  0  0  0  0  0  0  0
    8.4579   -6.4046   27.2169 C   0  0  0  0  0  0  0  0  0  0  0  0
    8.4717   -7.4504   26.1160 C   0  0  0  0  0  0  0  0  0  0  0  0
    9.5645   -7.1893   25.0843 C   0  0  0  0  0  0  0  0  0  0  0  0
   10.2327   -5.8252   25.2502 C   0  0  0  0  0  0  0  0  0  0  0  0
    8.1890   -0.7180   20.8700 C   0  0  0  0  0  0  0  0  0  0  0  0
   10.0942    1.2904   23.6018 C   0  0  0  0  0  0  0  0  0  0  0  0
    6.7580    0.3810   17.8350 N   0  0  0  0  0  0  0  0  0  0  0  0
    9.2529   -4.7798   25.5645 N   0  0  0  0  0  0  0  0  0  0  0  0
    9.4560    0.1560   22.8130 N   0  0  0  0  0  0  0  0  0  0  0  0
    7.5990   -4.1865   27.1424 O   0  0  0  0  0  0  0  0  0  0  0  0
    9.2690    1.4140   20.9380 O   0  0  0  0  0  0  0  0  0  0  0  0
   14.0454    1.0511   24.3302 S   0  0  0  0  0  0  0  0  0  0  0  0
    3.6455    2.0160   21.6826 H   0  0  0  0  0  0  0  0  0  0  0  0
    3.0144    2.6518   19.3914 H   0  0  0  0  0  0  0  0  0  0  0  0
    5.6994    0.6999   22.1043 H   0  0  0  0  0  0  0  0  0  0  0  0
    4.4044    1.9727   17.4490 H   0  0  0  0  0  0  0  0  0  0  0  0
    8.6895   -2.3529   26.5807 H   0  0  0  0  0  0  0  0  0  0  0  0
    9.9262   -4.3897   22.9916 H   0  0  0  0  0  0  0  0  0  0  0  0
    8.9224   -0.1998   25.4238 H   0  0  0  0  0  0  0  0  0  0  0  0
   10.0649   -2.2343   21.8258 H   0  0  0  0  0  0  0  0  0  0  0  0
   11.9709    1.3451   21.3888 H   0  0  0  0  0  0  0  0  0  0  0  0
    8.4839   -0.7930   18.0639 H   0  0  0  0  0  0  0  0  0  0  0  0
   14.5370    1.1839   21.9404 H   0  0  0  0  0  0  0  0  0  0  0  0
   12.0521    1.0537   25.7392 H   0  0  0  0  0  0  0  0  0  0  0  0
    9.3705   -6.4744   27.7885 H   0  0  0  0  0  0  0  0  0  0  0  0
    7.6055   -6.5496   27.8636 H   0  0  0  0  0  0  0  0  0  0  0  0
    8.6096   -8.4604   26.5551 H   0  0  0  0  0  0  0  0  0  0  0  0
    7.4835   -7.4764   25.6143 H   0  0  0  0  0  0  0  0  0  0  0  0
   10.3359   -7.9850   25.1533 H   0  0  0  0  0  0  0  0  0  0  0  0
    9.1459   -7.2796   24.0583 H   0  0  0  0  0  0  0  0  0  0  0  0
   10.9405   -5.8647   26.0716 H   0  0  0  0  0  0  0  0  0  0  0  0
   10.7494   -5.5628   24.3343 H   0  0  0  0  0  0  0  0  0  0  0  0
    7.6077   -1.2085   21.6613 H   0  0  0  0  0  0  0  0  0  0  0  0
    8.8716   -1.4650   20.4448 H   0  0  0  0  0  0  0  0  0  0  0  0
    9.7196    1.2411   24.6301 H   0  0  0  0  0  0  0  0  0  0  0  0
    9.7392    2.2326   23.1712 H   0  0  0  0  0  0  0  0  0  0  0  0
    6.7270    0.4925   16.8305 H   0  0  0  0  0  0  0  0  0  0  0  0
  1  2  1  0  0  0  0
  1  3  2  0  0  0  0
  2  4  2  0  0  0  0
  3 13  1  0  0  0  0
  4 16  1  0  0  0  0
  5  7  2  0  0  0  0
  5 17  1  0  0  0  0
  6  8  1  0  0  0  0
  6 17  2  0  0  0  0
  7 18  1  0  0  0  0
  8 18  2  0  0  0  0
  9 11  2  0  0  0  0
  9 14  1  0  0  0  0
 10 15  2  0  0  0  0
 10 27  1  0  0  0  0
 11 32  1  0  0  0  0
 12 14  2  0  0  0  0
 12 32  1  0  0  0  0
 13 15  1  0  0  0  0
 13 16  2  0  0  0  0
 14 26  1  0  0  0  0
 15 25  1  0  0  0  0
 16 27  1  0  0  0  0
 17 28  1  0  0  0  0
 18 29  1  0  0  0  0
 19 21  1  0  0  0  0
 19 28  1  0  0  0  0
 19 30  2  0  0  0  0
 20 25  1  0  0  0  0
 20 29  1  0  0  0  0
 20 31  2  0  0  0  0
 21 22  1  0  0  0  0
 22 23  1  0  0  0  0
 23 24  1  0  0  0  0
 24 28  1  0  0  0  0
 26 29  1  0  0  0  0
  1 33  1  0  0  0  0
  2 34  1  0  0  0  0
  3 35  1  0  0  0  0
  4 36  1  0  0  0  0
  5 37  1  0  0  0  0
  6 38  1  0  0  0  0
  7 39  1  0  0  0  0
  8 40  1  0  0  0  0
  9 41  1  0  0  0  0
 10 42  1  0  0  0  0
 11 43  1  0  0  0  0
 12 44  1  0  0  0  0
 21 45  1  0  0  0  0
 21 46  1  0  0  0  0
 22 47  1  0  0  0  0
 22 48  1  0  0  0  0
 23 49  1  0  0  0  0
 23 50  1  0  0  0  0
 24 51  1  0  0  0  0
 24 52  1  0  0  0  0
 25 53  1  0  0  0  0
 25 54  1  0  0  0  0
 26 55  1  0  0  0  0
 26 56  1  0  0  0  0
 27 57  1  0  0  0  0
M  END
> <clash_score>
0.6354535061896481

> <docking_score>
-7.76593017578125

> <overlap_score>
0.9850340485572815

$$$$
BENZO_473_1
  -OEChem-08232013473D

 59 63  0     0  0  0  0  0  0999 V2000
   14.3801    1.0884   23.5409 C   0  0  0  0  0  0  0  0  0  0  0  0
    4.2750    1.7050   20.8490 C   0  0  0  0  0  0  0  0  0  0  0  0
   13.6658    0.4386   24.5473 C   0  0  0  0  0  0  0  0  0  0  0  0
   13.7013    1.8040   22.5545 C   0  0  0  0  0  0  0  0  0  0  0  0
    3.9160    2.0630   19.5520 C   0  0  0  0  0  0  0  0  0  0  0  0
    5.4210    0.9600   21.0930 C   0  0  0  0  0  0  0  0  0  0  0  0
   12.2726    0.5041   24.5674 C   0  0  0  0  0  0  0  0  0  0  0  0
   12.3081    1.8695   22.5745 C   0  0  0  0  0  0  0  0  0  0  0  0
    4.6890    1.6810   18.4640 C   0  0  0  0  0  0  0  0  0  0  0  0
    8.9960   -2.3380   25.5320 C   0  0  0  0  0  0  0  0  0  0  0  0
    9.6730   -3.4710   23.5300 C   0  0  0  0  0  0  0  0  0  0  0  0
    9.0720   -1.1280   24.8640 C   0  0  0  0  0  0  0  0  0  0  0  0
    9.7200   -2.2600   22.8630 C   0  0  0  0  0  0  0  0  0  0  0  0
    7.6390   -0.2680   18.5410 C   0  0  0  0  0  0  0  0  0  0  0  0
    6.1790    0.5730   19.9990 C   0  0  0  0  0  0  0  0  0  0  0  0
   11.5937    1.2196   23.5810 C   0  0  0  0  0  0  0  0  0  0  0  0
    7.3170   -0.1610   19.8550 C   0  0  0  0  0  0  0  0  0  0  0  0
    5.8300    0.9190   18.6970 C   0  0  0  0  0  0  0  0  0  0  0  0
    9.3070   -3.5340   24.8780 C   0  0  0  0  0  0  0  0  0  0  0  0
    9.3350   -1.0880   23.5010 C   0  0  0  0  0  0  0  0  0  0  0  0
    9.0420    0.3700   21.5280 C   0  0  0  0  0  0  0  0  0  0  0  0
    9.5175   -4.8597   26.9771 C   0  0  0  0  0  0  0  0  0  0  0  0
    8.5165   -5.8725   24.9808 C   0  0  0  0  0  0  0  0  0  0  0  0
    8.1868   -5.0438   27.6987 C   0  0  0  0  0  0  0  0  0  0  0  0
    7.2200   -6.0346   25.7756 C   0  0  0  0  0  0  0  0  0  0  0  0
    8.1890   -0.7180   20.8700 C   0  0  0  0  0  0  0  0  0  0  0  0
   10.0942    1.2904   23.6018 C   0  0  0  0  0  0  0  0  0  0  0  0
    6.7580    0.3810   17.8350 N   0  0  0  0  0  0  0  0  0  0  0  0
    9.2563   -4.7368   25.5413 N   0  0  0  0  0  0  0  0  0  0  0  0
    9.4560    0.1560   22.8130 N   0  0  0  0  0  0  0  0  0  0  0  0
    9.2690    1.4140   20.9380 O   0  0  0  0  0  0  0  0  0  0  0  0
    7.4993   -6.1852   27.1720 O   0  0  0  0  0  0  0  0  0  0  0  0
   15.4650    1.0384   23.5262 H   0  0  0  0  0  0  0  0  0  0  0  0
    3.6455    2.0160   21.6826 H   0  0  0  0  0  0  0  0  0  0  0  0
   14.1942   -0.1177   25.3161 H   0  0  0  0  0  0  0  0  0  0  0  0
   14.2572    2.3110   21.7714 H   0  0  0  0  0  0  0  0  0  0  0  0
    3.0144    2.6518   19.3914 H   0  0  0  0  0  0  0  0  0  0  0  0
    5.6994    0.6999   22.1043 H   0  0  0  0  0  0  0  0  0  0  0  0
   11.7242   -0.0055   25.3553 H   0  0  0  0  0  0  0  0  0  0  0  0
   11.7877    2.4292   21.8018 H   0  0  0  0  0  0  0  0  0  0  0  0
    4.4044    1.9727   17.4490 H   0  0  0  0  0  0  0  0  0  0  0  0
    8.6905   -2.3533   26.5810 H   0  0  0  0  0  0  0  0  0  0  0  0
    9.9266   -4.3896   22.9917 H   0  0  0  0  0  0  0  0  0  0  0  0
    8.9233   -0.1992   25.4231 H   0  0  0  0  0  0  0  0  0  0  0  0
   10.0650   -2.2330   21.8256 H   0  0  0  0  0  0  0  0  0  0  0  0
    8.4839   -0.7930   18.0639 H   0  0  0  0  0  0  0  0  0  0  0  0
   10.0258   -3.9711   27.3648 H   0  0  0  0  0  0  0  0  0  0  0  0
   10.1569   -5.7319   27.1551 H   0  0  0  0  0  0  0  0  0  0  0  0
    9.1205   -6.7792   25.0739 H   0  0  0  0  0  0  0  0  0  0  0  0
    8.2824   -5.7116   23.9265 H   0  0  0  0  0  0  0  0  0  0  0  0
    8.3629   -5.2251   28.7611 H   0  0  0  0  0  0  0  0  0  0  0  0
    7.5530   -4.1569   27.6103 H   0  0  0  0  0  0  0  0  0  0  0  0
    6.5459   -5.1838   25.6221 H   0  0  0  0  0  0  0  0  0  0  0  0
    6.6947   -6.9354   25.4437 H   0  0  0  0  0  0  0  0  0  0  0  0
    7.6077   -1.2085   21.6613 H   0  0  0  0  0  0  0  0  0  0  0  0
    8.8716   -1.4650   20.4448 H   0  0  0  0  0  0  0  0  0  0  0  0
    9.7196    1.2411   24.6301 H   0  0  0  0  0  0  0  0  0  0  0  0
    9.7392    2.2326   23.1712 H   0  0  0  0  0  0  0  0  0  0  0  0
    6.7270    0.4925   16.8305 H   0  0  0  0  0  0  0  0  0  0  0  0
  1  3  1  0  0  0  0
  1  4  2  0  0  0  0
  2  5  1  0  0  0  0
  2  6  2  0  0  0  0
  3  7  2  0  0  0  0
  4  8  1  0  0  0  0
  5  9  2  0  0  0  0
  6 15  1  0  0  0  0
  7 16  1  0  0  0  0
  8 16  2  0  0  0  0
  9 18  1  0  0  0  0
 10 12  2  0  0  0  0
 10 19  1  0  0  0  0
 11 13  1  0  0  0  0
 11 19  2  0  0  0  0
 12 20  1  0  0  0  0
 13 20  2  0  0  0  0
 14 17  2  0  0  0  0
 14 28  1  0  0  0  0
 15 17  1  0  0  0  0
 15 18  2  0  0  0  0
 16 27  1  0  0  0  0
 17 26  1  0  0  0  0
 18 28  1  0  0  0  0
 19 29  1  0  0  0  0
 20 30  1  0  0  0  0
 21 26  1  0  0  0  0
 21 30  1  0  0  0  0
 21 31  2  0  0  0  0
 22 24  1  0  0  0  0
 22 29  1  0  0  0  0
 23 25  1  0  0  0  0
 23 29  1  0  0  0  0
 24 32  1  0  0  0  0
 25 32  1  0  0  0  0
 27 30  1  0  0  0  0
  1 33  1  0  0  0  0
  2 34  1  0  0  0  0
  3 35  1  0  0  0  0
  4 36  1  0  0  0  0
  5 37  1  0  0  0  0
  6 38  1  0  0  0  0
  7 39  1  0  0  0  0
  8 40  1  0  0  0  0
  9 41  1  0  0  0  0
 10 42  1  0  0  0  0
 11 43  1  0  0  0  0
 12 44  1  0  0  0  0
 13 45  1  0  0  0  0
 14 46  1  0  0  0  0
 22 47  1  0  0  0  0
 22 48  1  0  0  0  0
 23 49  1  0  0  0  0
 23 50  1  0  0  0  0
 24 51  1  0  0  0  0
 24 52  1  0  0  0  0
 25 53  1  0  0  0  0
 25 54  1  0  0  0  0
 26 55  1  0  0  0  0
 26 56  1  0  0  0  0
 27 57  1  0  0  0  0
 27 58  1  0  0  0  0
 28 59  1  0  0  0  0
M  END
> <clash_score>
0

> <docking_score>
-8.719193458557129

> <overlap_score>
0.9932016730308533

$$$$
BENZO_470_1
  -OEChem-08232013473D

 60 64  0     0  0  0  0  0  0999 V2000
    4.2750    1.7050   20.8490 C   0  0  0  0  0  0  0  0  0  0  0  0
    3.9160    2.0630   19.5520 C   0  0  0  0  0  0  0  0  0  0  0  0
   13.7147    2.0302   22.7556 C   0  0  0  0  0  0  0  0  0  0  0  0
    5.4210    0.9600   21.0930 C   0  0  0  0  0  0  0  0  0  0  0  0
   12.3215    2.0947   22.7745 C   0  0  0  0  0  0  0  0  0  0  0  0
    4.6890    1.6810   18.4640 C   0  0  0  0  0  0  0  0  0  0  0  0
    8.9960   -2.3380   25.5320 C   0  0  0  0  0  0  0  0  0  0  0  0
    9.6730   -3.4710   23.5300 C   0  0  0  0  0  0  0  0  0  0  0  0
    9.0720   -1.1280   24.8640 C   0  0  0  0  0  0  0  0  0  0  0  0
    9.7200   -2.2600   22.8630 C   0  0  0  0  0  0  0  0  0  0  0  0
   14.3802    1.0906   23.5430 C   0  0  0  0  0  0  0  0  0  0  0  0
   12.2592    0.2801   24.3684 C   0  0  0  0  0  0  0  0  0  0  0  0
    7.6390   -0.2680   18.5410 C   0  0  0  0  0  0  0  0  0  0  0  0
    6.1790    0.5730   19.9990 C   0  0  0  0  0  0  0  0  0  0  0  0
   11.5937    1.2196   23.5810 C   0  0  0  0  0  0  0  0  0  0  0  0
    7.3170   -0.1610   19.8550 C   0  0  0  0  0  0  0  0  0  0  0  0
    5.8300    0.9190   18.6970 C   0  0  0  0  0  0  0  0  0  0  0  0
    9.3070   -3.5340   24.8780 C   0  0  0  0  0  0  0  0  0  0  0  0
    9.3350   -1.0880   23.5010 C   0  0  0  0  0  0  0  0  0  0  0  0
   13.6525    0.2156   24.3494 C   0  0  0  0  0  0  0  0  0  0  0  0
    8.3597   -5.0072   26.6307 C   0  0  0  0  0  0  0  0  0  0  0  0
    9.0420    0.3700   21.5280 C   0  0  0  0  0  0  0  0  0  0  0  0
    8.4719   -6.3980   27.2297 C   0  0  0  0  0  0  0  0  0  0  0  0
    9.9251   -6.7605   27.4804 C   0  0  0  0  0  0  0  0  0  0  0  0
   10.7833   -6.6094   26.2282 C   0  0  0  0  0  0  0  0  0  0  0  0
   10.0539   -5.9100   25.0823 C   0  0  0  0  0  0  0  0  0  0  0  0
    8.1890   -0.7180   20.8700 C   0  0  0  0  0  0  0  0  0  0  0  0
   10.0942    1.2904   23.6018 C   0  0  0  0  0  0  0  0  0  0  0  0
    6.7580    0.3810   17.8350 N   0  0  0  0  0  0  0  0  0  0  0  0
    9.2530   -4.7797   25.5644 N   0  0  0  0  0  0  0  0  0  0  0  0
    9.4560    0.1560   22.8130 N   0  0  0  0  0  0  0  0  0  0  0  0
    7.4954   -4.2355   27.0449 O   0  0  0  0  0  0  0  0  0  0  0  0
    9.2690    1.4140   20.9380 O   0  0  0  0  0  0  0  0  0  0  0  0
   14.4742   -0.9427   25.3215 Cl  0  0  0  0  0  0  0  0  0  0  0  0
    3.6455    2.0160   21.6826 H   0  0  0  0  0  0  0  0  0  0  0  0
    3.0144    2.6518   19.3914 H   0  0  0  0  0  0  0  0  0  0  0  0
   14.2810    2.7119   22.1276 H   0  0  0  0  0  0  0  0  0  0  0  0
    5.6994    0.6999   22.1043 H   0  0  0  0  0  0  0  0  0  0  0  0
   11.8113    2.8300   22.1579 H   0  0  0  0  0  0  0  0  0  0  0  0
    4.4044    1.9727   17.4490 H   0  0  0  0  0  0  0  0  0  0  0  0
    8.6895   -2.3529   26.5807 H   0  0  0  0  0  0  0  0  0  0  0  0
    9.9262   -4.3897   22.9916 H   0  0  0  0  0  0  0  0  0  0  0  0
    8.9224   -0.1998   25.4238 H   0  0  0  0  0  0  0  0  0  0  0  0
   10.0649   -2.2343   21.8258 H   0  0  0  0  0  0  0  0  0  0  0  0
   15.4665    1.0520   23.5184 H   0  0  0  0  0  0  0  0  0  0  0  0
   11.6873   -0.4003   24.9951 H   0  0  0  0  0  0  0  0  0  0  0  0
    8.4839   -0.7930   18.0639 H   0  0  0  0  0  0  0  0  0  0  0  0
    7.9324   -6.4147   28.1641 H   0  0  0  0  0  0  0  0  0  0  0  0
    8.0253   -7.0920   26.5333 H   0  0  0  0  0  0  0  0  0  0  0  0
   10.3386   -6.1266   28.2923 H   0  0  0  0  0  0  0  0  0  0  0  0
    9.9903   -7.8023   27.8538 H   0  0  0  0  0  0  0  0  0  0  0  0
   11.7036   -6.0405   26.4772 H   0  0  0  0  0  0  0  0  0  0  0  0
   11.1410   -7.6068   25.8920 H   0  0  0  0  0  0  0  0  0  0  0  0
   10.7782   -5.5173   24.3764 H   0  0  0  0  0  0  0  0  0  0  0  0
    9.4030   -6.6182   24.5832 H   0  0  0  0  0  0  0  0  0  0  0  0
    7.6077   -1.2085   21.6613 H   0  0  0  0  0  0  0  0  0  0  0  0
    8.8716   -1.4650   20.4448 H   0  0  0  0  0  0  0  0  0  0  0  0
    9.7196    1.2411   24.6301 H   0  0  0  0  0  0  0  0  0  0  0  0
    9.7392    2.2326   23.1712 H   0  0  0  0  0  0  0  0  0  0  0  0
    6.7270    0.4925   16.8305 H   0  0  0  0  0  0  0  0  0  0  0  0
  1  2  1  0  0  0  0
  1  4  2  0  0  0  0
  2  6  2  0  0  0  0
  3  5  2  0  0  0  0
  3 11  1  0  0  0  0
  4 14  1  0  0  0  0
  5 15  1  0  0  0  0
  6 17  1  0  0  0  0
  7  9  2  0  0  0  0
  7 18  1  0  0  0  0
  8 10  1  0  0  0  0
  8 18  2  0  0  0  0
  9 19  1  0  0  0  0
 10 19  2  0  0  0  0
 11 20  2  0  0  0  0
 12 15  2  0  0  0  0
 12 20  1  0  0  0  0
 13 16  2  0  0  0  0
 13 29  1  0  0  0  0
 14 16  1  0  0  0  0
 14 17  2  0  0  0  0
 15 28  1  0  0  0  0
 16 27  1  0  0  0  0
 17 29  1  0  0  0  0
 18 30  1  0  0  0  0
 19 31  1  0  0  0  0
 20 34  1  0  0  0  0
 21 23  1  0  0  0  0
 21 30  1  0  0  0  0
 21 32  2  0  0  0  0
 22 27  1  0  0  0  0
 22 31  1  0  0  0  0
 22 33  2  0  0  0  0
 23 24  1  0  0  0  0
 24 25  1  0  0  0  0
 25 26  1  0  0  0  0
 26 30  1  0  0  0  0
 28 31  1  0  0  0  0
  1 35  1  0  0  0  0
  2 36  1  0  0  0  0
  3 37  1  0  0  0  0
  4 38  1  0  0  0  0
  5 39  1  0  0  0  0
  6 40  1  0  0  0  0
  7 41  1  0  0  0  0
  8 42  1  0  0  0  0
  9 43  1  0  0  0  0
 10 44  1  0  0  0  0
 11 45  1  0  0  0  0
 12 46  1  0  0  0  0
 13 47  1  0  0  0  0
 23 48  1  0  0  0  0
 23 49  1  0  0  0  0
 24 50  1  0  0  0  0
 24 51  1  0  0  0  0
 25 52  1  0  0  0  0
 25 53  1  0  0  0  0
 26 54  1  0  0  0  0
 26 55  1  0  0  0  0
 27 56  1  0  0  0  0
 27 57  1  0  0  0  0
 28 58  1  0  0  0  0
 28 59  1  0  0  0  0
 29 60  1  0  0  0  0
M  END
> <clash_score>
1.5070324939971032

> <docking_score>
-6.797090530395508

> <overlap_score>
1.0087971687316895

$$$$
BENZO_471_1
  -OEChem-08232013473D

 60 64  0     0  0  0  0  0  0999 V2000
    4.2750    1.7050   20.8490 C   0  0  0  0  0  0  0  0  0  0  0  0
    3.9160    2.0630   19.5520 C   0  0  0  0  0  0  0  0  0  0  0  0
    5.4210    0.9600   21.0930 C   0  0  0  0  0  0  0  0  0  0  0  0
    4.6890    1.6810   18.4640 C   0  0  0  0  0  0  0  0  0  0  0  0
    8.9960   -2.3380   25.5320 C   0  0  0  0  0  0  0  0  0  0  0  0
    9.6730   -3.4710   23.5300 C   0  0  0  0  0  0  0  0  0  0  0  0
    9.0720   -1.1280   24.8640 C   0  0  0  0  0  0  0  0  0  0  0  0
    9.7200   -2.2600   22.8630 C   0  0  0  0  0  0  0  0  0  0  0  0
   12.5026    1.9106   24.4045 C   0  0  0  0  0  0  0  0  0  0  0  0
    7.6390   -0.2680   18.5410 C   0  0  0  0  0  0  0  0  0  0  0  0
   12.3869    0.4624   22.7539 C   0  0  0  0  0  0  0  0  0  0  0  0
    6.1790    0.5730   19.9990 C   0  0  0  0  0  0  0  0  0  0  0  0
   11.5937    1.2196   23.5810 C   0  0  0  0  0  0  0  0  0  0  0  0
    7.3170   -0.1610   19.8550 C   0  0  0  0  0  0  0  0  0  0  0  0
    5.8300    0.9190   18.6970 C   0  0  0  0  0  0  0  0  0  0  0  0
    9.3070   -3.5340   24.8780 C   0  0  0  0  0  0  0  0  0  0  0  0
    9.3350   -1.0880   23.5010 C   0  0  0  0  0  0  0  0  0  0  0  0
    8.3510   -4.9868   26.6296 C   0  0  0  0  0  0  0  0  0  0  0  0
    9.0420    0.3700   21.5280 C   0  0  0  0  0  0  0  0  0  0  0  0
    8.1552   -6.4206   27.0914 C   0  0  0  0  0  0  0  0  0  0  0  0
    9.3911   -7.2880   26.9938 C   0  0  0  0  0  0  0  0  0  0  0  0
    9.9315   -7.2074   25.5832 C   0  0  0  0  0  0  0  0  0  0  0  0
   10.3114   -5.7687   25.2760 C   0  0  0  0  0  0  0  0  0  0  0  0
   14.8661    0.1742   22.5318 C   0  0  0  0  0  0  0  0  0  0  0  0
    8.1890   -0.7180   20.8700 C   0  0  0  0  0  0  0  0  0  0  0  0
   10.0942    1.2904   23.6018 C   0  0  0  0  0  0  0  0  0  0  0  0
   13.7758    1.6181   24.1262 N   0  0  0  0  0  0  0  0  0  0  0  0
    6.7580    0.3810   17.8350 N   0  0  0  0  0  0  0  0  0  0  0  0
   13.6726    0.7350   23.1184 N   0  0  0  0  0  0  0  0  0  0  0  0
    9.2526   -4.7874   25.5686 N   0  0  0  0  0  0  0  0  0  0  0  0
    9.4560    0.1560   22.8130 N   0  0  0  0  0  0  0  0  0  0  0  0
    7.6724   -4.1074   27.1673 O   0  0  0  0  0  0  0  0  0  0  0  0
    9.2690    1.4140   20.9380 O   0  0  0  0  0  0  0  0  0  0  0  0
    3.6455    2.0160   21.6826 H   0  0  0  0  0  0  0  0  0  0  0  0
    3.0144    2.6518   19.3914 H   0  0  0  0  0  0  0  0  0  0  0  0
    5.6994    0.6999   22.1043 H   0  0  0  0  0  0  0  0  0  0  0  0
    4.4044    1.9727   17.4490 H   0  0  0  0  0  0  0  0  0  0  0  0
    8.6895   -2.3529   26.5807 H   0  0  0  0  0  0  0  0  0  0  0  0
    9.9262   -4.3897   22.9916 H   0  0  0  0  0  0  0  0  0  0  0  0
    8.9224   -0.1998   25.4238 H   0  0  0  0  0  0  0  0  0  0  0  0
   10.0649   -2.2343   21.8258 H   0  0  0  0  0  0  0  0  0  0  0  0
   12.2927    2.6147   25.1972 H   0  0  0  0  0  0  0  0  0  0  0  0
    8.4839   -0.7930   18.0639 H   0  0  0  0  0  0  0  0  0  0  0  0
   12.1518   -0.2309   21.9577 H   0  0  0  0  0  0  0  0  0  0  0  0
    7.8134   -6.3989   28.1326 H   0  0  0  0  0  0  0  0  0  0  0  0
    7.3453   -6.8474   26.4875 H   0  0  0  0  0  0  0  0  0  0  0  0
   10.1503   -6.9497   27.7092 H   0  0  0  0  0  0  0  0  0  0  0  0
    9.1417   -8.3244   27.2461 H   0  0  0  0  0  0  0  0  0  0  0  0
   10.8121   -7.8511   25.4807 H   0  0  0  0  0  0  0  0  0  0  0  0
    9.1845   -7.5637   24.8636 H   0  0  0  0  0  0  0  0  0  0  0  0
   11.1843   -5.4823   25.8749 H   0  0  0  0  0  0  0  0  0  0  0  0
   10.5829   -5.6808   24.2181 H   0  0  0  0  0  0  0  0  0  0  0  0
   15.1742    0.8235   21.7081 H   0  0  0  0  0  0  0  0  0  0  0  0
   15.6527    0.1184   23.2895 H   0  0  0  0  0  0  0  0  0  0  0  0
   14.6497   -0.8332   22.1655 H   0  0  0  0  0  0  0  0  0  0  0  0
    7.6077   -1.2085   21.6613 H   0  0  0  0  0  0  0  0  0  0  0  0
    8.8716   -1.4650   20.4448 H   0  0  0  0  0  0  0  0  0  0  0  0
    9.7196    1.2411   24.6301 H   0  0  0  0  0  0  0  0  0  0  0  0
    9.7392    2.2326   23.1712 H   0  0  0  0  0  0  0  0  0  0  0  0
    6.7270    0.4925   16.8305 H   0  0  0  0  0  0  0  0  0  0  0  0
  1  2  1  0  0  0  0
  1  3  2  0  0  0  0
  2  4  2  0  0  0  0
  3 12  1  0  0  0  0
  4 15  1  0  0  0  0
  5  7  2  0  0  0  0
  5 16  1  0  0  0  0
  6  8  1  0  0  0  0
  6 16  2  0  0  0  0
  7 17  1  0  0  0  0
  8 17  2  0  0  0  0
  9 13  1  0  0  0  0
  9 27  2  0  0  0  0
 10 14  2  0  0  0  0
 10 28  1  0  0  0  0
 11 13  2  0  0  0  0
 11 29  1  0  0  0  0
 12 14  1  0  0  0  0
 12 15  2  0  0  0  0
 13 26  1  0  0  0  0
 14 25  1  0  0  0  0
 15 28  1  0  0  0  0
 16 30  1  0  0  0  0
 17 31  1  0  0  0  0
 18 20  1  0  0  0  0
 18 30  1  0  0  0  0
 18 32  2  0  0  0  0
 19 25  1  0  0  0  0
 19 31  1  0  0  0  0
 19 33  2  0  0  0  0
 20 21  1  0  0  0  0
 21 22  1  0  0  0  0
 22 23  1  0  0  0  0
 23 30  1  0  0  0  0
 24 29  1  0  0  0  0
 26 31  1  0  0  0  0
 27 29  1  0  0  0  0
  1 34  1  0  0  0  0
  2 35  1  0  0  0  0
  3 36  1  0  0  0  0
  4 37  1  0  0  0  0
  5 38  1  0  0  0  0
  6 39  1  0  0  0  0
  7 40  1  0  0  0  0
  8 41  1  0  0  0  0
  9 42  1  0  0  0  0
 10 43  1  0  0  0  0
 11 44  1  0  0  0  0
 20 45  1  0  0  0  0
 20 46  1  0  0  0  0
 21 47  1  0  0  0  0
 21 48  1  0  0  0  0
 22 49  1  0  0  0  0
 22 50  1  0  0  0  0
 23 51  1  0  0  0  0
 23 52  1  0  0  0  0
 24 53  1  0  0  0  0
 24 54  1  0  0  0  0
 24 55  1  0  0  0  0
 25 56  1  0  0  0  0
 25 57  1  0  0  0  0
 26 58  1  0  0  0  0
 26 59  1  0  0  0  0
 28 60  1  0  0  0  0
M  END
> <clash_score>
0.7511157169214829

> <docking_score>
-7.858160972595215

> <overlap_score>
0.9925183653831482

$$$$
BENZO_472_1
  -OEChem-08232013473D

 56 60  0     0  0  0  0  0  0999 V2000
    4.2750    1.7050   20.8490 C   0  0  0  0  0  0  0  0  0  0  0  0
    3.9160    2.0630   19.5520 C   0  0  0  0  0  0  0  0  0  0  0  0
    5.4210    0.9600   21.0930 C   0  0  0  0  0  0  0  0  0  0  0  0
    4.6890    1.6810   18.4640 C   0  0  0  0  0  0  0  0  0  0  0  0
    8.9960   -2.3380   25.5320 C   0  0  0  0  0  0  0  0  0  0  0  0
    9.6730   -3.4710   23.5300 C   0  0  0  0  0  0  0  0  0  0  0  0
    9.0720   -1.1280   24.8640 C   0  0  0  0  0  0  0  0  0  0  0  0
    9.7200   -2.2600   22.8630 C   0  0  0  0  0  0  0  0  0  0  0  0
   12.4440    2.3610   23.6471 C   0  0  0  0  0  0  0  0  0  0  0  0
    7.6390   -0.2680   18.5410 C   0  0  0  0  0  0  0  0  0  0  0  0
   13.7771    2.0160   23.6093 C   0  0  0  0  0  0  0  0  0  0  0  0
   12.3094    0.0456   23.4948 C   0  0  0  0  0  0  0  0  0  0  0  0
    6.1790    0.5730   19.9990 C   0  0  0  0  0  0  0  0  0  0  0  0
   11.5937    1.2196   23.5810 C   0  0  0  0  0  0  0  0  0  0  0  0
    7.3170   -0.1610   19.8550 C   0  0  0  0  0  0  0  0  0  0  0  0
    5.8300    0.9190   18.6970 C   0  0  0  0  0  0  0  0  0  0  0  0
    9.3070   -3.5340   24.8780 C   0  0  0  0  0  0  0  0  0  0  0  0
    9.3350   -1.0880   23.5010 C   0  0  0  0  0  0  0  0  0  0  0  0
    9.0420    0.3700   21.5280 C   0  0  0  0  0  0  0  0  0  0  0  0
   10.0771   -5.0255   26.7193 C   0  0  0  0  0  0  0  0  0  0  0  0
    8.0926   -5.6195   25.4071 C   0  0  0  0  0  0  0  0  0  0  0  0
    9.1933   -4.9427   27.9592 C   0  0  0  0  0  0  0  0  0  0  0  0
    7.2756   -5.5290   26.6968 C   0  0  0  0  0  0  0  0  0  0  0  0
    8.1890   -0.7180   20.8700 C   0  0  0  0  0  0  0  0  0  0  0  0
   10.0942    1.2904   23.6018 C   0  0  0  0  0  0  0  0  0  0  0  0
    6.7580    0.3810   17.8350 N   0  0  0  0  0  0  0  0  0  0  0  0
    9.2563   -4.7368   25.5413 N   0  0  0  0  0  0  0  0  0  0  0  0
    9.4560    0.1560   22.8130 N   0  0  0  0  0  0  0  0  0  0  0  0
    9.2690    1.4140   20.9380 O   0  0  0  0  0  0  0  0  0  0  0  0
    8.0883   -5.8458   27.8325 O   0  0  0  0  0  0  0  0  0  0  0  0
   13.9994    0.3220   23.4943 S   0  0  0  0  0  0  0  0  0  0  0  0
    3.6455    2.0160   21.6826 H   0  0  0  0  0  0  0  0  0  0  0  0
    3.0144    2.6518   19.3914 H   0  0  0  0  0  0  0  0  0  0  0  0
    5.6994    0.6999   22.1043 H   0  0  0  0  0  0  0  0  0  0  0  0
    4.4044    1.9727   17.4490 H   0  0  0  0  0  0  0  0  0  0  0  0
    8.6905   -2.3533   26.5810 H   0  0  0  0  0  0  0  0  0  0  0  0
    9.9266   -4.3896   22.9917 H   0  0  0  0  0  0  0  0  0  0  0  0
    8.9233   -0.1992   25.4231 H   0  0  0  0  0  0  0  0  0  0  0  0
   10.0650   -2.2330   21.8256 H   0  0  0  0  0  0  0  0  0  0  0  0
   12.0996    3.3850   23.7185 H   0  0  0  0  0  0  0  0  0  0  0  0
    8.4839   -0.7930   18.0639 H   0  0  0  0  0  0  0  0  0  0  0  0
   14.6312    2.6776   23.6429 H   0  0  0  0  0  0  0  0  0  0  0  0
   11.9248   -0.9629   23.4308 H   0  0  0  0  0  0  0  0  0  0  0  0
   10.9045   -4.3143   26.8097 H   0  0  0  0  0  0  0  0  0  0  0  0
   10.4942   -6.0352   26.6309 H   0  0  0  0  0  0  0  0  0  0  0  0
    8.4337   -6.6479   25.2595 H   0  0  0  0  0  0  0  0  0  0  0  0
    7.4706   -5.3291   24.5580 H   0  0  0  0  0  0  0  0  0  0  0  0
    9.7636   -5.2397   28.8419 H   0  0  0  0  0  0  0  0  0  0  0  0
    8.8237   -3.9268   28.1248 H   0  0  0  0  0  0  0  0  0  0  0  0
    6.8339   -4.5336   26.8232 H   0  0  0  0  0  0  0  0  0  0  0  0
    6.4550   -6.2521   26.6644 H   0  0  0  0  0  0  0  0  0  0  0  0
    7.6077   -1.2085   21.6613 H   0  0  0  0  0  0  0  0  0  0  0  0
    8.8716   -1.4650   20.4448 H   0  0  0  0  0  0  0  0  0  0  0  0
    9.7196    1.2411   24.6301 H   0  0  0  0  0  0  0  0  0  0  0  0
    9.7392    2.2326   23.1712 H   0  0  0  0  0  0  0  0  0  0  0  0
    6.7270    0.4925   16.8305 H   0  0  0  0  0  0  0  0  0  0  0  0
  1  2  1  0  0  0  0
  1  3  2  0  0  0  0
  2  4  2  0  0  0  0
  3 13  1  0  0  0  0
  4 16  1  0  0  0  0
  5  7  2  0  0  0  0
  5 17  1  0  0  0  0
  6  8  1  0  0  0  0
  6 17  2  0  0  0  0
  7 18  1  0  0  0  0
  8 18  2  0  0  0  0
  9 11  2  0  0  0  0
  9 14  1  0  0  0  0
 10 15  2  0  0  0  0
 10 26  1  0  0  0  0
 11 31  1  0  0  0  0
 12 14  2  0  0  0  0
 12 31  1  0  0  0  0
 13 15  1  0  0  0  0
 13 16  2  0  0  0  0
 14 25  1  0  0  0  0
 15 24  1  0  0  0  0
 16 26  1  0  0  0  0
 17 27  1  0  0  0  0
 18 28  1  0  0  0  0
 19 24  1  0  0  0  0
 19 28  1  0  0  0  0
 19 29  2  0  0  0  0
 20 22  1  0  0  0  0
 20 27  1  0  0  0  0
 21 23  1  0  0  0  0
 21 27  1  0  0  0  0
 22 30  1  0  0  0  0
 23 30  1  0  0  0  0
 25 28  1  0  0  0  0
  1 32  1  0  0  0  0
  2 33  1  0  0  0  0
  3 34  1  0  0  0  0
  4 35  1  0  0  0  0
  5 36  1  0  0  0  0
  6 37  1  0  0  0  0
  7 38  1  0  0  0  0
  8 39  1  0  0  0  0
  9 40  1  0  0  0  0
 10 41  1  0  0  0  0
 11 42  1  0  0  0  0
 12 43  1  0  0  0  0
 20 44  1  0  0  0  0
 20 45  1  0  0  0  0
 21 46  1  0  0  0  0
 21 47  1  0  0  0  0
 22 48  1  0  0  0  0
 22 49  1  0  0  0  0
 23 50  1  0  0  0  0
 23 51  1  0  0  0  0
 24 52  1  0  0  0  0
 24 53  1  0  0  0  0
 25 54  1  0  0  0  0
 25 55  1  0  0  0  0
 26 56  1  0  0  0  0
M  END
> <clash_score>
0

> <docking_score>
-8.248506546020508

> <overlap_score>
0.9819899797439575

$$$$
BENZO_476_1
  -OEChem-08232013473D

 49 52  0     0  0  0  0  0  0999 V2000
    9.0720   -1.1280   24.8640 C   0  0  0  0  0  0  0  0  0  0  0  0
    9.7200   -2.2600   22.8630 C   0  0  0  0  0  0  0  0  0  0  0  0
    8.9960   -2.3380   25.5320 C   0  0  0  0  0  0  0  0  0  0  0  0
    9.6730   -3.4710   23.5300 C   0  0  0  0  0  0  0  0  0  0  0  0
   12.4514    2.3448   23.6450 C   0  0  0  0  0  0  0  0  0  0  0  0
   13.7820    1.9908   23.6050 C   0  0  0  0  0  0  0  0  0  0  0  0
   12.3007    0.0306   23.4906 C   0  0  0  0  0  0  0  0  0  0  0  0
   11.5932    1.2094   23.5789 C   0  0  0  0  0  0  0  0  0  0  0  0
    9.3350   -1.0880   23.5010 C   0  0  0  0  0  0  0  0  0  0  0  0
    9.3070   -3.5340   24.8780 C   0  0  0  0  0  0  0  0  0  0  0  0
    5.8300    0.9190   18.6970 C   0  0  0  0  0  0  0  0  0  0  0  0
    7.3170   -0.1610   19.8550 C   0  0  0  0  0  0  0  0  0  0  0  0
    4.6890    1.6810   18.4640 C   0  0  0  0  0  0  0  0  0  0  0  0
    3.9160    2.0630   19.5520 C   0  0  0  0  0  0  0  0  0  0  0  0
    4.2750    1.7050   20.8490 C   0  0  0  0  0  0  0  0  0  0  0  0
    5.4210    0.9600   21.0930 C   0  0  0  0  0  0  0  0  0  0  0  0
    9.0420    0.3700   21.5280 C   0  0  0  0  0  0  0  0  0  0  0  0
    8.0128   -5.2151   26.1416 C   0  0  0  0  0  0  0  0  0  0  0  0
   10.4372   -5.5860   25.6589 C   0  0  0  0  0  0  0  0  0  0  0  0
   10.0942    1.2904   23.6018 C   0  0  0  0  0  0  0  0  0  0  0  0
    8.1890   -0.7180   20.8700 C   0  0  0  0  0  0  0  0  0  0  0  0
    6.7580    0.3810   17.8350 N   0  0  0  0  0  0  0  0  0  0  0  0
    7.6390   -0.2680   18.5410 N   0  0  0  0  0  0  0  0  0  0  0  0
    6.1790    0.5730   19.9990 N   0  0  0  0  0  0  0  0  0  0  0  0
    9.4560    0.1560   22.8130 N   0  0  0  0  0  0  0  0  0  0  0  0
    9.2543   -4.7552   25.5519 N   0  0  0  0  0  0  0  0  0  0  0  0
    9.2690    1.4140   20.9380 O   0  0  0  0  0  0  0  0  0  0  0  0
   13.9925    0.2954   23.4880 S   0  0  0  0  0  0  0  0  0  0  0  0
    8.9217   -0.1995   25.4232 H   0  0  0  0  0  0  0  0  0  0  0  0
   10.0643   -2.2341   21.8254 H   0  0  0  0  0  0  0  0  0  0  0  0
    8.6893   -2.3540   26.5808 H   0  0  0  0  0  0  0  0  0  0  0  0
    9.9257   -4.3898   22.9921 H   0  0  0  0  0  0  0  0  0  0  0  0
   12.1141    3.3711   23.7179 H   0  0  0  0  0  0  0  0  0  0  0  0
   14.6406    2.6465   23.6381 H   0  0  0  0  0  0  0  0  0  0  0  0
   11.9091   -0.9752   23.4261 H   0  0  0  0  0  0  0  0  0  0  0  0
    4.3966    1.9781   17.4720 H   0  0  0  0  0  0  0  0  0  0  0  0
    3.0227    2.6498   19.3695 H   0  0  0  0  0  0  0  0  0  0  0  0
    3.6570    2.0037   21.7071 H   0  0  0  0  0  0  0  0  0  0  0  0
    5.7202    0.6868   22.0802 H   0  0  0  0  0  0  0  0  0  0  0  0
    8.1744   -6.1904   26.6238 H   0  0  0  0  0  0  0  0  0  0  0  0
    7.6718   -4.4870   26.8924 H   0  0  0  0  0  0  0  0  0  0  0  0
    7.2494   -5.3166   25.3561 H   0  0  0  0  0  0  0  0  0  0  0  0
   10.1946   -6.4996   26.2216 H   0  0  0  0  0  0  0  0  0  0  0  0
   10.7865   -5.8578   24.6518 H   0  0  0  0  0  0  0  0  0  0  0  0
   11.2285   -5.0312   26.1842 H   0  0  0  0  0  0  0  0  0  0  0  0
    9.7206    1.2426   24.6305 H   0  0  0  0  0  0  0  0  0  0  0  0
    9.7451    2.2354   23.1726 H   0  0  0  0  0  0  0  0  0  0  0  0
    7.6082   -1.2086   21.6619 H   0  0  0  0  0  0  0  0  0  0  0  0
    8.8721   -1.4652   20.4453 H   0  0  0  0  0  0  0  0  0  0  0  0
  1  3  2  0  0  0  0
  1  9  1  0  0  0  0
  2  4  1  0  0  0  0
  2  9  2  0  0  0  0
  3 10  1  0  0  0  0
  4 10  2  0  0  0  0
  5  6  2  0  0  0  0
  5  8  1  0  0  0  0
  6 28  1  0  0  0  0
  7  8  2  0  0  0  0
  7 28  1  0  0  0  0
  8 20  1  0  0  0  0
  9 25  1  0  0  0  0
 10 26  1  0  0  0  0
 11 13  1  0  0  0  0
 11 22  2  0  0  0  0
 11 24  1  0  0  0  0
 12 21  1  0  0  0  0
 12 23  2  0  0  0  0
 12 24  1  0  0  0  0
 13 14  2  0  0  0  0
 14 15  1  0  0  0  0
 15 16  2  0  0  0  0
 16 24  1  0  0  0  0
 17 21  1  0  0  0  0
 17 25  1  0  0  0  0
 17 27  2  0  0  0  0
 18 26  1  0  0  0  0
 19 26  1  0  0  0  0
 20 25  1  0  0  0  0
 22 23  1  0  0  0  0
  1 29  1  0  0  0  0
  2 30  1  0  0  0  0
  3 31  1  0  0  0  0
  4 32  1  0  0  0  0
  5 33  1  0  0  0  0
  6 34  1  0  0  0  0
  7 35  1  0  0  0  0
 13 36  1  0  0  0  0
 14 37  1  0  0  0  0
 15 38  1  0  0  0  0
 16 39  1  0  0  0  0
 18 40  1  0  0  0  0
 18 41  1  0  0  0  0
 18 42  1  0  0  0  0
 19 43  1  0  0  0  0
 19 44  1  0  0  0  0
 19 45  1  0  0  0  0
 20 46  1  0  0  0  0
 20 47  1  0  0  0  0
 21 48  1  0  0  0  0
 21 49  1  0  0  0  0
M  END
> <clash_score>
0

> <docking_score>
-9.460428237915039

> <overlap_score>
0.9692946672439575

$$$$
BENZO_474_1
  -OEChem-08232013473D

 59 63  0     0  0  0  0  0  0999 V2000
    4.2750    1.7050   20.8490 C   0  0  0  0  0  0  0  0  0  0  0  0
    3.9160    2.0630   19.5520 C   0  0  0  0  0  0  0  0  0  0  0  0
   13.7147    2.0302   22.7556 C   0  0  0  0  0  0  0  0  0  0  0  0
    5.4210    0.9600   21.0930 C   0  0  0  0  0  0  0  0  0  0  0  0
   12.3215    2.0947   22.7745 C   0  0  0  0  0  0  0  0  0  0  0  0
    4.6890    1.6810   18.4640 C   0  0  0  0  0  0  0  0  0  0  0  0
    8.9960   -2.3380   25.5320 C   0  0  0  0  0  0  0  0  0  0  0  0
    9.6730   -3.4710   23.5300 C   0  0  0  0  0  0  0  0  0  0  0  0
    9.0720   -1.1280   24.8640 C   0  0  0  0  0  0  0  0  0  0  0  0
    9.7200   -2.2600   22.8630 C   0  0  0  0  0  0  0  0  0  0  0  0
   14.3802    1.0906   23.5430 C   0  0  0  0  0  0  0  0  0  0  0  0
   12.2592    0.2800   24.3684 C   0  0  0  0  0  0  0  0  0  0  0  0
    7.6390   -0.2680   18.5410 C   0  0  0  0  0  0  0  0  0  0  0  0
    6.1790    0.5730   19.9990 C   0  0  0  0  0  0  0  0  0  0  0  0
   11.5937    1.2196   23.5810 C   0  0  0  0  0  0  0  0  0  0  0  0
    7.3170   -0.1610   19.8550 C   0  0  0  0  0  0  0  0  0  0  0  0
    5.8300    0.9190   18.6970 C   0  0  0  0  0  0  0  0  0  0  0  0
    9.3070   -3.5340   24.8780 C   0  0  0  0  0  0  0  0  0  0  0  0
    9.3350   -1.0880   23.5010 C   0  0  0  0  0  0  0  0  0  0  0  0
   13.6525    0.2156   24.3494 C   0  0  0  0  0  0  0  0  0  0  0  0
    9.0420    0.3700   21.5280 C   0  0  0  0  0  0  0  0  0  0  0  0
    9.5175   -4.8597   26.9771 C   0  0  0  0  0  0  0  0  0  0  0  0
    8.5165   -5.8725   24.9808 C   0  0  0  0  0  0  0  0  0  0  0  0
    8.1868   -5.0438   27.6987 C   0  0  0  0  0  0  0  0  0  0  0  0
    7.2200   -6.0346   25.7756 C   0  0  0  0  0  0  0  0  0  0  0  0
    8.1890   -0.7180   20.8700 C   0  0  0  0  0  0  0  0  0  0  0  0
   10.0942    1.2904   23.6018 C   0  0  0  0  0  0  0  0  0  0  0  0
    6.7580    0.3810   17.8350 N   0  0  0  0  0  0  0  0  0  0  0  0
    9.2563   -4.7368   25.5413 N   0  0  0  0  0  0  0  0  0  0  0  0
    9.4560    0.1560   22.8130 N   0  0  0  0  0  0  0  0  0  0  0  0
    9.2690    1.4140   20.9380 O   0  0  0  0  0  0  0  0  0  0  0  0
    7.4993   -6.1852   27.1720 O   0  0  0  0  0  0  0  0  0  0  0  0
   14.4742   -0.9427   25.3216 Cl  0  0  0  0  0  0  0  0  0  0  0  0
    3.6455    2.0160   21.6826 H   0  0  0  0  0  0  0  0  0  0  0  0
    3.0144    2.6518   19.3914 H   0  0  0  0  0  0  0  0  0  0  0  0
   14.2810    2.7119   22.1276 H   0  0  0  0  0  0  0  0  0  0  0  0
    5.6994    0.6999   22.1043 H   0  0  0  0  0  0  0  0  0  0  0  0
   11.8113    2.8300   22.1579 H   0  0  0  0  0  0  0  0  0  0  0  0
    4.4044    1.9727   17.4490 H   0  0  0  0  0  0  0  0  0  0  0  0
    8.6905   -2.3533   26.5810 H   0  0  0  0  0  0  0  0  0  0  0  0
    9.9266   -4.3896   22.9917 H   0  0  0  0  0  0  0  0  0  0  0  0
    8.9233   -0.1992   25.4231 H   0  0  0  0  0  0  0  0  0  0  0  0
   10.0650   -2.2330   21.8256 H   0  0  0  0  0  0  0  0  0  0  0  0
   15.4665    1.0520   23.5184 H   0  0  0  0  0  0  0  0  0  0  0  0
   11.6873   -0.4003   24.9951 H   0  0  0  0  0  0  0  0  0  0  0  0
    8.4839   -0.7930   18.0639 H   0  0  0  0  0  0  0  0  0  0  0  0
   10.0258   -3.9711   27.3648 H   0  0  0  0  0  0  0  0  0  0  0  0
   10.1569   -5.7319   27.1551 H   0  0  0  0  0  0  0  0  0  0  0  0
    9.1205   -6.7792   25.0739 H   0  0  0  0  0  0  0  0  0  0  0  0
    8.2824   -5.7116   23.9265 H   0  0  0  0  0  0  0  0  0  0  0  0
    8.3629   -5.2251   28.7611 H   0  0  0  0  0  0  0  0  0  0  0  0
    7.5530   -4.1569   27.6103 H   0  0  0  0  0  0  0  0  0  0  0  0
    6.5459   -5.1838   25.6221 H   0  0  0  0  0  0  0  0  0  0  0  0
    6.6947   -6.9354   25.4437 H   0  0  0  0  0  0  0  0  0  0  0  0
    7.6077   -1.2085   21.6613 H   0  0  0  0  0  0  0  0  0  0  0  0
    8.8716   -1.4650   20.4448 H   0  0  0  0  0  0  0  0  0  0  0  0
    9.7196    1.2411   24.6301 H   0  0  0  0  0  0  0  0  0  0  0  0
    9.7392    2.2326   23.1712 H   0  0  0  0  0  0  0  0  0  0  0  0
    6.7270    0.4925   16.8305 H   0  0  0  0  0  0  0  0  0  0  0  0
  1  2  1  0  0  0  0
  1  4  2  0  0  0  0
  2  6  2  0  0  0  0
  3  5  2  0  0  0  0
  3 11  1  0  0  0  0
  4 14  1  0  0  0  0
  5 15  1  0  0  0  0
  6 17  1  0  0  0  0
  7  9  2  0  0  0  0
  7 18  1  0  0  0  0
  8 10  1  0  0  0  0
  8 18  2  0  0  0  0
  9 19  1  0  0  0  0
 10 19  2  0  0  0  0
 11 20  2  0  0  0  0
 12 15  2  0  0  0  0
 12 20  1  0  0  0  0
 13 16  2  0  0  0  0
 13 28  1  0  0  0  0
 14 16  1  0  0  0  0
 14 17  2  0  0  0  0
 15 27  1  0  0  0  0
 16 26  1  0  0  0  0
 17 28  1  0  0  0  0
 18 29  1  0  0  0  0
 19 30  1  0  0  0  0
 20 33  1  0  0  0  0
 21 26  1  0  0  0  0
 21 30  1  0  0  0  0
 21 31  2  0  0  0  0
 22 24  1  0  0  0  0
 22 29  1  0  0  0  0
 23 25  1  0  0  0  0
 23 29  1  0  0  0  0
 24 32  1  0  0  0  0
 25 32  1  0  0  0  0
 27 30  1  0  0  0  0
  1 34  1  0  0  0  0
  2 35  1  0  0  0  0
  3 36  1  0  0  0  0
  4 37  1  0  0  0  0
  5 38  1  0  0  0  0
  6 39  1  0  0  0  0
  7 40  1  0  0  0  0
  8 41  1  0  0  0  0
  9 42  1  0  0  0  0
 10 43  1  0  0  0  0
 11 44  1  0  0  0  0
 12 45  1  0  0  0  0
 13 46  1  0  0  0  0
 22 47  1  0  0  0  0
 22 48  1  0  0  0  0
 23 49  1  0  0  0  0
 23 50  1  0  0  0  0
 24 51  1  0  0  0  0
 24 52  1  0  0  0  0
 25 53  1  0  0  0  0
 25 54  1  0  0  0  0
 26 55  1  0  0  0  0
 26 56  1  0  0  0  0
 27 57  1  0  0  0  0
 27 58  1  0  0  0  0
 28 59  1  0  0  0  0
M  END
> <clash_score>
0.7279710153006757

> <docking_score>
-7.740257740020752

> <overlap_score>
0.9987846612930298

$$$$
BENZO_477_1
  -OEChem-08232013473D

 52 55  0     0  0  0  0  0  0999 V2000
   14.3785    1.0591   23.5348 C   0  0  0  0  0  0  0  0  0  0  0  0
   13.6612    0.4153   24.5431 C   0  0  0  0  0  0  0  0  0  0  0  0
   13.7032    1.7782   22.5486 C   0  0  0  0  0  0  0  0  0  0  0  0
   12.2686    0.4903   24.5651 C   0  0  0  0  0  0  0  0  0  0  0  0
   12.3105    1.8533   22.5706 C   0  0  0  0  0  0  0  0  0  0  0  0
    9.0720   -1.1280   24.8640 C   0  0  0  0  0  0  0  0  0  0  0  0
    9.7200   -2.2600   22.8630 C   0  0  0  0  0  0  0  0  0  0  0  0
    8.9960   -2.3380   25.5320 C   0  0  0  0  0  0  0  0  0  0  0  0
    9.6730   -3.4710   23.5300 C   0  0  0  0  0  0  0  0  0  0  0  0
   11.5932    1.2094   23.5789 C   0  0  0  0  0  0  0  0  0  0  0  0
    9.3350   -1.0880   23.5010 C   0  0  0  0  0  0  0  0  0  0  0  0
    9.3070   -3.5340   24.8780 C   0  0  0  0  0  0  0  0  0  0  0  0
    5.8300    0.9190   18.6970 C   0  0  0  0  0  0  0  0  0  0  0  0
    7.3170   -0.1610   19.8550 C   0  0  0  0  0  0  0  0  0  0  0  0
    4.6890    1.6810   18.4640 C   0  0  0  0  0  0  0  0  0  0  0  0
    3.9160    2.0630   19.5520 C   0  0  0  0  0  0  0  0  0  0  0  0
    4.2750    1.7050   20.8490 C   0  0  0  0  0  0  0  0  0  0  0  0
    5.4210    0.9600   21.0930 C   0  0  0  0  0  0  0  0  0  0  0  0
    9.0420    0.3700   21.5280 C   0  0  0  0  0  0  0  0  0  0  0  0
    8.8742   -4.8064   26.9496 C   0  0  0  0  0  0  0  0  0  0  0  0
    9.5655   -5.9897   24.8591 C   0  0  0  0  0  0  0  0  0  0  0  0
   10.0942    1.2904   23.6018 C   0  0  0  0  0  0  0  0  0  0  0  0
    8.1890   -0.7180   20.8700 C   0  0  0  0  0  0  0  0  0  0  0  0
    6.7580    0.3810   17.8350 N   0  0  0  0  0  0  0  0  0  0  0  0
    7.6390   -0.2680   18.5410 N   0  0  0  0  0  0  0  0  0  0  0  0
    6.1790    0.5730   19.9990 N   0  0  0  0  0  0  0  0  0  0  0  0
    9.4560    0.1560   22.8130 N   0  0  0  0  0  0  0  0  0  0  0  0
    9.2543   -4.7552   25.5519 N   0  0  0  0  0  0  0  0  0  0  0  0
    9.2690    1.4140   20.9380 O   0  0  0  0  0  0  0  0  0  0  0  0
   15.4630    1.0017   23.5186 H   0  0  0  0  0  0  0  0  0  0  0  0
   14.1870   -0.1438   25.3116 H   0  0  0  0  0  0  0  0  0  0  0  0
   14.2614    2.2805   21.7642 H   0  0  0  0  0  0  0  0  0  0  0  0
   11.7179   -0.0147   25.3544 H   0  0  0  0  0  0  0  0  0  0  0  0
   11.7928    2.4156   21.7981 H   0  0  0  0  0  0  0  0  0  0  0  0
    8.9217   -0.1995   25.4232 H   0  0  0  0  0  0  0  0  0  0  0  0
   10.0643   -2.2341   21.8254 H   0  0  0  0  0  0  0  0  0  0  0  0
    8.6893   -2.3540   26.5808 H   0  0  0  0  0  0  0  0  0  0  0  0
    9.9257   -4.3898   22.9921 H   0  0  0  0  0  0  0  0  0  0  0  0
    4.3966    1.9781   17.4720 H   0  0  0  0  0  0  0  0  0  0  0  0
    3.0227    2.6498   19.3695 H   0  0  0  0  0  0  0  0  0  0  0  0
    3.6570    2.0037   21.7071 H   0  0  0  0  0  0  0  0  0  0  0  0
    5.7202    0.6868   22.0802 H   0  0  0  0  0  0  0  0  0  0  0  0
    8.8922   -5.8499   27.2971 H   0  0  0  0  0  0  0  0  0  0  0  0
    9.5819   -4.2099   27.5440 H   0  0  0  0  0  0  0  0  0  0  0  0
    7.8599   -4.3978   27.0688 H   0  0  0  0  0  0  0  0  0  0  0  0
    9.4682   -6.8360   25.5551 H   0  0  0  0  0  0  0  0  0  0  0  0
    8.8685   -6.1243   24.0189 H   0  0  0  0  0  0  0  0  0  0  0  0
   10.5961   -5.9459   24.4772 H   0  0  0  0  0  0  0  0  0  0  0  0
    9.7206    1.2426   24.6305 H   0  0  0  0  0  0  0  0  0  0  0  0
    9.7451    2.2354   23.1726 H   0  0  0  0  0  0  0  0  0  0  0  0
    7.6082   -1.2086   21.6619 H   0  0  0  0  0  0  0  0  0  0  0  0
    8.8721   -1.4652   20.4453 H   0  0  0  0  0  0  0  0  0  0  0  0
  1  2  1  0  0  0  0
  1  3  2  0  0  0  0
  2  4  2  0  0  0  0
  3  5  1  0  0  0  0
  4 10  1  0  0  0  0
  5 10  2  0  0  0  0
  6  8  2  0  0  0  0
  6 11  1  0  0  0  0
  7  9  1  0  0  0  0
  7 11  2  0  0  0  0
  8 12  1  0  0  0  0
  9 12  2  0  0  0  0
 10 22  1  0  0  0  0
 11 27  1  0  0  0  0
 12 28  1  0  0  0  0
 13 15  1  0  0  0  0
 13 24  2  0  0  0  0
 13 26  1  0  0  0  0
 14 23  1  0  0  0  0
 14 25  2  0  0  0  0
 14 26  1  0  0  0  0
 15 16  2  0  0  0  0
 16 17  1  0  0  0  0
 17 18  2  0  0  0  0
 18 26  1  0  0  0  0
 19 23  1  0  0  0  0
 19 27  1  0  0  0  0
 19 29  2  0  0  0  0
 20 28  1  0  0  0  0
 21 28  1  0  0  0  0
 22 27  1  0  0  0  0
 24 25  1  0  0  0  0
  1 30  1  0  0  0  0
  2 31  1  0  0  0  0
  3 32  1  0  0  0  0
  4 33  1  0  0  0  0
  5 34  1  0  0  0  0
  6 35  1  0  0  0  0
  7 36  1  0  0  0  0
  8 37  1  0  0  0  0
  9 38  1  0  0  0  0
 15 39  1  0  0  0  0
 16 40  1  0  0  0  0
 17 41  1  0  0  0  0
 18 42  1  0  0  0  0
 20 43  1  0  0  0  0
 20 44  1  0  0  0  0
 20 45  1  0  0  0  0
 21 46  1  0  0  0  0
 21 47  1  0  0  0  0
 21 48  1  0  0  0  0
 22 49  1  0  0  0  0
 22 50  1  0  0  0  0
 23 51  1  0  0  0  0
 23 52  1  0  0  0  0
M  END
> <clash_score>
0

> <docking_score>
-9.652247428894043

> <overlap_score>
0.982968270778656

$$$$
BENZO_475_1
  -OEChem-08232013473D

 59 63  0     0  0  0  0  0  0999 V2000
    4.2750    1.7050   20.8490 C   0  0  0  0  0  0  0  0  0  0  0  0
    3.9160    2.0630   19.5520 C   0  0  0  0  0  0  0  0  0  0  0  0
    5.4210    0.9600   21.0930 C   0  0  0  0  0  0  0  0  0  0  0  0
    4.6890    1.6810   18.4640 C   0  0  0  0  0  0  0  0  0  0  0  0
    8.9960   -2.3380   25.5320 C   0  0  0  0  0  0  0  0  0  0  0  0
    9.6730   -3.4710   23.5300 C   0  0  0  0  0  0  0  0  0  0  0  0
    9.0720   -1.1280   24.8640 C   0  0  0  0  0  0  0  0  0  0  0  0
    9.7200   -2.2600   22.8630 C   0  0  0  0  0  0  0  0  0  0  0  0
   12.4857    2.0141   22.8360 C   0  0  0  0  0  0  0  0  0  0  0  0
    7.6390   -0.2680   18.5410 C   0  0  0  0  0  0  0  0  0  0  0  0
   12.4036    0.3650   24.2882 C   0  0  0  0  0  0  0  0  0  0  0  0
    6.1790    0.5730   19.9990 C   0  0  0  0  0  0  0  0  0  0  0  0
   11.5937    1.2196   23.5810 C   0  0  0  0  0  0  0  0  0  0  0  0
    7.3170   -0.1610   19.8550 C   0  0  0  0  0  0  0  0  0  0  0  0
    5.8300    0.9190   18.6970 C   0  0  0  0  0  0  0  0  0  0  0  0
    9.3070   -3.5340   24.8780 C   0  0  0  0  0  0  0  0  0  0  0  0
    9.3350   -1.0880   23.5010 C   0  0  0  0  0  0  0  0  0  0  0  0
    9.0420    0.3700   21.5280 C   0  0  0  0  0  0  0  0  0  0  0  0
   10.0771   -5.0255   26.7193 C   0  0  0  0  0  0  0  0  0  0  0  0
    8.0926   -5.6195   25.4071 C   0  0  0  0  0  0  0  0  0  0  0  0
    9.1933   -4.9427   27.9592 C   0  0  0  0  0  0  0  0  0  0  0  0
    7.2756   -5.5290   26.6968 C   0  0  0  0  0  0  0  0  0  0  0  0
   14.8870    0.0600   24.4246 C   0  0  0  0  0  0  0  0  0  0  0  0
    8.1890   -0.7180   20.8700 C   0  0  0  0  0  0  0  0  0  0  0  0
   10.0942    1.2904   23.6018 C   0  0  0  0  0  0  0  0  0  0  0  0
   13.7644    1.6929   23.0502 N   0  0  0  0  0  0  0  0  0  0  0  0
    6.7580    0.3810   17.8350 N   0  0  0  0  0  0  0  0  0  0  0  0
   13.6818    0.6872   23.9378 N   0  0  0  0  0  0  0  0  0  0  0  0
    9.2563   -4.7368   25.5413 N   0  0  0  0  0  0  0  0  0  0  0  0
    9.4560    0.1560   22.8130 N   0  0  0  0  0  0  0  0  0  0  0  0
    9.2690    1.4140   20.9380 O   0  0  0  0  0  0  0  0  0  0  0  0
    8.0883   -5.8458   27.8325 O   0  0  0  0  0  0  0  0  0  0  0  0
    3.6455    2.0160   21.6826 H   0  0  0  0  0  0  0  0  0  0  0  0
    3.0144    2.6518   19.3914 H   0  0  0  0  0  0  0  0  0  0  0  0
    5.6994    0.6999   22.1043 H   0  0  0  0  0  0  0  0  0  0  0  0
    4.4044    1.9727   17.4490 H   0  0  0  0  0  0  0  0  0  0  0  0
    8.6905   -2.3533   26.5810 H   0  0  0  0  0  0  0  0  0  0  0  0
    9.9266   -4.3896   22.9917 H   0  0  0  0  0  0  0  0  0  0  0  0
    8.9233   -0.1992   25.4231 H   0  0  0  0  0  0  0  0  0  0  0  0
   10.0650   -2.2330   21.8256 H   0  0  0  0  0  0  0  0  0  0  0  0
   12.2598    2.8148   22.1461 H   0  0  0  0  0  0  0  0  0  0  0  0
    8.4839   -0.7930   18.0639 H   0  0  0  0  0  0  0  0  0  0  0  0
   12.1849   -0.4245   24.9944 H   0  0  0  0  0  0  0  0  0  0  0  0
   10.9045   -4.3143   26.8097 H   0  0  0  0  0  0  0  0  0  0  0  0
   10.4942   -6.0352   26.6309 H   0  0  0  0  0  0  0  0  0  0  0  0
    8.4337   -6.6479   25.2595 H   0  0  0  0  0  0  0  0  0  0  0  0
    7.4706   -5.3291   24.5580 H   0  0  0  0  0  0  0  0  0  0  0  0
    9.7636   -5.2397   28.8419 H   0  0  0  0  0  0  0  0  0  0  0  0
    8.8237   -3.9268   28.1248 H   0  0  0  0  0  0  0  0  0  0  0  0
    6.8339   -4.5336   26.8232 H   0  0  0  0  0  0  0  0  0  0  0  0
    6.4550   -6.2521   26.6644 H   0  0  0  0  0  0  0  0  0  0  0  0
   15.1274   -0.7720   23.7575 H   0  0  0  0  0  0  0  0  0  0  0  0
   15.7003    0.7910   24.4324 H   0  0  0  0  0  0  0  0  0  0  0  0
   14.7203   -0.3011   25.4433 H   0  0  0  0  0  0  0  0  0  0  0  0
    7.6077   -1.2085   21.6613 H   0  0  0  0  0  0  0  0  0  0  0  0
    8.8716   -1.4650   20.4448 H   0  0  0  0  0  0  0  0  0  0  0  0
    9.7196    1.2411   24.6301 H   0  0  0  0  0  0  0  0  0  0  0  0
    9.7392    2.2326   23.1712 H   0  0  0  0  0  0  0  0  0  0  0  0
    6.7270    0.4925   16.8305 H   0  0  0  0  0  0  0  0  0  0  0  0
  1  2  1  0  0  0  0
  1  3  2  0  0  0  0
  2  4  2  0  0  0  0
  3 12  1  0  0  0  0
  4 15  1  0  0  0  0
  5  7  2  0  0  0  0
  5 16  1  0  0  0  0
  6  8  1  0  0  0  0
  6 16  2  0  0  0  0
  7 17  1  0  0  0  0
  8 17  2  0  0  0  0
  9 13  1  0  0  0  0
  9 26  2  0  0  0  0
 10 14  2  0  0  0  0
 10 27  1  0  0  0  0
 11 13  2  0  0  0  0
 11 28  1  0  0  0  0
 12 14  1  0  0  0  0
 12 15  2  0  0  0  0
 13 25  1  0  0  0  0
 14 24  1  0  0  0  0
 15 27  1  0  0  0  0
 16 29  1  0  0  0  0
 17 30  1  0  0  0  0
 18 24  1  0  0  0  0
 18 30  1  0  0  0  0
 18 31  2  0  0  0  0
 19 21  1  0  0  0  0
 19 29  1  0  0  0  0
 20 22  1  0  0  0  0
 20 29  1  0  0  0  0
 21 32  1  0  0  0  0
 22 32  1  0  0  0  0
 23 28  1  0  0  0  0
 25 30  1  0  0  0  0
 26 28  1  0  0  0  0
  1 33  1  0  0  0  0
  2 34  1  0  0  0  0
  3 35  1  0  0  0  0
  4 36  1  0  0  0  0
  5 37  1  0  0  0  0
  6 38  1  0  0  0  0
  7 39  1  0  0  0  0
  8 40  1  0  0  0  0
  9 41  1  0  0  0  0
 10 42  1  0  0  0  0
 11 43  1  0  0  0  0
 19 44  1  0  0  0  0
 19 45  1  0  0  0  0
 20 46  1  0  0  0  0
 20 47  1  0  0  0  0
 21 48  1  0  0  0  0
 21 49  1  0  0  0  0
 22 50  1  0  0  0  0
 22 51  1  0  0  0  0
 23 52  1  0  0  0  0
 23 53  1  0  0  0  0
 23 54  1  0  0  0  0
 24 55  1  0  0  0  0
 24 56  1  0  0  0  0
 25 57  1  0  0  0  0
 25 58  1  0  0  0  0
 27 59  1  0  0  0  0
M  END
> <clash_score>
0

> <docking_score>
-8.532219886779785

> <overlap_score>
0.9921554923057556

$$$$
BENZO_478_1
  -OEChem-08232013473D

 52 55  0     0  0  0  0  0  0999 V2000
   13.7185    2.0062   22.7514 C   0  0  0  0  0  0  0  0  0  0  0  0
   12.3258    2.0802   22.7723 C   0  0  0  0  0  0  0  0  0  0  0  0
    9.0720   -1.1280   24.8640 C   0  0  0  0  0  0  0  0  0  0  0  0
    9.7200   -2.2600   22.8630 C   0  0  0  0  0  0  0  0  0  0  0  0
    8.9960   -2.3380   25.5320 C   0  0  0  0  0  0  0  0  0  0  0  0
    9.6730   -3.4710   23.5300 C   0  0  0  0  0  0  0  0  0  0  0  0
   14.3787    1.0613   23.5369 C   0  0  0  0  0  0  0  0  0  0  0  0
   12.2533    0.2645   24.3645 C   0  0  0  0  0  0  0  0  0  0  0  0
   11.5932    1.2094   23.5789 C   0  0  0  0  0  0  0  0  0  0  0  0
    9.3350   -1.0880   23.5010 C   0  0  0  0  0  0  0  0  0  0  0  0
    9.3070   -3.5340   24.8780 C   0  0  0  0  0  0  0  0  0  0  0  0
   13.6460    0.1905   24.3435 C   0  0  0  0  0  0  0  0  0  0  0  0
    5.8300    0.9190   18.6970 C   0  0  0  0  0  0  0  0  0  0  0  0
    7.3170   -0.1610   19.8550 C   0  0  0  0  0  0  0  0  0  0  0  0
    4.6890    1.6810   18.4640 C   0  0  0  0  0  0  0  0  0  0  0  0
    3.9160    2.0630   19.5520 C   0  0  0  0  0  0  0  0  0  0  0  0
    4.2750    1.7050   20.8490 C   0  0  0  0  0  0  0  0  0  0  0  0
    5.4210    0.9600   21.0930 C   0  0  0  0  0  0  0  0  0  0  0  0
    9.0420    0.3700   21.5280 C   0  0  0  0  0  0  0  0  0  0  0  0
    8.0128   -5.2151   26.1416 C   0  0  0  0  0  0  0  0  0  0  0  0
   10.4372   -5.5860   25.6589 C   0  0  0  0  0  0  0  0  0  0  0  0
   10.0942    1.2904   23.6018 C   0  0  0  0  0  0  0  0  0  0  0  0
    8.1890   -0.7180   20.8700 C   0  0  0  0  0  0  0  0  0  0  0  0
    6.7580    0.3810   17.8350 N   0  0  0  0  0  0  0  0  0  0  0  0
    7.6390   -0.2680   18.5410 N   0  0  0  0  0  0  0  0  0  0  0  0
    6.1790    0.5730   19.9990 N   0  0  0  0  0  0  0  0  0  0  0  0
    9.4560    0.1560   22.8130 N   0  0  0  0  0  0  0  0  0  0  0  0
    9.2543   -4.7552   25.5519 N   0  0  0  0  0  0  0  0  0  0  0  0
    9.2690    1.4140   20.9380 O   0  0  0  0  0  0  0  0  0  0  0  0
   14.4611   -0.9743   25.3134 Cl  0  0  0  0  0  0  0  0  0  0  0  0
   14.2887    2.6846   22.1233 H   0  0  0  0  0  0  0  0  0  0  0  0
   11.8198    2.8196   22.1570 H   0  0  0  0  0  0  0  0  0  0  0  0
    8.9217   -0.1995   25.4232 H   0  0  0  0  0  0  0  0  0  0  0  0
   10.0643   -2.2341   21.8254 H   0  0  0  0  0  0  0  0  0  0  0  0
    8.6893   -2.3540   26.5808 H   0  0  0  0  0  0  0  0  0  0  0  0
    9.9257   -4.3898   22.9921 H   0  0  0  0  0  0  0  0  0  0  0  0
   15.4646    1.0153   23.5108 H   0  0  0  0  0  0  0  0  0  0  0  0
   11.6775   -0.4126   24.9912 H   0  0  0  0  0  0  0  0  0  0  0  0
    4.3966    1.9781   17.4720 H   0  0  0  0  0  0  0  0  0  0  0  0
    3.0227    2.6498   19.3695 H   0  0  0  0  0  0  0  0  0  0  0  0
    3.6570    2.0037   21.7071 H   0  0  0  0  0  0  0  0  0  0  0  0
    5.7202    0.6868   22.0802 H   0  0  0  0  0  0  0  0  0  0  0  0
    8.1744   -6.1904   26.6238 H   0  0  0  0  0  0  0  0  0  0  0  0
    7.6718   -4.4870   26.8924 H   0  0  0  0  0  0  0  0  0  0  0  0
    7.2494   -5.3166   25.3561 H   0  0  0  0  0  0  0  0  0  0  0  0
   10.1946   -6.4996   26.2216 H   0  0  0  0  0  0  0  0  0  0  0  0
   10.7865   -5.8578   24.6518 H   0  0  0  0  0  0  0  0  0  0  0  0
   11.2285   -5.0312   26.1842 H   0  0  0  0  0  0  0  0  0  0  0  0
    9.7206    1.2426   24.6305 H   0  0  0  0  0  0  0  0  0  0  0  0
    9.7451    2.2354   23.1726 H   0  0  0  0  0  0  0  0  0  0  0  0
    7.6082   -1.2086   21.6619 H   0  0  0  0  0  0  0  0  0  0  0  0
    8.8721   -1.4652   20.4453 H   0  0  0  0  0  0  0  0  0  0  0  0
  1  2  2  0  0  0  0
  1  7  1  0  0  0  0
  2  9  1  0  0  0  0
  3  5  2  0  0  0  0
  3 10  1  0  0  0  0
  4  6  1  0  0  0  0
  4 10  2  0  0  0  0
  5 11  1  0  0  0  0
  6 11  2  0  0  0  0
  7 12  2  0  0  0  0
  8  9  2  0  0  0  0
  8 12  1  0  0  0  0
  9 22  1  0  0  0  0
 10 27  1  0  0  0  0
 11 28  1  0  0  0  0
 12 30  1  0  0  0  0
 13 15  1  0  0  0  0
 13 24  2  0  0  0  0
 13 26  1  0  0  0  0
 14 23  1  0  0  0  0
 14 25  2  0  0  0  0
 14 26  1  0  0  0  0
 15 16  2  0  0  0  0
 16 17  1  0  0  0  0
 17 18  2  0  0  0  0
 18 26  1  0  0  0  0
 19 23  1  0  0  0  0
 19 27  1  0  0  0  0
 19 29  2  0  0  0  0
 20 28  1  0  0  0  0
 21 28  1  0  0  0  0
 22 27  1  0  0  0  0
 24 25  1  0  0  0  0
  1 31  1  0  0  0  0
  2 32  1  0  0  0  0
  3 33  1  0  0  0  0
  4 34  1  0  0  0  0
  5 35  1  0  0  0  0
  6 36  1  0  0  0  0
  7 37  1  0  0  0  0
  8 38  1  0  0  0  0
 15 39  1  0  0  0  0
 16 40  1  0  0  0  0
 17 41  1  0  0  0  0
 18 42  1  0  0  0  0
 20 43  1  0  0  0  0
 20 44  1  0  0  0  0
 20 45  1  0  0  0  0
 21 46  1  0  0  0  0
 21 47  1  0  0  0  0
 21 48  1  0  0  0  0
 22 49  1  0  0  0  0
 22 50  1  0  0  0  0
 23 51  1  0  0  0  0
 23 52  1  0  0  0  0
M  END
> <clash_score>
0.7378218241428487

> <docking_score>
-8.993310928344727

> <overlap_score>
0.9823269248008728

$$$$
BENZO_479_1
  -OEChem-08232013473D

 52 55  0     0  0  0  0  0  0999 V2000
    9.0720   -1.1280   24.8640 C   0  0  0  0  0  0  0  0  0  0  0  0
    9.7200   -2.2600   22.8630 C   0  0  0  0  0  0  0  0  0  0  0  0
    8.9960   -2.3380   25.5320 C   0  0  0  0  0  0  0  0  0  0  0  0
    9.6730   -3.4710   23.5300 C   0  0  0  0  0  0  0  0  0  0  0  0
   12.4896    1.9984   22.8335 C   0  0  0  0  0  0  0  0  0  0  0  0
   12.3982    0.3485   24.2841 C   0  0  0  0  0  0  0  0  0  0  0  0
   11.5932    1.2094   23.5789 C   0  0  0  0  0  0  0  0  0  0  0  0
    9.3350   -1.0880   23.5010 C   0  0  0  0  0  0  0  0  0  0  0  0
    9.3070   -3.5340   24.8780 C   0  0  0  0  0  0  0  0  0  0  0  0
    5.8300    0.9190   18.6970 C   0  0  0  0  0  0  0  0  0  0  0  0
    7.3170   -0.1610   19.8550 C   0  0  0  0  0  0  0  0  0  0  0  0
    4.6890    1.6810   18.4640 C   0  0  0  0  0  0  0  0  0  0  0  0
    3.9160    2.0630   19.5520 C   0  0  0  0  0  0  0  0  0  0  0  0
    4.2750    1.7050   20.8490 C   0  0  0  0  0  0  0  0  0  0  0  0
    5.4210    0.9600   21.0930 C   0  0  0  0  0  0  0  0  0  0  0  0
    9.0420    0.3700   21.5280 C   0  0  0  0  0  0  0  0  0  0  0  0
   14.8796    0.0264   24.4169 C   0  0  0  0  0  0  0  0  0  0  0  0
    8.0128   -5.2151   26.1416 C   0  0  0  0  0  0  0  0  0  0  0  0
   10.4372   -5.5860   25.6589 C   0  0  0  0  0  0  0  0  0  0  0  0
   10.0942    1.2904   23.6018 C   0  0  0  0  0  0  0  0  0  0  0  0
    8.1890   -0.7180   20.8700 C   0  0  0  0  0  0  0  0  0  0  0  0
   13.7663    1.6683   23.0456 N   0  0  0  0  0  0  0  0  0  0  0  0
    6.7580    0.3810   17.8350 N   0  0  0  0  0  0  0  0  0  0  0  0
    7.6390   -0.2680   18.5410 N   0  0  0  0  0  0  0  0  0  0  0  0
   13.6780    0.6623   23.9323 N   0  0  0  0  0  0  0  0  0  0  0  0
    6.1790    0.5730   19.9990 N   0  0  0  0  0  0  0  0  0  0  0  0
    9.4560    0.1560   22.8130 N   0  0  0  0  0  0  0  0  0  0  0  0
    9.2543   -4.7552   25.5519 N   0  0  0  0  0  0  0  0  0  0  0  0
    9.2690    1.4140   20.9380 O   0  0  0  0  0  0  0  0  0  0  0  0
    8.9217   -0.1995   25.4232 H   0  0  0  0  0  0  0  0  0  0  0  0
   10.0643   -2.2341   21.8254 H   0  0  0  0  0  0  0  0  0  0  0  0
    8.6893   -2.3540   26.5808 H   0  0  0  0  0  0  0  0  0  0  0  0
    9.9257   -4.3898   22.9921 H   0  0  0  0  0  0  0  0  0  0  0  0
   12.2682    2.8014   22.1447 H   0  0  0  0  0  0  0  0  0  0  0  0
   12.1749   -0.4402   24.9898 H   0  0  0  0  0  0  0  0  0  0  0  0
    4.3966    1.9781   17.4720 H   0  0  0  0  0  0  0  0  0  0  0  0
    3.0227    2.6498   19.3695 H   0  0  0  0  0  0  0  0  0  0  0  0
    3.6570    2.0037   21.7071 H   0  0  0  0  0  0  0  0  0  0  0  0
    5.7202    0.6868   22.0802 H   0  0  0  0  0  0  0  0  0  0  0  0
   15.1133   -0.8066   23.7486 H   0  0  0  0  0  0  0  0  0  0  0  0
   15.6979    0.7518   24.4243 H   0  0  0  0  0  0  0  0  0  0  0  0
   14.7118   -0.3346   25.4354 H   0  0  0  0  0  0  0  0  0  0  0  0
    8.1744   -6.1904   26.6238 H   0  0  0  0  0  0  0  0  0  0  0  0
    7.6718   -4.4870   26.8924 H   0  0  0  0  0  0  0  0  0  0  0  0
    7.2494   -5.3166   25.3561 H   0  0  0  0  0  0  0  0  0  0  0  0
   10.1946   -6.4996   26.2216 H   0  0  0  0  0  0  0  0  0  0  0  0
   10.7865   -5.8578   24.6518 H   0  0  0  0  0  0  0  0  0  0  0  0
   11.2285   -5.0312   26.1842 H   0  0  0  0  0  0  0  0  0  0  0  0
    9.7206    1.2426   24.6305 H   0  0  0  0  0  0  0  0  0  0  0  0
    9.7451    2.2354   23.1726 H   0  0  0  0  0  0  0  0  0  0  0  0
    7.6082   -1.2086   21.6619 H   0  0  0  0  0  0  0  0  0  0  0  0
    8.8721   -1.4652   20.4453 H   0  0  0  0  0  0  0  0  0  0  0  0
  1  3  2  0  0  0  0
  1  8  1  0  0  0  0
  2  4  1  0  0  0  0
  2  8  2  0  0  0  0
  3  9  1  0  0  0  0
  4  9  2  0  0  0  0
  5  7  1  0  0  0  0
  5 22  2  0  0  0  0
  6  7  2  0  0  0  0
  6 25  1  0  0  0  0
  7 20  1  0  0  0  0
  8 27  1  0  0  0  0
  9 28  1  0  0  0  0
 10 12  1  0  0  0  0
 10 23  2  0  0  0  0
 10 26  1  0  0  0  0
 11 21  1  0  0  0  0
 11 24  2  0  0  0  0
 11 26  1  0  0  0  0
 12 13  2  0  0  0  0
 13 14  1  0  0  0  0
 14 15  2  0  0  0  0
 15 26  1  0  0  0  0
 16 21  1  0  0  0  0
 16 27  1  0  0  0  0
 16 29  2  0  0  0  0
 17 25  1  0  0  0  0
 18 28  1  0  0  0  0
 19 28  1  0  0  0  0
 20 27  1  0  0  0  0
 22 25  1  0  0  0  0
 23 24  1  0  0  0  0
  1 30  1  0  0  0  0
  2 31  1  0  0  0  0
  3 32  1  0  0  0  0
  4 33  1  0  0  0  0
  5 34  1  0  0  0  0
  6 35  1  0  0  0  0
 12 36  1  0  0  0  0
 13 37  1  0  0  0  0
 14 38  1  0  0  0  0
 15 39  1  0  0  0  0
 17 40  1  0  0  0  0
 17 41  1  0  0  0  0
 17 42  1  0  0  0  0
 18 43  1  0  0  0  0
 18 44  1  0  0  0  0
 18 45  1  0  0  0  0
 19 46  1  0  0  0  0
 19 47  1  0  0  0  0
 19 48  1  0  0  0  0
 20 49  1  0  0  0  0
 20 50  1  0  0  0  0
 21 51  1  0  0  0  0
 21 52  1  0  0  0  0
M  END
> <clash_score>
0

> <docking_score>
-9.703742980957031

> <overlap_score>
0.9793885350227356

$$$$
BENZO_481_1
  -OEChem-08232013473D

 54 57  0     0  0  0  0  0  0999 V2000
   14.3785    1.0591   23.5348 C   0  0  0  0  0  0  0  0  0  0  0  0
   13.6612    0.4153   24.5431 C   0  0  0  0  0  0  0  0  0  0  0  0
   13.7032    1.7782   22.5486 C   0  0  0  0  0  0  0  0  0  0  0  0
   12.2686    0.4903   24.5651 C   0  0  0  0  0  0  0  0  0  0  0  0
   12.3105    1.8533   22.5706 C   0  0  0  0  0  0  0  0  0  0  0  0
    8.9960   -2.3380   25.5320 C   0  0  0  0  0  0  0  0  0  0  0  0
    9.6730   -3.4710   23.5300 C   0  0  0  0  0  0  0  0  0  0  0  0
    9.0720   -1.1280   24.8640 C   0  0  0  0  0  0  0  0  0  0  0  0
    9.7200   -2.2600   22.8630 C   0  0  0  0  0  0  0  0  0  0  0  0
   11.5932    1.2094   23.5789 C   0  0  0  0  0  0  0  0  0  0  0  0
    9.3070   -3.5340   24.8780 C   0  0  0  0  0  0  0  0  0  0  0  0
    9.3350   -1.0880   23.5010 C   0  0  0  0  0  0  0  0  0  0  0  0
    5.8300    0.9190   18.6970 C   0  0  0  0  0  0  0  0  0  0  0  0
    7.3170   -0.1610   19.8550 C   0  0  0  0  0  0  0  0  0  0  0  0
    4.6890    1.6810   18.4640 C   0  0  0  0  0  0  0  0  0  0  0  0
    3.9160    2.0630   19.5520 C   0  0  0  0  0  0  0  0  0  0  0  0
    4.2750    1.7050   20.8490 C   0  0  0  0  0  0  0  0  0  0  0  0
    5.4210    0.9600   21.0930 C   0  0  0  0  0  0  0  0  0  0  0  0
    9.0420    0.3700   21.5280 C   0  0  0  0  0  0  0  0  0  0  0  0
    9.5333   -6.0236   25.0414 C   0  0  0  0  0  0  0  0  0  0  0  0
    7.9318   -7.6183   26.1806 C   0  0  0  0  0  0  0  0  0  0  0  0
   10.0942    1.2904   23.6018 C   0  0  0  0  0  0  0  0  0  0  0  0
    8.1890   -0.7180   20.8700 C   0  0  0  0  0  0  0  0  0  0  0  0
    9.3522   -7.0865   26.1149 C   0  0  0  0  0  0  0  0  0  0  0  0
    6.7580    0.3810   17.8350 N   0  0  0  0  0  0  0  0  0  0  0  0
    7.6390   -0.2680   18.5410 N   0  0  0  0  0  0  0  0  0  0  0  0
    6.1790    0.5730   19.9990 N   0  0  0  0  0  0  0  0  0  0  0  0
    9.2546   -4.7422   25.5438 N   0  0  0  0  0  0  0  0  0  0  0  0
    9.4560    0.1560   22.8130 N   0  0  0  0  0  0  0  0  0  0  0  0
    9.2690    1.4140   20.9380 O   0  0  0  0  0  0  0  0  0  0  0  0
    9.8805   -6.3053   23.8992 O   0  0  0  0  0  0  0  0  0  0  0  0
   15.4630    1.0017   23.5186 H   0  0  0  0  0  0  0  0  0  0  0  0
   14.1870   -0.1438   25.3116 H   0  0  0  0  0  0  0  0  0  0  0  0
   14.2614    2.2805   21.7642 H   0  0  0  0  0  0  0  0  0  0  0  0
   11.7179   -0.0147   25.3544 H   0  0  0  0  0  0  0  0  0  0  0  0
   11.7928    2.4156   21.7981 H   0  0  0  0  0  0  0  0  0  0  0  0
    8.6895   -2.3529   26.5807 H   0  0  0  0  0  0  0  0  0  0  0  0
    9.9262   -4.3897   22.9916 H   0  0  0  0  0  0  0  0  0  0  0  0
    8.9224   -0.1998   25.4238 H   0  0  0  0  0  0  0  0  0  0  0  0
   10.0649   -2.2343   21.8258 H   0  0  0  0  0  0  0  0  0  0  0  0
    4.3966    1.9781   17.4720 H   0  0  0  0  0  0  0  0  0  0  0  0
    3.0227    2.6498   19.3695 H   0  0  0  0  0  0  0  0  0  0  0  0
    3.6570    2.0037   21.7071 H   0  0  0  0  0  0  0  0  0  0  0  0
    5.7202    0.6868   22.0802 H   0  0  0  0  0  0  0  0  0  0  0  0
    7.2195   -6.8130   26.3882 H   0  0  0  0  0  0  0  0  0  0  0  0
    7.8416   -8.3674   26.9733 H   0  0  0  0  0  0  0  0  0  0  0  0
    7.6429   -8.0860   25.2336 H   0  0  0  0  0  0  0  0  0  0  0  0
    9.7206    1.2426   24.6305 H   0  0  0  0  0  0  0  0  0  0  0  0
    9.7451    2.2354   23.1726 H   0  0  0  0  0  0  0  0  0  0  0  0
    7.6082   -1.2086   21.6619 H   0  0  0  0  0  0  0  0  0  0  0  0
    8.8721   -1.4652   20.4453 H   0  0  0  0  0  0  0  0  0  0  0  0
   10.0423   -7.9121   25.9063 H   0  0  0  0  0  0  0  0  0  0  0  0
    9.6252   -6.6522   27.0836 H   0  0  0  0  0  0  0  0  0  0  0  0
    8.9776   -4.7057   26.5317 H   0  0  0  0  0  0  0  0  0  0  0  0
  1  2  1  0  0  0  0
  1  3  2  0  0  0  0
  2  4  2  0  0  0  0
  3  5  1  0  0  0  0
  4 10  1  0  0  0  0
  5 10  2  0  0  0  0
  6  8  2  0  0  0  0
  6 11  1  0  0  0  0
  7  9  1  0  0  0  0
  7 11  2  0  0  0  0
  8 12  1  0  0  0  0
  9 12  2  0  0  0  0
 10 22  1  0  0  0  0
 11 28  1  0  0  0  0
 12 29  1  0  0  0  0
 13 15  1  0  0  0  0
 13 25  2  0  0  0  0
 13 27  1  0  0  0  0
 14 23  1  0  0  0  0
 14 26  2  0  0  0  0
 14 27  1  0  0  0  0
 15 16  2  0  0  0  0
 16 17  1  0  0  0  0
 17 18  2  0  0  0  0
 18 27  1  0  0  0  0
 19 23  1  0  0  0  0
 19 29  1  0  0  0  0
 19 30  2  0  0  0  0
 20 24  1  0  0  0  0
 20 28  1  0  0  0  0
 20 31  2  0  0  0  0
 21 24  1  0  0  0  0
 22 29  1  0  0  0  0
 25 26  1  0  0  0  0
  1 32  1  0  0  0  0
  2 33  1  0  0  0  0
  3 34  1  0  0  0  0
  4 35  1  0  0  0  0
  5 36  1  0  0  0  0
  6 37  1  0  0  0  0
  7 38  1  0  0  0  0
  8 39  1  0  0  0  0
  9 40  1  0  0  0  0
 15 41  1  0  0  0  0
 16 42  1  0  0  0  0
 17 43  1  0  0  0  0
 18 44  1  0  0  0  0
 21 45  1  0  0  0  0
 21 46  1  0  0  0  0
 21 47  1  0  0  0  0
 22 48  1  0  0  0  0
 22 49  1  0  0  0  0
 23 50  1  0  0  0  0
 23 51  1  0  0  0  0
 24 52  1  0  0  0  0
 24 53  1  0  0  0  0
 28 54  1  0  0  0  0
M  END
> <clash_score>
0.691441312652208

> <docking_score>
-6.7250752449035645

> <overlap_score>
0.9792370796203613

$$$$
BENZO_480_1
  -OEChem-08232013473D

 51 54  0     0  0  0  0  0  0999 V2000
    8.9960   -2.3380   25.5320 C   0  0  0  0  0  0  0  0  0  0  0  0
    9.6730   -3.4710   23.5300 C   0  0  0  0  0  0  0  0  0  0  0  0
    9.0720   -1.1280   24.8640 C   0  0  0  0  0  0  0  0  0  0  0  0
    9.7200   -2.2600   22.8630 C   0  0  0  0  0  0  0  0  0  0  0  0
   12.4514    2.3448   23.6450 C   0  0  0  0  0  0  0  0  0  0  0  0
   13.7820    1.9908   23.6050 C   0  0  0  0  0  0  0  0  0  0  0  0
   12.3007    0.0306   23.4906 C   0  0  0  0  0  0  0  0  0  0  0  0
   11.5932    1.2094   23.5789 C   0  0  0  0  0  0  0  0  0  0  0  0
    9.3070   -3.5340   24.8780 C   0  0  0  0  0  0  0  0  0  0  0  0
    9.3350   -1.0880   23.5010 C   0  0  0  0  0  0  0  0  0  0  0  0
    5.8300    0.9190   18.6970 C   0  0  0  0  0  0  0  0  0  0  0  0
    7.3170   -0.1610   19.8550 C   0  0  0  0  0  0  0  0  0  0  0  0
    4.6890    1.6810   18.4640 C   0  0  0  0  0  0  0  0  0  0  0  0
    3.9160    2.0630   19.5520 C   0  0  0  0  0  0  0  0  0  0  0  0
    4.2750    1.7050   20.8490 C   0  0  0  0  0  0  0  0  0  0  0  0
    5.4210    0.9600   21.0930 C   0  0  0  0  0  0  0  0  0  0  0  0
    9.0420    0.3700   21.5280 C   0  0  0  0  0  0  0  0  0  0  0  0
    9.5333   -6.0236   25.0414 C   0  0  0  0  0  0  0  0  0  0  0  0
   10.6329   -7.3747   26.8775 C   0  0  0  0  0  0  0  0  0  0  0  0
   10.0942    1.2904   23.6018 C   0  0  0  0  0  0  0  0  0  0  0  0
    8.1890   -0.7180   20.8700 C   0  0  0  0  0  0  0  0  0  0  0  0
    9.3522   -7.0865   26.1149 C   0  0  0  0  0  0  0  0  0  0  0  0
    6.7580    0.3810   17.8350 N   0  0  0  0  0  0  0  0  0  0  0  0
    7.6390   -0.2680   18.5410 N   0  0  0  0  0  0  0  0  0  0  0  0
    6.1790    0.5730   19.9990 N   0  0  0  0  0  0  0  0  0  0  0  0
    9.2546   -4.7422   25.5438 N   0  0  0  0  0  0  0  0  0  0  0  0
    9.4560    0.1560   22.8130 N   0  0  0  0  0  0  0  0  0  0  0  0
    9.2690    1.4140   20.9380 O   0  0  0  0  0  0  0  0  0  0  0  0
    9.8805   -6.3053   23.8992 O   0  0  0  0  0  0  0  0  0  0  0  0
   13.9925    0.2954   23.4880 S   0  0  0  0  0  0  0  0  0  0  0  0
    8.6895   -2.3529   26.5807 H   0  0  0  0  0  0  0  0  0  0  0  0
    9.9262   -4.3897   22.9916 H   0  0  0  0  0  0  0  0  0  0  0  0
    8.9224   -0.1998   25.4238 H   0  0  0  0  0  0  0  0  0  0  0  0
   10.0649   -2.2343   21.8258 H   0  0  0  0  0  0  0  0  0  0  0  0
   12.1141    3.3711   23.7179 H   0  0  0  0  0  0  0  0  0  0  0  0
   14.6406    2.6465   23.6381 H   0  0  0  0  0  0  0  0  0  0  0  0
   11.9091   -0.9752   23.4261 H   0  0  0  0  0  0  0  0  0  0  0  0
    4.3966    1.9781   17.4720 H   0  0  0  0  0  0  0  0  0  0  0  0
    3.0227    2.6498   19.3695 H   0  0  0  0  0  0  0  0  0  0  0  0
    3.6570    2.0037   21.7071 H   0  0  0  0  0  0  0  0  0  0  0  0
    5.7202    0.6868   22.0802 H   0  0  0  0  0  0  0  0  0  0  0  0
   11.4241   -7.7171   26.2024 H   0  0  0  0  0  0  0  0  0  0  0  0
   10.4628   -8.1531   27.6276 H   0  0  0  0  0  0  0  0  0  0  0  0
   10.9949   -6.4779   27.3911 H   0  0  0  0  0  0  0  0  0  0  0  0
    9.7206    1.2426   24.6305 H   0  0  0  0  0  0  0  0  0  0  0  0
    9.7451    2.2354   23.1726 H   0  0  0  0  0  0  0  0  0  0  0  0
    7.6082   -1.2086   21.6619 H   0  0  0  0  0  0  0  0  0  0  0  0
    8.8721   -1.4652   20.4453 H   0  0  0  0  0  0  0  0  0  0  0  0
    8.5795   -6.7462   26.8138 H   0  0  0  0  0  0  0  0  0  0  0  0
    8.9965   -8.0064   25.6368 H   0  0  0  0  0  0  0  0  0  0  0  0
    8.9776   -4.7057   26.5317 H   0  0  0  0  0  0  0  0  0  0  0  0
  1  3  2  0  0  0  0
  1  9  1  0  0  0  0
  2  4  1  0  0  0  0
  2  9  2  0  0  0  0
  3 10  1  0  0  0  0
  4 10  2  0  0  0  0
  5  6  2  0  0  0  0
  5  8  1  0  0  0  0
  6 30  1  0  0  0  0
  7  8  2  0  0  0  0
  7 30  1  0  0  0  0
  8 20  1  0  0  0  0
  9 26  1  0  0  0  0
 10 27  1  0  0  0  0
 11 13  1  0  0  0  0
 11 23  2  0  0  0  0
 11 25  1  0  0  0  0
 12 21  1  0  0  0  0
 12 24  2  0  0  0  0
 12 25  1  0  0  0  0
 13 14  2  0  0  0  0
 14 15  1  0  0  0  0
 15 16  2  0  0  0  0
 16 25  1  0  0  0  0
 17 21  1  0  0  0  0
 17 27  1  0  0  0  0
 17 28  2  0  0  0  0
 18 22  1  0  0  0  0
 18 26  1  0  0  0  0
 18 29  2  0  0  0  0
 19 22  1  0  0  0  0
 20 27  1  0  0  0  0
 23 24  1  0  0  0  0
  1 31  1  0  0  0  0
  2 32  1  0  0  0  0
  3 33  1  0  0  0  0
  4 34  1  0  0  0  0
  5 35  1  0  0  0  0
  6 36  1  0  0  0  0
  7 37  1  0  0  0  0
 13 38  1  0  0  0  0
 14 39  1  0  0  0  0
 15 40  1  0  0  0  0
 16 41  1  0  0  0  0
 19 42  1  0  0  0  0
 19 43  1  0  0  0  0
 19 44  1  0  0  0  0
 20 45  1  0  0  0  0
 20 46  1  0  0  0  0
 21 47  1  0  0  0  0
 21 48  1  0  0  0  0
 22 49  1  0  0  0  0
 22 50  1  0  0  0  0
 26 51  1  0  0  0  0
M  END
> <clash_score>
1.4986520705794621

> <docking_score>
-6.266149997711182

> <overlap_score>
0.9715466499328613

$$$$
BENZO_485_1
  -OEChem-08232013473D

 59 63  0     0  0  0  0  0  0999 V2000
   14.2737    1.3490   23.8824 C   0  0  0  0  0  0  0  0  0  0  0  0
   13.5272    0.6563   24.8356 C   0  0  0  0  0  0  0  0  0  0  0  0
   13.6277    2.0286   22.8497 C   0  0  0  0  0  0  0  0  0  0  0  0
   12.1346    0.6431   24.7559 C   0  0  0  0  0  0  0  0  0  0  0  0
   12.2352    2.0153   22.7700 C   0  0  0  0  0  0  0  0  0  0  0  0
    8.9960   -2.3380   25.5320 C   0  0  0  0  0  0  0  0  0  0  0  0
    9.6730   -3.4710   23.5300 C   0  0  0  0  0  0  0  0  0  0  0  0
    9.0720   -1.1280   24.8640 C   0  0  0  0  0  0  0  0  0  0  0  0
    9.7200   -2.2600   22.8630 C   0  0  0  0  0  0  0  0  0  0  0  0
   11.4886    1.3226   23.7231 C   0  0  0  0  0  0  0  0  0  0  0  0
    9.3070   -3.5340   24.8780 C   0  0  0  0  0  0  0  0  0  0  0  0
    9.3350   -1.0880   23.5010 C   0  0  0  0  0  0  0  0  0  0  0  0
    5.8300    0.9190   18.6970 C   0  0  0  0  0  0  0  0  0  0  0  0
    7.3170   -0.1610   19.8550 C   0  0  0  0  0  0  0  0  0  0  0  0
    4.6890    1.6810   18.4640 C   0  0  0  0  0  0  0  0  0  0  0  0
    3.9160    2.0630   19.5520 C   0  0  0  0  0  0  0  0  0  0  0  0
    4.2750    1.7050   20.8490 C   0  0  0  0  0  0  0  0  0  0  0  0
    5.4210    0.9600   21.0930 C   0  0  0  0  0  0  0  0  0  0  0  0
    9.0420    0.3700   21.5280 C   0  0  0  0  0  0  0  0  0  0  0  0
    7.3635   -6.1361   27.1888 C   0  0  0  0  0  0  0  0  0  0  0  0
    8.1961   -4.9735   27.7341 C   0  0  0  0  0  0  0  0  0  0  0  0
    7.1942   -6.0394   25.6709 C   0  0  0  0  0  0  0  0  0  0  0  0
    9.5196   -4.8490   26.9797 C   0  0  0  0  0  0  0  0  0  0  0  0
    8.5442   -5.8838   24.9639 C   0  0  0  0  0  0  0  0  0  0  0  0
    9.9898    1.3085   23.6366 C   0  0  0  0  0  0  0  0  0  0  0  0
    8.1890   -0.7180   20.8700 C   0  0  0  0  0  0  0  0  0  0  0  0
    6.7580    0.3810   17.8350 N   0  0  0  0  0  0  0  0  0  0  0  0
    7.6390   -0.2680   18.5410 N   0  0  0  0  0  0  0  0  0  0  0  0
    6.1790    0.5730   19.9990 N   0  0  0  0  0  0  0  0  0  0  0  0
    9.2562   -4.7384   25.5422 N   0  0  0  0  0  0  0  0  0  0  0  0
    9.4560    0.1560   22.8130 N   0  0  0  0  0  0  0  0  0  0  0  0
    9.2690    1.4140   20.9380 O   0  0  0  0  0  0  0  0  0  0  0  0
   15.3579    1.3604   23.9454 H   0  0  0  0  0  0  0  0  0  0  0  0
   14.0299    0.1281   25.6404 H   0  0  0  0  0  0  0  0  0  0  0  0
   14.2085    2.5689   22.1081 H   0  0  0  0  0  0  0  0  0  0  0  0
   11.5611    0.1005   25.5028 H   0  0  0  0  0  0  0  0  0  0  0  0
   11.7404    2.5475   21.9618 H   0  0  0  0  0  0  0  0  0  0  0  0
    8.6905   -2.3533   26.5810 H   0  0  0  0  0  0  0  0  0  0  0  0
    9.9266   -4.3896   22.9917 H   0  0  0  0  0  0  0  0  0  0  0  0
    8.9233   -0.1992   25.4231 H   0  0  0  0  0  0  0  0  0  0  0  0
   10.0650   -2.2330   21.8256 H   0  0  0  0  0  0  0  0  0  0  0  0
    4.3966    1.9781   17.4720 H   0  0  0  0  0  0  0  0  0  0  0  0
    3.0227    2.6498   19.3695 H   0  0  0  0  0  0  0  0  0  0  0  0
    3.6570    2.0037   21.7071 H   0  0  0  0  0  0  0  0  0  0  0  0
    5.7202    0.6868   22.0802 H   0  0  0  0  0  0  0  0  0  0  0  0
    7.8482   -7.0901   27.4469 H   0  0  0  0  0  0  0  0  0  0  0  0
    6.3760   -6.1438   27.6724 H   0  0  0  0  0  0  0  0  0  0  0  0
    7.6307   -4.0424   27.6403 H   0  0  0  0  0  0  0  0  0  0  0  0
    8.3915   -5.1310   28.7968 H   0  0  0  0  0  0  0  0  0  0  0  0
    6.6888   -6.9376   25.3010 H   0  0  0  0  0  0  0  0  0  0  0  0
    6.5515   -5.1859   25.4257 H   0  0  0  0  0  0  0  0  0  0  0  0
   10.0492   -3.9640   27.3414 H   0  0  0  0  0  0  0  0  0  0  0  0
   10.1431   -5.7254   27.1778 H   0  0  0  0  0  0  0  0  0  0  0  0
    9.1338   -6.7931   25.0868 H   0  0  0  0  0  0  0  0  0  0  0  0
    8.3656   -5.7264   23.8998 H   0  0  0  0  0  0  0  0  0  0  0  0
    9.5459    1.2490   24.6363 H   0  0  0  0  0  0  0  0  0  0  0  0
    9.6146    2.2245   23.1682 H   0  0  0  0  0  0  0  0  0  0  0  0
    7.5972   -1.2056   21.6500 H   0  0  0  0  0  0  0  0  0  0  0  0
    8.8612   -1.4622   20.4334 H   0  0  0  0  0  0  0  0  0  0  0  0
  1  2  1  0  0  0  0
  1  3  2  0  0  0  0
  2  4  2  0  0  0  0
  3  5  1  0  0  0  0
  4 10  1  0  0  0  0
  5 10  2  0  0  0  0
  6  8  2  0  0  0  0
  6 11  1  0  0  0  0
  7  9  1  0  0  0  0
  7 11  2  0  0  0  0
  8 12  1  0  0  0  0
  9 12  2  0  0  0  0
 10 25  1  0  0  0  0
 11 30  1  0  0  0  0
 12 31  1  0  0  0  0
 13 15  1  0  0  0  0
 13 27  2  0  0  0  0
 13 29  1  0  0  0  0
 14 26  1  0  0  0  0
 14 28  2  0  0  0  0
 14 29  1  0  0  0  0
 15 16  2  0  0  0  0
 16 17  1  0  0  0  0
 17 18  2  0  0  0  0
 18 29  1  0  0  0  0
 19 26  1  0  0  0  0
 19 31  1  0  0  0  0
 19 32  2  0  0  0  0
 20 21  1  0  0  0  0
 20 22  1  0  0  0  0
 21 23  1  0  0  0  0
 22 24  1  0  0  0  0
 23 30  1  0  0  0  0
 24 30  1  0  0  0  0
 25 31  1  0  0  0  0
 27 28  1  0  0  0  0
  1 33  1  0  0  0  0
  2 34  1  0  0  0  0
  3 35  1  0  0  0  0
  4 36  1  0  0  0  0
  5 37  1  0  0  0  0
  6 38  1  0  0  0  0
  7 39  1  0  0  0  0
  8 40  1  0  0  0  0
  9 41  1  0  0  0  0
 15 42  1  0  0  0  0
 16 43  1  0  0  0  0
 17 44  1  0  0  0  0
 18 45  1  0  0  0  0
 20 46  1  0  0  0  0
 20 47  1  0  0  0  0
 21 48  1  0  0  0  0
 21 49  1  0  0  0  0
 22 50  1  0  0  0  0
 22 51  1  0  0  0  0
 23 52  1  0  0  0  0
 23 53  1  0  0  0  0
 24 54  1  0  0  0  0
 24 55  1  0  0  0  0
 25 56  1  0  0  0  0
 25 57  1  0  0  0  0
 26 58  1  0  0  0  0
 26 59  1  0  0  0  0
M  END
> <clash_score>
0

> <docking_score>
-9.085162162780762

> <overlap_score>
0.9931350946426392

$$$$
BENZO_484_1
  -OEChem-08232013473D

 56 60  0     0  0  0  0  0  0999 V2000
    8.9960   -2.3380   25.5320 C   0  0  0  0  0  0  0  0  0  0  0  0
    9.6730   -3.4710   23.5300 C   0  0  0  0  0  0  0  0  0  0  0  0
    9.0720   -1.1280   24.8640 C   0  0  0  0  0  0  0  0  0  0  0  0
    9.7200   -2.2600   22.8630 C   0  0  0  0  0  0  0  0  0  0  0  0
   12.3492    1.3945   22.5898 C   0  0  0  0  0  0  0  0  0  0  0  0
   13.6791    1.3910   22.9490 C   0  0  0  0  0  0  0  0  0  0  0  0
   12.1936    1.2666   24.9054 C   0  0  0  0  0  0  0  0  0  0  0  0
   11.4886    1.3226   23.7231 C   0  0  0  0  0  0  0  0  0  0  0  0
    9.3070   -3.5340   24.8780 C   0  0  0  0  0  0  0  0  0  0  0  0
    9.3350   -1.0880   23.5010 C   0  0  0  0  0  0  0  0  0  0  0  0
    5.8300    0.9190   18.6970 C   0  0  0  0  0  0  0  0  0  0  0  0
    7.3170   -0.1610   19.8550 C   0  0  0  0  0  0  0  0  0  0  0  0
    4.6890    1.6810   18.4640 C   0  0  0  0  0  0  0  0  0  0  0  0
    3.9160    2.0630   19.5520 C   0  0  0  0  0  0  0  0  0  0  0  0
    4.2750    1.7050   20.8490 C   0  0  0  0  0  0  0  0  0  0  0  0
    5.4210    0.9600   21.0930 C   0  0  0  0  0  0  0  0  0  0  0  0
    9.0420    0.3700   21.5280 C   0  0  0  0  0  0  0  0  0  0  0  0
    7.2235   -6.6199   26.3009 C   0  0  0  0  0  0  0  0  0  0  0  0
    7.4293   -5.3101   27.0652 C   0  0  0  0  0  0  0  0  0  0  0  0
    7.7217   -6.5099   24.8580 C   0  0  0  0  0  0  0  0  0  0  0  0
    8.8782   -4.8357   26.9548 C   0  0  0  0  0  0  0  0  0  0  0  0
    9.1652   -6.0007   24.7995 C   0  0  0  0  0  0  0  0  0  0  0  0
    9.9898    1.3085   23.6366 C   0  0  0  0  0  0  0  0  0  0  0  0
    8.1890   -0.7180   20.8700 C   0  0  0  0  0  0  0  0  0  0  0  0
    6.7580    0.3810   17.8350 N   0  0  0  0  0  0  0  0  0  0  0  0
    7.6390   -0.2680   18.5410 N   0  0  0  0  0  0  0  0  0  0  0  0
    6.1790    0.5730   19.9990 N   0  0  0  0  0  0  0  0  0  0  0  0
    9.2562   -4.7384   25.5422 N   0  0  0  0  0  0  0  0  0  0  0  0
    9.4560    0.1560   22.8130 N   0  0  0  0  0  0  0  0  0  0  0  0
    9.2690    1.4140   20.9380 O   0  0  0  0  0  0  0  0  0  0  0  0
   13.8860    1.3012   24.6465 S   0  0  0  0  0  0  0  0  0  0  0  0
    8.6905   -2.3533   26.5810 H   0  0  0  0  0  0  0  0  0  0  0  0
    9.9266   -4.3896   22.9917 H   0  0  0  0  0  0  0  0  0  0  0  0
    8.9233   -0.1992   25.4231 H   0  0  0  0  0  0  0  0  0  0  0  0
   10.0650   -2.2330   21.8256 H   0  0  0  0  0  0  0  0  0  0  0  0
   12.0141    1.4459   21.5616 H   0  0  0  0  0  0  0  0  0  0  0  0
   14.5391    1.4362   22.2958 H   0  0  0  0  0  0  0  0  0  0  0  0
   11.7999    1.2059   25.9105 H   0  0  0  0  0  0  0  0  0  0  0  0
    4.3966    1.9781   17.4720 H   0  0  0  0  0  0  0  0  0  0  0  0
    3.0227    2.6498   19.3695 H   0  0  0  0  0  0  0  0  0  0  0  0
    3.6570    2.0037   21.7071 H   0  0  0  0  0  0  0  0  0  0  0  0
    5.7202    0.6868   22.0802 H   0  0  0  0  0  0  0  0  0  0  0  0
    7.7559   -7.4347   26.8149 H   0  0  0  0  0  0  0  0  0  0  0  0
    6.1572   -6.8883   26.3055 H   0  0  0  0  0  0  0  0  0  0  0  0
    6.7602   -4.5435   26.6651 H   0  0  0  0  0  0  0  0  0  0  0  0
    7.1684   -5.4551   28.1155 H   0  0  0  0  0  0  0  0  0  0  0  0
    7.6595   -7.4899   24.3736 H   0  0  0  0  0  0  0  0  0  0  0  0
    7.0706   -5.8317   24.2943 H   0  0  0  0  0  0  0  0  0  0  0  0
    8.9681   -3.8621   27.4435 H   0  0  0  0  0  0  0  0  0  0  0  0
    9.5387   -5.5390   27.4697 H   0  0  0  0  0  0  0  0  0  0  0  0
    9.8374   -6.7413   25.2344 H   0  0  0  0  0  0  0  0  0  0  0  0
    9.4414   -5.8515   23.7552 H   0  0  0  0  0  0  0  0  0  0  0  0
    9.5459    1.2490   24.6363 H   0  0  0  0  0  0  0  0  0  0  0  0
    9.6146    2.2245   23.1682 H   0  0  0  0  0  0  0  0  0  0  0  0
    7.5972   -1.2056   21.6500 H   0  0  0  0  0  0  0  0  0  0  0  0
    8.8612   -1.4622   20.4334 H   0  0  0  0  0  0  0  0  0  0  0  0
  1  3  2  0  0  0  0
  1  9  1  0  0  0  0
  2  4  1  0  0  0  0
  2  9  2  0  0  0  0
  3 10  1  0  0  0  0
  4 10  2  0  0  0  0
  5  6  2  0  0  0  0
  5  8  1  0  0  0  0
  6 31  1  0  0  0  0
  7  8  2  0  0  0  0
  7 31  1  0  0  0  0
  8 23  1  0  0  0  0
  9 28  1  0  0  0  0
 10 29  1  0  0  0  0
 11 13  1  0  0  0  0
 11 25  2  0  0  0  0
 11 27  1  0  0  0  0
 12 24  1  0  0  0  0
 12 26  2  0  0  0  0
 12 27  1  0  0  0  0
 13 14  2  0  0  0  0
 14 15  1  0  0  0  0
 15 16  2  0  0  0  0
 16 27  1  0  0  0  0
 17 24  1  0  0  0  0
 17 29  1  0  0  0  0
 17 30  2  0  0  0  0
 18 19  1  0  0  0  0
 18 20  1  0  0  0  0
 19 21  1  0  0  0  0
 20 22  1  0  0  0  0
 21 28  1  0  0  0  0
 22 28  1  0  0  0  0
 23 29  1  0  0  0  0
 25 26  1  0  0  0  0
  1 32  1  0  0  0  0
  2 33  1  0  0  0  0
  3 34  1  0  0  0  0
  4 35  1  0  0  0  0
  5 36  1  0  0  0  0
  6 37  1  0  0  0  0
  7 38  1  0  0  0  0
 13 39  1  0  0  0  0
 14 40  1  0  0  0  0
 15 41  1  0  0  0  0
 16 42  1  0  0  0  0
 18 43  1  0  0  0  0
 18 44  1  0  0  0  0
 19 45  1  0  0  0  0
 19 46  1  0  0  0  0
 20 47  1  0  0  0  0
 20 48  1  0  0  0  0
 21 49  1  0  0  0  0
 21 50  1  0  0  0  0
 22 51  1  0  0  0  0
 22 52  1  0  0  0  0
 23 53  1  0  0  0  0
 23 54  1  0  0  0  0
 24 55  1  0  0  0  0
 24 56  1  0  0  0  0
M  END
> <clash_score>
0

> <docking_score>
-9.003189086914062

> <overlap_score>
0.97699373960495

$$$$
BENZO_483_1
  -OEChem-08232013473D

 54 57  0     0  0  0  0  0  0999 V2000
    8.9960   -2.3380   25.5320 C   0  0  0  0  0  0  0  0  0  0  0  0
    9.6730   -3.4710   23.5300 C   0  0  0  0  0  0  0  0  0  0  0  0
    9.0720   -1.1280   24.8640 C   0  0  0  0  0  0  0  0  0  0  0  0
    9.7200   -2.2600   22.8630 C   0  0  0  0  0  0  0  0  0  0  0  0
   12.4896    1.9984   22.8335 C   0  0  0  0  0  0  0  0  0  0  0  0
   12.3982    0.3485   24.2841 C   0  0  0  0  0  0  0  0  0  0  0  0
   11.5932    1.2094   23.5789 C   0  0  0  0  0  0  0  0  0  0  0  0
    9.3070   -3.5340   24.8780 C   0  0  0  0  0  0  0  0  0  0  0  0
    9.3350   -1.0880   23.5010 C   0  0  0  0  0  0  0  0  0  0  0  0
    5.8300    0.9190   18.6970 C   0  0  0  0  0  0  0  0  0  0  0  0
    7.3170   -0.1610   19.8550 C   0  0  0  0  0  0  0  0  0  0  0  0
    4.6890    1.6810   18.4640 C   0  0  0  0  0  0  0  0  0  0  0  0
    3.9160    2.0630   19.5520 C   0  0  0  0  0  0  0  0  0  0  0  0
    4.2750    1.7050   20.8490 C   0  0  0  0  0  0  0  0  0  0  0  0
    5.4210    0.9600   21.0930 C   0  0  0  0  0  0  0  0  0  0  0  0
    9.0420    0.3700   21.5280 C   0  0  0  0  0  0  0  0  0  0  0  0
    9.5333   -6.0236   25.0414 C   0  0  0  0  0  0  0  0  0  0  0  0
   10.6329   -7.3747   26.8775 C   0  0  0  0  0  0  0  0  0  0  0  0
   14.8796    0.0264   24.4169 C   0  0  0  0  0  0  0  0  0  0  0  0
   10.0942    1.2904   23.6018 C   0  0  0  0  0  0  0  0  0  0  0  0
    8.1890   -0.7180   20.8700 C   0  0  0  0  0  0  0  0  0  0  0  0
    9.3522   -7.0865   26.1149 C   0  0  0  0  0  0  0  0  0  0  0  0
   13.7663    1.6683   23.0456 N   0  0  0  0  0  0  0  0  0  0  0  0
    6.7580    0.3810   17.8350 N   0  0  0  0  0  0  0  0  0  0  0  0
    7.6390   -0.2680   18.5410 N   0  0  0  0  0  0  0  0  0  0  0  0
   13.6780    0.6623   23.9323 N   0  0  0  0  0  0  0  0  0  0  0  0
    6.1790    0.5730   19.9990 N   0  0  0  0  0  0  0  0  0  0  0  0
    9.2546   -4.7422   25.5438 N   0  0  0  0  0  0  0  0  0  0  0  0
    9.4560    0.1560   22.8130 N   0  0  0  0  0  0  0  0  0  0  0  0
    9.2690    1.4140   20.9380 O   0  0  0  0  0  0  0  0  0  0  0  0
    9.8805   -6.3053   23.8992 O   0  0  0  0  0  0  0  0  0  0  0  0
    8.6895   -2.3529   26.5807 H   0  0  0  0  0  0  0  0  0  0  0  0
    9.9262   -4.3897   22.9916 H   0  0  0  0  0  0  0  0  0  0  0  0
    8.9224   -0.1998   25.4238 H   0  0  0  0  0  0  0  0  0  0  0  0
   10.0649   -2.2343   21.8258 H   0  0  0  0  0  0  0  0  0  0  0  0
   12.2682    2.8014   22.1447 H   0  0  0  0  0  0  0  0  0  0  0  0
   12.1749   -0.4402   24.9898 H   0  0  0  0  0  0  0  0  0  0  0  0
    4.3966    1.9781   17.4720 H   0  0  0  0  0  0  0  0  0  0  0  0
    3.0227    2.6498   19.3695 H   0  0  0  0  0  0  0  0  0  0  0  0
    3.6570    2.0037   21.7071 H   0  0  0  0  0  0  0  0  0  0  0  0
    5.7202    0.6868   22.0802 H   0  0  0  0  0  0  0  0  0  0  0  0
   11.4241   -7.7171   26.2024 H   0  0  0  0  0  0  0  0  0  0  0  0
   10.4628   -8.1531   27.6276 H   0  0  0  0  0  0  0  0  0  0  0  0
   10.9949   -6.4779   27.3911 H   0  0  0  0  0  0  0  0  0  0  0  0
   15.1133   -0.8066   23.7486 H   0  0  0  0  0  0  0  0  0  0  0  0
   15.6979    0.7518   24.4243 H   0  0  0  0  0  0  0  0  0  0  0  0
   14.7118   -0.3346   25.4354 H   0  0  0  0  0  0  0  0  0  0  0  0
    9.7206    1.2426   24.6305 H   0  0  0  0  0  0  0  0  0  0  0  0
    9.7451    2.2354   23.1726 H   0  0  0  0  0  0  0  0  0  0  0  0
    7.6082   -1.2086   21.6619 H   0  0  0  0  0  0  0  0  0  0  0  0
    8.8721   -1.4652   20.4453 H   0  0  0  0  0  0  0  0  0  0  0  0
    8.5795   -6.7462   26.8138 H   0  0  0  0  0  0  0  0  0  0  0  0
    8.9965   -8.0064   25.6368 H   0  0  0  0  0  0  0  0  0  0  0  0
    8.9776   -4.7057   26.5317 H   0  0  0  0  0  0  0  0  0  0  0  0
  1  3  2  0  0  0  0
  1  8  1  0  0  0  0
  2  4  1  0  0  0  0
  2  8  2  0  0  0  0
  3  9  1  0  0  0  0
  4  9  2  0  0  0  0
  5  7  1  0  0  0  0
  5 23  2  0  0  0  0
  6  7  2  0  0  0  0
  6 26  1  0  0  0  0
  7 20  1  0  0  0  0
  8 28  1  0  0  0  0
  9 29  1  0  0  0  0
 10 12  1  0  0  0  0
 10 24  2  0  0  0  0
 10 27  1  0  0  0  0
 11 21  1  0  0  0  0
 11 25  2  0  0  0  0
 11 27  1  0  0  0  0
 12 13  2  0  0  0  0
 13 14  1  0  0  0  0
 14 15  2  0  0  0  0
 15 27  1  0  0  0  0
 16 21  1  0  0  0  0
 16 29  1  0  0  0  0
 16 30  2  0  0  0  0
 17 22  1  0  0  0  0
 17 28  1  0  0  0  0
 17 31  2  0  0  0  0
 18 22  1  0  0  0  0
 19 26  1  0  0  0  0
 20 29  1  0  0  0  0
 23 26  1  0  0  0  0
 24 25  1  0  0  0  0
  1 32  1  0  0  0  0
  2 33  1  0  0  0  0
  3 34  1  0  0  0  0
  4 35  1  0  0  0  0
  5 36  1  0  0  0  0
  6 37  1  0  0  0  0
 12 38  1  0  0  0  0
 13 39  1  0  0  0  0
 14 40  1  0  0  0  0
 15 41  1  0  0  0  0
 18 42  1  0  0  0  0
 18 43  1  0  0  0  0
 18 44  1  0  0  0  0
 19 45  1  0  0  0  0
 19 46  1  0  0  0  0
 19 47  1  0  0  0  0
 20 48  1  0  0  0  0
 20 49  1  0  0  0  0
 21 50  1  0  0  0  0
 21 51  1  0  0  0  0
 22 52  1  0  0  0  0
 22 53  1  0  0  0  0
 28 54  1  0  0  0  0
M  END
> <clash_score>
1.4986520705794621

> <docking_score>
-6.509464263916016

> <overlap_score>
0.9816009402275085

$$$$
BENZO_482_1
  -OEChem-08232013473D

 54 57  0     0  0  0  0  0  0999 V2000
   13.7185    2.0062   22.7514 C   0  0  0  0  0  0  0  0  0  0  0  0
   12.3258    2.0802   22.7723 C   0  0  0  0  0  0  0  0  0  0  0  0
    8.9960   -2.3380   25.5320 C   0  0  0  0  0  0  0  0  0  0  0  0
    9.6730   -3.4710   23.5300 C   0  0  0  0  0  0  0  0  0  0  0  0
    9.0720   -1.1280   24.8640 C   0  0  0  0  0  0  0  0  0  0  0  0
    9.7200   -2.2600   22.8630 C   0  0  0  0  0  0  0  0  0  0  0  0
   14.3787    1.0613   23.5369 C   0  0  0  0  0  0  0  0  0  0  0  0
   12.2533    0.2645   24.3645 C   0  0  0  0  0  0  0  0  0  0  0  0
   11.5932    1.2094   23.5789 C   0  0  0  0  0  0  0  0  0  0  0  0
    9.3070   -3.5340   24.8780 C   0  0  0  0  0  0  0  0  0  0  0  0
    9.3350   -1.0880   23.5010 C   0  0  0  0  0  0  0  0  0  0  0  0
   13.6460    0.1905   24.3435 C   0  0  0  0  0  0  0  0  0  0  0  0
    5.8300    0.9190   18.6970 C   0  0  0  0  0  0  0  0  0  0  0  0
    7.3170   -0.1610   19.8550 C   0  0  0  0  0  0  0  0  0  0  0  0
    4.6890    1.6810   18.4640 C   0  0  0  0  0  0  0  0  0  0  0  0
    3.9160    2.0630   19.5520 C   0  0  0  0  0  0  0  0  0  0  0  0
    4.2750    1.7050   20.8490 C   0  0  0  0  0  0  0  0  0  0  0  0
    5.4210    0.9600   21.0930 C   0  0  0  0  0  0  0  0  0  0  0  0
    9.0420    0.3700   21.5280 C   0  0  0  0  0  0  0  0  0  0  0  0
    9.5333   -6.0236   25.0414 C   0  0  0  0  0  0  0  0  0  0  0  0
   10.6329   -7.3747   26.8775 C   0  0  0  0  0  0  0  0  0  0  0  0
   10.0942    1.2904   23.6018 C   0  0  0  0  0  0  0  0  0  0  0  0
    8.1890   -0.7180   20.8700 C   0  0  0  0  0  0  0  0  0  0  0  0
    9.3522   -7.0865   26.1149 C   0  0  0  0  0  0  0  0  0  0  0  0
    6.7580    0.3810   17.8350 N   0  0  0  0  0  0  0  0  0  0  0  0
    7.6390   -0.2680   18.5410 N   0  0  0  0  0  0  0  0  0  0  0  0
    6.1790    0.5730   19.9990 N   0  0  0  0  0  0  0  0  0  0  0  0
    9.2546   -4.7422   25.5438 N   0  0  0  0  0  0  0  0  0  0  0  0
    9.4560    0.1560   22.8130 N   0  0  0  0  0  0  0  0  0  0  0  0
    9.2690    1.4140   20.9380 O   0  0  0  0  0  0  0  0  0  0  0  0
    9.8805   -6.3053   23.8992 O   0  0  0  0  0  0  0  0  0  0  0  0
   14.4611   -0.9743   25.3134 Cl  0  0  0  0  0  0  0  0  0  0  0  0
   14.2887    2.6846   22.1233 H   0  0  0  0  0  0  0  0  0  0  0  0
   11.8198    2.8196   22.1570 H   0  0  0  0  0  0  0  0  0  0  0  0
    8.6895   -2.3529   26.5807 H   0  0  0  0  0  0  0  0  0  0  0  0
    9.9262   -4.3897   22.9916 H   0  0  0  0  0  0  0  0  0  0  0  0
    8.9224   -0.1998   25.4238 H   0  0  0  0  0  0  0  0  0  0  0  0
   10.0649   -2.2343   21.8258 H   0  0  0  0  0  0  0  0  0  0  0  0
   15.4646    1.0153   23.5108 H   0  0  0  0  0  0  0  0  0  0  0  0
   11.6775   -0.4126   24.9912 H   0  0  0  0  0  0  0  0  0  0  0  0
    4.3966    1.9781   17.4720 H   0  0  0  0  0  0  0  0  0  0  0  0
    3.0227    2.6498   19.3695 H   0  0  0  0  0  0  0  0  0  0  0  0
    3.6570    2.0037   21.7071 H   0  0  0  0  0  0  0  0  0  0  0  0
    5.7202    0.6868   22.0802 H   0  0  0  0  0  0  0  0  0  0  0  0
   11.4241   -7.7171   26.2024 H   0  0  0  0  0  0  0  0  0  0  0  0
   10.4628   -8.1531   27.6276 H   0  0  0  0  0  0  0  0  0  0  0  0
   10.9949   -6.4779   27.3911 H   0  0  0  0  0  0  0  0  0  0  0  0
    9.7206    1.2426   24.6305 H   0  0  0  0  0  0  0  0  0  0  0  0
    9.7451    2.2354   23.1726 H   0  0  0  0  0  0  0  0  0  0  0  0
    7.6082   -1.2086   21.6619 H   0  0  0  0  0  0  0  0  0  0  0  0
    8.8721   -1.4652   20.4453 H   0  0  0  0  0  0  0  0  0  0  0  0
    8.5795   -6.7462   26.8138 H   0  0  0  0  0  0  0  0  0  0  0  0
    8.9965   -8.0064   25.6368 H   0  0  0  0  0  0  0  0  0  0  0  0
    8.9776   -4.7057   26.5317 H   0  0  0  0  0  0  0  0  0  0  0  0
  1  2  2  0  0  0  0
  1  7  1  0  0  0  0
  2  9  1  0  0  0  0
  3  5  2  0  0  0  0
  3 10  1  0  0  0  0
  4  6  1  0  0  0  0
  4 10  2  0  0  0  0
  5 11  1  0  0  0  0
  6 11  2  0  0  0  0
  7 12  2  0  0  0  0
  8  9  2  0  0  0  0
  8 12  1  0  0  0  0
  9 22  1  0  0  0  0
 10 28  1  0  0  0  0
 11 29  1  0  0  0  0
 12 32  1  0  0  0  0
 13 15  1  0  0  0  0
 13 25  2  0  0  0  0
 13 27  1  0  0  0  0
 14 23  1  0  0  0  0
 14 26  2  0  0  0  0
 14 27  1  0  0  0  0
 15 16  2  0  0  0  0
 16 17  1  0  0  0  0
 17 18  2  0  0  0  0
 18 27  1  0  0  0  0
 19 23  1  0  0  0  0
 19 29  1  0  0  0  0
 19 30  2  0  0  0  0
 20 24  1  0  0  0  0
 20 28  1  0  0  0  0
 20 31  2  0  0  0  0
 21 24  1  0  0  0  0
 22 29  1  0  0  0  0
 25 26  1  0  0  0  0
  1 33  1  0  0  0  0
  2 34  1  0  0  0  0
  3 35  1  0  0  0  0
  4 36  1  0  0  0  0
  5 37  1  0  0  0  0
  6 38  1  0  0  0  0
  7 39  1  0  0  0  0
  8 40  1  0  0  0  0
 15 41  1  0  0  0  0
 16 42  1  0  0  0  0
 17 43  1  0  0  0  0
 18 44  1  0  0  0  0
 21 45  1  0  0  0  0
 21 46  1  0  0  0  0
 21 47  1  0  0  0  0
 22 48  1  0  0  0  0
 22 49  1  0  0  0  0
 23 50  1  0  0  0  0
 23 51  1  0  0  0  0
 24 52  1  0  0  0  0
 24 53  1  0  0  0  0
 28 54  1  0  0  0  0
M  END
> <clash_score>
2.2364738947223106

> <docking_score>
-5.7990336418151855

> <overlap_score>
0.9845269918441772

$$$$
BENZO_489_1
  -OEChem-08232013473D

 47 50  0     0  0  0  0  0  0999 V2000
   14.3785    1.0574   23.5366 C   0  0  0  0  0  0  0  0  0  0  0  0
   13.7492    2.2980   23.6387 C   0  0  0  0  0  0  0  0  0  0  0  0
   13.6151   -0.1073   23.4555 C   0  0  0  0  0  0  0  0  0  0  0  0
   12.3566    2.3740   23.6599 C   0  0  0  0  0  0  0  0  0  0  0  0
   12.2225   -0.0313   23.4767 C   0  0  0  0  0  0  0  0  0  0  0  0
    8.9960   -2.3380   25.5320 C   0  0  0  0  0  0  0  0  0  0  0  0
    9.6730   -3.4710   23.5300 C   0  0  0  0  0  0  0  0  0  0  0  0
    9.0720   -1.1280   24.8640 C   0  0  0  0  0  0  0  0  0  0  0  0
    9.7200   -2.2600   22.8630 C   0  0  0  0  0  0  0  0  0  0  0  0
    9.3070   -3.5340   24.8780 C   0  0  0  0  0  0  0  0  0  0  0  0
   11.5932    1.2094   23.5789 C   0  0  0  0  0  0  0  0  0  0  0  0
    9.3350   -1.0880   23.5010 C   0  0  0  0  0  0  0  0  0  0  0  0
    5.8300    0.9190   18.6970 C   0  0  0  0  0  0  0  0  0  0  0  0
    7.3170   -0.1610   19.8550 C   0  0  0  0  0  0  0  0  0  0  0  0
    4.6890    1.6810   18.4640 C   0  0  0  0  0  0  0  0  0  0  0  0
    3.9160    2.0630   19.5520 C   0  0  0  0  0  0  0  0  0  0  0  0
    4.2750    1.7050   20.8490 C   0  0  0  0  0  0  0  0  0  0  0  0
    5.4210    0.9600   21.0930 C   0  0  0  0  0  0  0  0  0  0  0  0
    9.0420    0.3700   21.5280 C   0  0  0  0  0  0  0  0  0  0  0  0
    9.2505   -4.8264   25.5904 C   0  0  0  0  0  0  0  0  0  0  0  0
   10.0942    1.2904   23.6018 C   0  0  0  0  0  0  0  0  0  0  0  0
    8.1890   -0.7180   20.8700 C   0  0  0  0  0  0  0  0  0  0  0  0
    6.7580    0.3810   17.8350 N   0  0  0  0  0  0  0  0  0  0  0  0
    7.6390   -0.2680   18.5410 N   0  0  0  0  0  0  0  0  0  0  0  0
    6.1790    0.5730   19.9990 N   0  0  0  0  0  0  0  0  0  0  0  0
    9.4560    0.1560   22.8130 N   0  0  0  0  0  0  0  0  0  0  0  0
    9.2690    1.4140   20.9380 O   0  0  0  0  0  0  0  0  0  0  0  0
   15.4628    0.9985   23.5188 H   0  0  0  0  0  0  0  0  0  0  0  0
   14.3434    3.2051   23.7008 H   0  0  0  0  0  0  0  0  0  0  0  0
   14.1047   -1.0732   23.3749 H   0  0  0  0  0  0  0  0  0  0  0  0
   11.8749    3.3450   23.7399 H   0  0  0  0  0  0  0  0  0  0  0  0
   11.6359   -0.9440   23.4132 H   0  0  0  0  0  0  0  0  0  0  0  0
    8.6919   -2.3557   26.5813 H   0  0  0  0  0  0  0  0  0  0  0  0
    9.9267   -4.3907   22.9939 H   0  0  0  0  0  0  0  0  0  0  0  0
    8.9217   -0.1995   25.4231 H   0  0  0  0  0  0  0  0  0  0  0  0
   10.0653   -2.2339   21.8256 H   0  0  0  0  0  0  0  0  0  0  0  0
    4.3966    1.9781   17.4720 H   0  0  0  0  0  0  0  0  0  0  0  0
    3.0227    2.6498   19.3695 H   0  0  0  0  0  0  0  0  0  0  0  0
    3.6570    2.0037   21.7071 H   0  0  0  0  0  0  0  0  0  0  0  0
    5.7202    0.6868   22.0802 H   0  0  0  0  0  0  0  0  0  0  0  0
    8.2503   -5.2678   25.5020 H   0  0  0  0  0  0  0  0  0  0  0  0
    9.9817   -5.5374   25.1845 H   0  0  0  0  0  0  0  0  0  0  0  0
    9.4841   -4.7043   26.6562 H   0  0  0  0  0  0  0  0  0  0  0  0
    9.7206    1.2426   24.6305 H   0  0  0  0  0  0  0  0  0  0  0  0
    9.7451    2.2354   23.1726 H   0  0  0  0  0  0  0  0  0  0  0  0
    7.6082   -1.2086   21.6619 H   0  0  0  0  0  0  0  0  0  0  0  0
    8.8721   -1.4652   20.4453 H   0  0  0  0  0  0  0  0  0  0  0  0
  1  2  1  0  0  0  0
  1  3  2  0  0  0  0
  2  4  2  0  0  0  0
  3  5  1  0  0  0  0
  4 11  1  0  0  0  0
  5 11  2  0  0  0  0
  6  8  2  0  0  0  0
  6 10  1  0  0  0  0
  7  9  1  0  0  0  0
  7 10  2  0  0  0  0
  8 12  1  0  0  0  0
  9 12  2  0  0  0  0
 10 20  1  0  0  0  0
 11 21  1  0  0  0  0
 12 26  1  0  0  0  0
 13 15  1  0  0  0  0
 13 23  2  0  0  0  0
 13 25  1  0  0  0  0
 14 22  1  0  0  0  0
 14 24  2  0  0  0  0
 14 25  1  0  0  0  0
 15 16  2  0  0  0  0
 16 17  1  0  0  0  0
 17 18  2  0  0  0  0
 18 25  1  0  0  0  0
 19 22  1  0  0  0  0
 19 26  1  0  0  0  0
 19 27  2  0  0  0  0
 21 26  1  0  0  0  0
 23 24  1  0  0  0  0
  1 28  1  0  0  0  0
  2 29  1  0  0  0  0
  3 30  1  0  0  0  0
  4 31  1  0  0  0  0
  5 32  1  0  0  0  0
  6 33  1  0  0  0  0
  7 34  1  0  0  0  0
  8 35  1  0  0  0  0
  9 36  1  0  0  0  0
 15 37  1  0  0  0  0
 16 38  1  0  0  0  0
 17 39  1  0  0  0  0
 18 40  1  0  0  0  0
 20 41  1  0  0  0  0
 20 42  1  0  0  0  0
 20 43  1  0  0  0  0
 21 44  1  0  0  0  0
 21 45  1  0  0  0  0
 22 46  1  0  0  0  0
 22 47  1  0  0  0  0
M  END
> <clash_score>
0

> <docking_score>
-8.027244567871094

> <overlap_score>
0.9422539472579956

$$$$
BENZO_488_1
  -OEChem-08232013473D

 44 47  0     0  0  0  0  0  0999 V2000
    8.9960   -2.3380   25.5320 C   0  0  0  0  0  0  0  0  0  0  0  0
    9.6730   -3.4710   23.5300 C   0  0  0  0  0  0  0  0  0  0  0  0
    9.0720   -1.1280   24.8640 C   0  0  0  0  0  0  0  0  0  0  0  0
    9.7200   -2.2600   22.8630 C   0  0  0  0  0  0  0  0  0  0  0  0
   12.4514    2.3448   23.6450 C   0  0  0  0  0  0  0  0  0  0  0  0
   13.7820    1.9908   23.6050 C   0  0  0  0  0  0  0  0  0  0  0  0
   12.3007    0.0306   23.4906 C   0  0  0  0  0  0  0  0  0  0  0  0
    9.3070   -3.5340   24.8780 C   0  0  0  0  0  0  0  0  0  0  0  0
   11.5932    1.2094   23.5789 C   0  0  0  0  0  0  0  0  0  0  0  0
    9.3350   -1.0880   23.5010 C   0  0  0  0  0  0  0  0  0  0  0  0
    5.8300    0.9190   18.6970 C   0  0  0  0  0  0  0  0  0  0  0  0
    7.3170   -0.1610   19.8550 C   0  0  0  0  0  0  0  0  0  0  0  0
    4.6890    1.6810   18.4640 C   0  0  0  0  0  0  0  0  0  0  0  0
    3.9160    2.0630   19.5520 C   0  0  0  0  0  0  0  0  0  0  0  0
    4.2750    1.7050   20.8490 C   0  0  0  0  0  0  0  0  0  0  0  0
    5.4210    0.9600   21.0930 C   0  0  0  0  0  0  0  0  0  0  0  0
    9.0420    0.3700   21.5280 C   0  0  0  0  0  0  0  0  0  0  0  0
    9.2505   -4.8264   25.5904 C   0  0  0  0  0  0  0  0  0  0  0  0
   10.0942    1.2904   23.6018 C   0  0  0  0  0  0  0  0  0  0  0  0
    8.1890   -0.7180   20.8700 C   0  0  0  0  0  0  0  0  0  0  0  0
    6.7580    0.3810   17.8350 N   0  0  0  0  0  0  0  0  0  0  0  0
    7.6390   -0.2680   18.5410 N   0  0  0  0  0  0  0  0  0  0  0  0
    6.1790    0.5730   19.9990 N   0  0  0  0  0  0  0  0  0  0  0  0
    9.4560    0.1560   22.8130 N   0  0  0  0  0  0  0  0  0  0  0  0
    9.2690    1.4140   20.9380 O   0  0  0  0  0  0  0  0  0  0  0  0
   13.9925    0.2954   23.4880 S   0  0  0  0  0  0  0  0  0  0  0  0
    8.6919   -2.3557   26.5813 H   0  0  0  0  0  0  0  0  0  0  0  0
    9.9267   -4.3907   22.9939 H   0  0  0  0  0  0  0  0  0  0  0  0
    8.9217   -0.1995   25.4231 H   0  0  0  0  0  0  0  0  0  0  0  0
   10.0653   -2.2339   21.8256 H   0  0  0  0  0  0  0  0  0  0  0  0
   12.1141    3.3711   23.7179 H   0  0  0  0  0  0  0  0  0  0  0  0
   14.6406    2.6465   23.6381 H   0  0  0  0  0  0  0  0  0  0  0  0
   11.9091   -0.9752   23.4261 H   0  0  0  0  0  0  0  0  0  0  0  0
    4.3966    1.9781   17.4720 H   0  0  0  0  0  0  0  0  0  0  0  0
    3.0227    2.6498   19.3695 H   0  0  0  0  0  0  0  0  0  0  0  0
    3.6570    2.0037   21.7071 H   0  0  0  0  0  0  0  0  0  0  0  0
    5.7202    0.6868   22.0802 H   0  0  0  0  0  0  0  0  0  0  0  0
    8.2503   -5.2678   25.5020 H   0  0  0  0  0  0  0  0  0  0  0  0
    9.9817   -5.5374   25.1845 H   0  0  0  0  0  0  0  0  0  0  0  0
    9.4841   -4.7043   26.6562 H   0  0  0  0  0  0  0  0  0  0  0  0
    9.7206    1.2426   24.6305 H   0  0  0  0  0  0  0  0  0  0  0  0
    9.7451    2.2354   23.1726 H   0  0  0  0  0  0  0  0  0  0  0  0
    7.6082   -1.2086   21.6619 H   0  0  0  0  0  0  0  0  0  0  0  0
    8.8721   -1.4652   20.4453 H   0  0  0  0  0  0  0  0  0  0  0  0
  1  3  2  0  0  0  0
  1  8  1  0  0  0  0
  2  4  1  0  0  0  0
  2  8  2  0  0  0  0
  3 10  1  0  0  0  0
  4 10  2  0  0  0  0
  5  6  2  0  0  0  0
  5  9  1  0  0  0  0
  6 26  1  0  0  0  0
  7  9  2  0  0  0  0
  7 26  1  0  0  0  0
  8 18  1  0  0  0  0
  9 19  1  0  0  0  0
 10 24  1  0  0  0  0
 11 13  1  0  0  0  0
 11 21  2  0  0  0  0
 11 23  1  0  0  0  0
 12 20  1  0  0  0  0
 12 22  2  0  0  0  0
 12 23  1  0  0  0  0
 13 14  2  0  0  0  0
 14 15  1  0  0  0  0
 15 16  2  0  0  0  0
 16 23  1  0  0  0  0
 17 20  1  0  0  0  0
 17 24  1  0  0  0  0
 17 25  2  0  0  0  0
 19 24  1  0  0  0  0
 21 22  1  0  0  0  0
  1 27  1  0  0  0  0
  2 28  1  0  0  0  0
  3 29  1  0  0  0  0
  4 30  1  0  0  0  0
  5 31  1  0  0  0  0
  6 32  1  0  0  0  0
  7 33  1  0  0  0  0
 13 34  1  0  0  0  0
 14 35  1  0  0  0  0
 15 36  1  0  0  0  0
 16 37  1  0  0  0  0
 18 38  1  0  0  0  0
 18 39  1  0  0  0  0
 18 40  1  0  0  0  0
 19 41  1  0  0  0  0
 19 42  1  0  0  0  0
 20 43  1  0  0  0  0
 20 44  1  0  0  0  0
M  END
> <clash_score>
0

> <docking_score>
-8.801229476928711

> <overlap_score>
0.9306130409240723

$$$$
BENZO_486_1
  -OEChem-08232013473D

 59 63  0     0  0  0  0  0  0999 V2000
   13.5386    0.4411   24.6489 C   0  0  0  0  0  0  0  0  0  0  0  0
   12.1462    0.4294   24.5690 C   0  0  0  0  0  0  0  0  0  0  0  0
    8.9960   -2.3380   25.5320 C   0  0  0  0  0  0  0  0  0  0  0  0
    9.6730   -3.4710   23.5300 C   0  0  0  0  0  0  0  0  0  0  0  0
    9.0720   -1.1280   24.8640 C   0  0  0  0  0  0  0  0  0  0  0  0
    9.7200   -2.2600   22.8630 C   0  0  0  0  0  0  0  0  0  0  0  0
   14.2736    1.3462   23.8831 C   0  0  0  0  0  0  0  0  0  0  0  0
   12.2236    2.2276   22.9572 C   0  0  0  0  0  0  0  0  0  0  0  0
   11.4886    1.3226   23.7231 C   0  0  0  0  0  0  0  0  0  0  0  0
    9.3070   -3.5340   24.8780 C   0  0  0  0  0  0  0  0  0  0  0  0
    9.3350   -1.0880   23.5010 C   0  0  0  0  0  0  0  0  0  0  0  0
   13.6161    2.2394   23.0373 C   0  0  0  0  0  0  0  0  0  0  0  0
    5.8300    0.9190   18.6970 C   0  0  0  0  0  0  0  0  0  0  0  0
    7.3170   -0.1610   19.8550 C   0  0  0  0  0  0  0  0  0  0  0  0
    4.6890    1.6810   18.4640 C   0  0  0  0  0  0  0  0  0  0  0  0
    3.9160    2.0630   19.5520 C   0  0  0  0  0  0  0  0  0  0  0  0
    4.2750    1.7050   20.8490 C   0  0  0  0  0  0  0  0  0  0  0  0
    5.4210    0.9600   21.0930 C   0  0  0  0  0  0  0  0  0  0  0  0
    9.0420    0.3700   21.5280 C   0  0  0  0  0  0  0  0  0  0  0  0
    7.3635   -6.1361   27.1888 C   0  0  0  0  0  0  0  0  0  0  0  0
    8.1961   -4.9735   27.7341 C   0  0  0  0  0  0  0  0  0  0  0  0
    7.1942   -6.0394   25.6709 C   0  0  0  0  0  0  0  0  0  0  0  0
    9.5196   -4.8490   26.9797 C   0  0  0  0  0  0  0  0  0  0  0  0
    8.5442   -5.8838   24.9639 C   0  0  0  0  0  0  0  0  0  0  0  0
    9.9898    1.3085   23.6366 C   0  0  0  0  0  0  0  0  0  0  0  0
    8.1890   -0.7180   20.8700 C   0  0  0  0  0  0  0  0  0  0  0  0
    6.7580    0.3810   17.8350 N   0  0  0  0  0  0  0  0  0  0  0  0
    7.6390   -0.2680   18.5410 N   0  0  0  0  0  0  0  0  0  0  0  0
    6.1790    0.5730   19.9990 N   0  0  0  0  0  0  0  0  0  0  0  0
    9.2562   -4.7384   25.5422 N   0  0  0  0  0  0  0  0  0  0  0  0
    9.4560    0.1560   22.8130 N   0  0  0  0  0  0  0  0  0  0  0  0
    9.2690    1.4140   20.9380 O   0  0  0  0  0  0  0  0  0  0  0  0
   14.5235    3.3549   22.0918 Cl  0  0  0  0  0  0  0  0  0  0  0  0
   14.0503   -0.2547   25.3076 H   0  0  0  0  0  0  0  0  0  0  0  0
   11.5816   -0.2793   25.1692 H   0  0  0  0  0  0  0  0  0  0  0  0
    8.6905   -2.3533   26.5810 H   0  0  0  0  0  0  0  0  0  0  0  0
    9.9266   -4.3896   22.9917 H   0  0  0  0  0  0  0  0  0  0  0  0
    8.9233   -0.1992   25.4231 H   0  0  0  0  0  0  0  0  0  0  0  0
   10.0650   -2.2330   21.8256 H   0  0  0  0  0  0  0  0  0  0  0  0
   15.3585    1.3438   23.9554 H   0  0  0  0  0  0  0  0  0  0  0  0
   11.7062    2.9223   22.2996 H   0  0  0  0  0  0  0  0  0  0  0  0
    4.3966    1.9781   17.4720 H   0  0  0  0  0  0  0  0  0  0  0  0
    3.0227    2.6498   19.3695 H   0  0  0  0  0  0  0  0  0  0  0  0
    3.6570    2.0037   21.7071 H   0  0  0  0  0  0  0  0  0  0  0  0
    5.7202    0.6868   22.0802 H   0  0  0  0  0  0  0  0  0  0  0  0
    7.8482   -7.0901   27.4469 H   0  0  0  0  0  0  0  0  0  0  0  0
    6.3760   -6.1438   27.6724 H   0  0  0  0  0  0  0  0  0  0  0  0
    7.6307   -4.0424   27.6403 H   0  0  0  0  0  0  0  0  0  0  0  0
    8.3915   -5.1310   28.7968 H   0  0  0  0  0  0  0  0  0  0  0  0
    6.6888   -6.9376   25.3010 H   0  0  0  0  0  0  0  0  0  0  0  0
    6.5515   -5.1859   25.4257 H   0  0  0  0  0  0  0  0  0  0  0  0
   10.0492   -3.9640   27.3414 H   0  0  0  0  0  0  0  0  0  0  0  0
   10.1431   -5.7254   27.1778 H   0  0  0  0  0  0  0  0  0  0  0  0
    9.1338   -6.7931   25.0868 H   0  0  0  0  0  0  0  0  0  0  0  0
    8.3656   -5.7264   23.8998 H   0  0  0  0  0  0  0  0  0  0  0  0
    9.5459    1.2490   24.6363 H   0  0  0  0  0  0  0  0  0  0  0  0
    9.6146    2.2245   23.1682 H   0  0  0  0  0  0  0  0  0  0  0  0
    7.5972   -1.2056   21.6500 H   0  0  0  0  0  0  0  0  0  0  0  0
    8.8612   -1.4622   20.4334 H   0  0  0  0  0  0  0  0  0  0  0  0
  1  2  2  0  0  0  0
  1  7  1  0  0  0  0
  2  9  1  0  0  0  0
  3  5  2  0  0  0  0
  3 10  1  0  0  0  0
  4  6  1  0  0  0  0
  4 10  2  0  0  0  0
  5 11  1  0  0  0  0
  6 11  2  0  0  0  0
  7 12  2  0  0  0  0
  8  9  2  0  0  0  0
  8 12  1  0  0  0  0
  9 25  1  0  0  0  0
 10 30  1  0  0  0  0
 11 31  1  0  0  0  0
 12 33  1  0  0  0  0
 13 15  1  0  0  0  0
 13 27  2  0  0  0  0
 13 29  1  0  0  0  0
 14 26  1  0  0  0  0
 14 28  2  0  0  0  0
 14 29  1  0  0  0  0
 15 16  2  0  0  0  0
 16 17  1  0  0  0  0
 17 18  2  0  0  0  0
 18 29  1  0  0  0  0
 19 26  1  0  0  0  0
 19 31  1  0  0  0  0
 19 32  2  0  0  0  0
 20 21  1  0  0  0  0
 20 22  1  0  0  0  0
 21 23  1  0  0  0  0
 22 24  1  0  0  0  0
 23 30  1  0  0  0  0
 24 30  1  0  0  0  0
 25 31  1  0  0  0  0
 27 28  1  0  0  0  0
  1 34  1  0  0  0  0
  2 35  1  0  0  0  0
  3 36  1  0  0  0  0
  4 37  1  0  0  0  0
  5 38  1  0  0  0  0
  6 39  1  0  0  0  0
  7 40  1  0  0  0  0
  8 41  1  0  0  0  0
 15 42  1  0  0  0  0
 16 43  1  0  0  0  0
 17 44  1  0  0  0  0
 18 45  1  0  0  0  0
 20 46  1  0  0  0  0
 20 47  1  0  0  0  0
 21 48  1  0  0  0  0
 21 49  1  0  0  0  0
 22 50  1  0  0  0  0
 22 51  1  0  0  0  0
 23 52  1  0  0  0  0
 23 53  1  0  0  0  0
 24 54  1  0  0  0  0
 24 55  1  0  0  0  0
 25 56  1  0  0  0  0
 25 57  1  0  0  0  0
 26 58  1  0  0  0  0
 26 59  1  0  0  0  0
M  END
> <clash_score>
0

> <docking_score>
-7.993965148925781

> <overlap_score>
1.0036605596542358

$$$$
BENZO_487_1
  -OEChem-08232013473D

 59 63  0     0  0  0  0  0  0999 V2000
    8.9960   -2.3380   25.5320 C   0  0  0  0  0  0  0  0  0  0  0  0
    9.6730   -3.4710   23.5300 C   0  0  0  0  0  0  0  0  0  0  0  0
    9.0720   -1.1280   24.8640 C   0  0  0  0  0  0  0  0  0  0  0  0
    9.7200   -2.2600   22.8630 C   0  0  0  0  0  0  0  0  0  0  0  0
   12.2876    1.2701   24.8810 C   0  0  0  0  0  0  0  0  0  0  0  0
   12.3886    1.3870   22.6876 C   0  0  0  0  0  0  0  0  0  0  0  0
   11.4886    1.3226   23.7231 C   0  0  0  0  0  0  0  0  0  0  0  0
    9.3070   -3.5340   24.8780 C   0  0  0  0  0  0  0  0  0  0  0  0
    9.3350   -1.0880   23.5010 C   0  0  0  0  0  0  0  0  0  0  0  0
    5.8300    0.9190   18.6970 C   0  0  0  0  0  0  0  0  0  0  0  0
    7.3170   -0.1610   19.8550 C   0  0  0  0  0  0  0  0  0  0  0  0
    4.6890    1.6810   18.4640 C   0  0  0  0  0  0  0  0  0  0  0  0
    3.9160    2.0630   19.5520 C   0  0  0  0  0  0  0  0  0  0  0  0
    4.2750    1.7050   20.8490 C   0  0  0  0  0  0  0  0  0  0  0  0
    5.4210    0.9600   21.0930 C   0  0  0  0  0  0  0  0  0  0  0  0
    9.0420    0.3700   21.5280 C   0  0  0  0  0  0  0  0  0  0  0  0
    7.3635   -6.1361   27.1888 C   0  0  0  0  0  0  0  0  0  0  0  0
    8.1961   -4.9735   27.7341 C   0  0  0  0  0  0  0  0  0  0  0  0
    7.1942   -6.0394   25.6709 C   0  0  0  0  0  0  0  0  0  0  0  0
    9.5196   -4.8490   26.9797 C   0  0  0  0  0  0  0  0  0  0  0  0
    8.5442   -5.8838   24.9639 C   0  0  0  0  0  0  0  0  0  0  0  0
   14.8917    1.4193   22.5779 C   0  0  0  0  0  0  0  0  0  0  0  0
    9.9898    1.3085   23.6366 C   0  0  0  0  0  0  0  0  0  0  0  0
    8.1890   -0.7180   20.8700 C   0  0  0  0  0  0  0  0  0  0  0  0
   13.5946    1.2985   24.6073 N   0  0  0  0  0  0  0  0  0  0  0  0
    6.7580    0.3810   17.8350 N   0  0  0  0  0  0  0  0  0  0  0  0
    7.6390   -0.2680   18.5410 N   0  0  0  0  0  0  0  0  0  0  0  0
   13.6238    1.3695   23.2656 N   0  0  0  0  0  0  0  0  0  0  0  0
    6.1790    0.5730   19.9990 N   0  0  0  0  0  0  0  0  0  0  0  0
    9.2562   -4.7384   25.5422 N   0  0  0  0  0  0  0  0  0  0  0  0
    9.4560    0.1560   22.8130 N   0  0  0  0  0  0  0  0  0  0  0  0
    9.2690    1.4140   20.9380 O   0  0  0  0  0  0  0  0  0  0  0  0
    8.6905   -2.3533   26.5810 H   0  0  0  0  0  0  0  0  0  0  0  0
    9.9266   -4.3896   22.9917 H   0  0  0  0  0  0  0  0  0  0  0  0
    8.9233   -0.1992   25.4231 H   0  0  0  0  0  0  0  0  0  0  0  0
   10.0650   -2.2330   21.8256 H   0  0  0  0  0  0  0  0  0  0  0  0
   11.9742    1.2113   25.9137 H   0  0  0  0  0  0  0  0  0  0  0  0
   12.2585    1.4412   21.6152 H   0  0  0  0  0  0  0  0  0  0  0  0
    4.3966    1.9781   17.4720 H   0  0  0  0  0  0  0  0  0  0  0  0
    3.0227    2.6498   19.3695 H   0  0  0  0  0  0  0  0  0  0  0  0
    3.6570    2.0037   21.7071 H   0  0  0  0  0  0  0  0  0  0  0  0
    5.7202    0.6868   22.0802 H   0  0  0  0  0  0  0  0  0  0  0  0
    7.8482   -7.0901   27.4469 H   0  0  0  0  0  0  0  0  0  0  0  0
    6.3760   -6.1438   27.6724 H   0  0  0  0  0  0  0  0  0  0  0  0
    7.6307   -4.0424   27.6403 H   0  0  0  0  0  0  0  0  0  0  0  0
    8.3915   -5.1310   28.7968 H   0  0  0  0  0  0  0  0  0  0  0  0
    6.6888   -6.9376   25.3010 H   0  0  0  0  0  0  0  0  0  0  0  0
    6.5515   -5.1859   25.4257 H   0  0  0  0  0  0  0  0  0  0  0  0
   10.0492   -3.9640   27.3414 H   0  0  0  0  0  0  0  0  0  0  0  0
   10.1431   -5.7254   27.1778 H   0  0  0  0  0  0  0  0  0  0  0  0
    9.1338   -6.7931   25.0868 H   0  0  0  0  0  0  0  0  0  0  0  0
    8.3656   -5.7264   23.8998 H   0  0  0  0  0  0  0  0  0  0  0  0
   15.1771    2.4693   22.4722 H   0  0  0  0  0  0  0  0  0  0  0  0
   15.6424    0.8757   23.1584 H   0  0  0  0  0  0  0  0  0  0  0  0
   14.7889    0.9492   21.5959 H   0  0  0  0  0  0  0  0  0  0  0  0
    9.5459    1.2490   24.6363 H   0  0  0  0  0  0  0  0  0  0  0  0
    9.6146    2.2245   23.1682 H   0  0  0  0  0  0  0  0  0  0  0  0
    7.5972   -1.2056   21.6500 H   0  0  0  0  0  0  0  0  0  0  0  0
    8.8612   -1.4622   20.4334 H   0  0  0  0  0  0  0  0  0  0  0  0
  1  3  2  0  0  0  0
  1  8  1  0  0  0  0
  2  4  1  0  0  0  0
  2  8  2  0  0  0  0
  3  9  1  0  0  0  0
  4  9  2  0  0  0  0
  5  7  1  0  0  0  0
  5 25  2  0  0  0  0
  6  7  2  0  0  0  0
  6 28  1  0  0  0  0
  7 23  1  0  0  0  0
  8 30  1  0  0  0  0
  9 31  1  0  0  0  0
 10 12  1  0  0  0  0
 10 26  2  0  0  0  0
 10 29  1  0  0  0  0
 11 24  1  0  0  0  0
 11 27  2  0  0  0  0
 11 29  1  0  0  0  0
 12 13  2  0  0  0  0
 13 14  1  0  0  0  0
 14 15  2  0  0  0  0
 15 29  1  0  0  0  0
 16 24  1  0  0  0  0
 16 31  1  0  0  0  0
 16 32  2  0  0  0  0
 17 18  1  0  0  0  0
 17 19  1  0  0  0  0
 18 20  1  0  0  0  0
 19 21  1  0  0  0  0
 20 30  1  0  0  0  0
 21 30  1  0  0  0  0
 22 28  1  0  0  0  0
 23 31  1  0  0  0  0
 25 28  1  0  0  0  0
 26 27  1  0  0  0  0
  1 33  1  0  0  0  0
  2 34  1  0  0  0  0
  3 35  1  0  0  0  0
  4 36  1  0  0  0  0
  5 37  1  0  0  0  0
  6 38  1  0  0  0  0
 12 39  1  0  0  0  0
 13 40  1  0  0  0  0
 14 41  1  0  0  0  0
 15 42  1  0  0  0  0
 17 43  1  0  0  0  0
 17 44  1  0  0  0  0
 18 45  1  0  0  0  0
 18 46  1  0  0  0  0
 19 47  1  0  0  0  0
 19 48  1  0  0  0  0
 20 49  1  0  0  0  0
 20 50  1  0  0  0  0
 21 51  1  0  0  0  0
 21 52  1  0  0  0  0
 22 53  1  0  0  0  0
 22 54  1  0  0  0  0
 22 55  1  0  0  0  0
 23 56  1  0  0  0  0
 23 57  1  0  0  0  0
 24 58  1  0  0  0  0
 24 59  1  0  0  0  0
M  END
> <clash_score>
0

> <docking_score>
-8.88713264465332

> <overlap_score>
0.985912561416626

$$$$
BENZO_490_1
  -OEChem-08232013473D

 47 50  0     0  0  0  0  0  0999 V2000
   13.7185    2.0062   22.7514 C   0  0  0  0  0  0  0  0  0  0  0  0
   12.3258    2.0802   22.7723 C   0  0  0  0  0  0  0  0  0  0  0  0
    8.9960   -2.3380   25.5320 C   0  0  0  0  0  0  0  0  0  0  0  0
    9.6730   -3.4710   23.5300 C   0  0  0  0  0  0  0  0  0  0  0  0
    9.0720   -1.1280   24.8640 C   0  0  0  0  0  0  0  0  0  0  0  0
    9.7200   -2.2600   22.8630 C   0  0  0  0  0  0  0  0  0  0  0  0
   14.3787    1.0613   23.5369 C   0  0  0  0  0  0  0  0  0  0  0  0
   12.2533    0.2645   24.3645 C   0  0  0  0  0  0  0  0  0  0  0  0
    9.3070   -3.5340   24.8780 C   0  0  0  0  0  0  0  0  0  0  0  0
   11.5932    1.2094   23.5789 C   0  0  0  0  0  0  0  0  0  0  0  0
    9.3350   -1.0880   23.5010 C   0  0  0  0  0  0  0  0  0  0  0  0
   13.6460    0.1905   24.3435 C   0  0  0  0  0  0  0  0  0  0  0  0
    5.8300    0.9190   18.6970 C   0  0  0  0  0  0  0  0  0  0  0  0
    7.3170   -0.1610   19.8550 C   0  0  0  0  0  0  0  0  0  0  0  0
    4.6890    1.6810   18.4640 C   0  0  0  0  0  0  0  0  0  0  0  0
    3.9160    2.0630   19.5520 C   0  0  0  0  0  0  0  0  0  0  0  0
    4.2750    1.7050   20.8490 C   0  0  0  0  0  0  0  0  0  0  0  0
    5.4210    0.9600   21.0930 C   0  0  0  0  0  0  0  0  0  0  0  0
    9.0420    0.3700   21.5280 C   0  0  0  0  0  0  0  0  0  0  0  0
    9.2505   -4.8264   25.5904 C   0  0  0  0  0  0  0  0  0  0  0  0
   10.0942    1.2904   23.6018 C   0  0  0  0  0  0  0  0  0  0  0  0
    8.1890   -0.7180   20.8700 C   0  0  0  0  0  0  0  0  0  0  0  0
    6.7580    0.3810   17.8350 N   0  0  0  0  0  0  0  0  0  0  0  0
    7.6390   -0.2680   18.5410 N   0  0  0  0  0  0  0  0  0  0  0  0
    6.1790    0.5730   19.9990 N   0  0  0  0  0  0  0  0  0  0  0  0
    9.4560    0.1560   22.8130 N   0  0  0  0  0  0  0  0  0  0  0  0
    9.2690    1.4140   20.9380 O   0  0  0  0  0  0  0  0  0  0  0  0
   14.4611   -0.9743   25.3134 Cl  0  0  0  0  0  0  0  0  0  0  0  0
   14.2887    2.6846   22.1233 H   0  0  0  0  0  0  0  0  0  0  0  0
   11.8198    2.8196   22.1570 H   0  0  0  0  0  0  0  0  0  0  0  0
    8.6919   -2.3557   26.5813 H   0  0  0  0  0  0  0  0  0  0  0  0
    9.9267   -4.3907   22.9939 H   0  0  0  0  0  0  0  0  0  0  0  0
    8.9217   -0.1995   25.4231 H   0  0  0  0  0  0  0  0  0  0  0  0
   10.0653   -2.2339   21.8256 H   0  0  0  0  0  0  0  0  0  0  0  0
   15.4646    1.0153   23.5108 H   0  0  0  0  0  0  0  0  0  0  0  0
   11.6775   -0.4126   24.9912 H   0  0  0  0  0  0  0  0  0  0  0  0
    4.3966    1.9781   17.4720 H   0  0  0  0  0  0  0  0  0  0  0  0
    3.0227    2.6498   19.3695 H   0  0  0  0  0  0  0  0  0  0  0  0
    3.6570    2.0037   21.7071 H   0  0  0  0  0  0  0  0  0  0  0  0
    5.7202    0.6868   22.0802 H   0  0  0  0  0  0  0  0  0  0  0  0
    8.2503   -5.2678   25.5020 H   0  0  0  0  0  0  0  0  0  0  0  0
    9.9817   -5.5374   25.1845 H   0  0  0  0  0  0  0  0  0  0  0  0
    9.4841   -4.7043   26.6562 H   0  0  0  0  0  0  0  0  0  0  0  0
    9.7206    1.2426   24.6305 H   0  0  0  0  0  0  0  0  0  0  0  0
    9.7451    2.2354   23.1726 H   0  0  0  0  0  0  0  0  0  0  0  0
    7.6082   -1.2086   21.6619 H   0  0  0  0  0  0  0  0  0  0  0  0
    8.8721   -1.4652   20.4453 H   0  0  0  0  0  0  0  0  0  0  0  0
  1  2  2  0  0  0  0
  1  7  1  0  0  0  0
  2 10  1  0  0  0  0
  3  5  2  0  0  0  0
  3  9  1  0  0  0  0
  4  6  1  0  0  0  0
  4  9  2  0  0  0  0
  5 11  1  0  0  0  0
  6 11  2  0  0  0  0
  7 12  2  0  0  0  0
  8 10  2  0  0  0  0
  8 12  1  0  0  0  0
  9 20  1  0  0  0  0
 10 21  1  0  0  0  0
 11 26  1  0  0  0  0
 12 28  1  0  0  0  0
 13 15  1  0  0  0  0
 13 23  2  0  0  0  0
 13 25  1  0  0  0  0
 14 22  1  0  0  0  0
 14 24  2  0  0  0  0
 14 25  1  0  0  0  0
 15 16  2  0  0  0  0
 16 17  1  0  0  0  0
 17 18  2  0  0  0  0
 18 25  1  0  0  0  0
 19 22  1  0  0  0  0
 19 26  1  0  0  0  0
 19 27  2  0  0  0  0
 21 26  1  0  0  0  0
 23 24  1  0  0  0  0
  1 29  1  0  0  0  0
  2 30  1  0  0  0  0
  3 31  1  0  0  0  0
  4 32  1  0  0  0  0
  5 33  1  0  0  0  0
  6 34  1  0  0  0  0
  7 35  1  0  0  0  0
  8 36  1  0  0  0  0
 15 37  1  0  0  0  0
 16 38  1  0  0  0  0
 17 39  1  0  0  0  0
 18 40  1  0  0  0  0
 20 41  1  0  0  0  0
 20 42  1  0  0  0  0
 20 43  1  0  0  0  0
 21 44  1  0  0  0  0
 21 45  1  0  0  0  0
 22 46  1  0  0  0  0
 22 47  1  0  0  0  0
M  END
> <clash_score>
0.7378218241428487

> <docking_score>
-8.334110260009766

> <overlap_score>
0.943831741809845

$$$$
BENZO_491_1
  -OEChem-08232013473D

 47 50  0     0  0  0  0  0  0999 V2000
    8.9960   -2.3380   25.5320 C   0  0  0  0  0  0  0  0  0  0  0  0
    9.6730   -3.4710   23.5300 C   0  0  0  0  0  0  0  0  0  0  0  0
    9.0720   -1.1280   24.8640 C   0  0  0  0  0  0  0  0  0  0  0  0
    9.7200   -2.2600   22.8630 C   0  0  0  0  0  0  0  0  0  0  0  0
   12.4896    1.9984   22.8335 C   0  0  0  0  0  0  0  0  0  0  0  0
   12.3982    0.3485   24.2841 C   0  0  0  0  0  0  0  0  0  0  0  0
    9.3070   -3.5340   24.8780 C   0  0  0  0  0  0  0  0  0  0  0  0
   11.5932    1.2094   23.5789 C   0  0  0  0  0  0  0  0  0  0  0  0
    9.3350   -1.0880   23.5010 C   0  0  0  0  0  0  0  0  0  0  0  0
    5.8300    0.9190   18.6970 C   0  0  0  0  0  0  0  0  0  0  0  0
    7.3170   -0.1610   19.8550 C   0  0  0  0  0  0  0  0  0  0  0  0
    4.6890    1.6810   18.4640 C   0  0  0  0  0  0  0  0  0  0  0  0
    3.9160    2.0630   19.5520 C   0  0  0  0  0  0  0  0  0  0  0  0
    4.2750    1.7050   20.8490 C   0  0  0  0  0  0  0  0  0  0  0  0
    5.4210    0.9600   21.0930 C   0  0  0  0  0  0  0  0  0  0  0  0
    9.0420    0.3700   21.5280 C   0  0  0  0  0  0  0  0  0  0  0  0
    9.2505   -4.8264   25.5904 C   0  0  0  0  0  0  0  0  0  0  0  0
   14.8796    0.0264   24.4169 C   0  0  0  0  0  0  0  0  0  0  0  0
   10.0942    1.2904   23.6018 C   0  0  0  0  0  0  0  0  0  0  0  0
    8.1890   -0.7180   20.8700 C   0  0  0  0  0  0  0  0  0  0  0  0
   13.7663    1.6683   23.0456 N   0  0  0  0  0  0  0  0  0  0  0  0
    6.7580    0.3810   17.8350 N   0  0  0  0  0  0  0  0  0  0  0  0
    7.6390   -0.2680   18.5410 N   0  0  0  0  0  0  0  0  0  0  0  0
   13.6780    0.6623   23.9323 N   0  0  0  0  0  0  0  0  0  0  0  0
    6.1790    0.5730   19.9990 N   0  0  0  0  0  0  0  0  0  0  0  0
    9.4560    0.1560   22.8130 N   0  0  0  0  0  0  0  0  0  0  0  0
    9.2690    1.4140   20.9380 O   0  0  0  0  0  0  0  0  0  0  0  0
    8.6919   -2.3557   26.5813 H   0  0  0  0  0  0  0  0  0  0  0  0
    9.9267   -4.3907   22.9939 H   0  0  0  0  0  0  0  0  0  0  0  0
    8.9217   -0.1995   25.4231 H   0  0  0  0  0  0  0  0  0  0  0  0
   10.0653   -2.2339   21.8256 H   0  0  0  0  0  0  0  0  0  0  0  0
   12.2682    2.8014   22.1447 H   0  0  0  0  0  0  0  0  0  0  0  0
   12.1749   -0.4402   24.9898 H   0  0  0  0  0  0  0  0  0  0  0  0
    4.3966    1.9781   17.4720 H   0  0  0  0  0  0  0  0  0  0  0  0
    3.0227    2.6498   19.3695 H   0  0  0  0  0  0  0  0  0  0  0  0
    3.6570    2.0037   21.7071 H   0  0  0  0  0  0  0  0  0  0  0  0
    5.7202    0.6868   22.0802 H   0  0  0  0  0  0  0  0  0  0  0  0
    8.2503   -5.2678   25.5020 H   0  0  0  0  0  0  0  0  0  0  0  0
    9.9817   -5.5374   25.1845 H   0  0  0  0  0  0  0  0  0  0  0  0
    9.4841   -4.7043   26.6562 H   0  0  0  0  0  0  0  0  0  0  0  0
   15.1133   -0.8066   23.7486 H   0  0  0  0  0  0  0  0  0  0  0  0
   15.6979    0.7518   24.4243 H   0  0  0  0  0  0  0  0  0  0  0  0
   14.7118   -0.3346   25.4354 H   0  0  0  0  0  0  0  0  0  0  0  0
    9.7206    1.2426   24.6305 H   0  0  0  0  0  0  0  0  0  0  0  0
    9.7451    2.2354   23.1726 H   0  0  0  0  0  0  0  0  0  0  0  0
    7.6082   -1.2086   21.6619 H   0  0  0  0  0  0  0  0  0  0  0  0
    8.8721   -1.4652   20.4453 H   0  0  0  0  0  0  0  0  0  0  0  0
  1  3  2  0  0  0  0
  1  7  1  0  0  0  0
  2  4  1  0  0  0  0
  2  7  2  0  0  0  0
  3  9  1  0  0  0  0
  4  9  2  0  0  0  0
  5  8  1  0  0  0  0
  5 21  2  0  0  0  0
  6  8  2  0  0  0  0
  6 24  1  0  0  0  0
  7 17  1  0  0  0  0
  8 19  1  0  0  0  0
  9 26  1  0  0  0  0
 10 12  1  0  0  0  0
 10 22  2  0  0  0  0
 10 25  1  0  0  0  0
 11 20  1  0  0  0  0
 11 23  2  0  0  0  0
 11 25  1  0  0  0  0
 12 13  2  0  0  0  0
 13 14  1  0  0  0  0
 14 15  2  0  0  0  0
 15 25  1  0  0  0  0
 16 20  1  0  0  0  0
 16 26  1  0  0  0  0
 16 27  2  0  0  0  0
 18 24  1  0  0  0  0
 19 26  1  0  0  0  0
 21 24  1  0  0  0  0
 22 23  1  0  0  0  0
  1 28  1  0  0  0  0
  2 29  1  0  0  0  0
  3 30  1  0  0  0  0
  4 31  1  0  0  0  0
  5 32  1  0  0  0  0
  6 33  1  0  0  0  0
 12 34  1  0  0  0  0
 13 35  1  0  0  0  0
 14 36  1  0  0  0  0
 15 37  1  0  0  0  0
 17 38  1  0  0  0  0
 17 39  1  0  0  0  0
 17 40  1  0  0  0  0
 18 41  1  0  0  0  0
 18 42  1  0  0  0  0
 18 43  1  0  0  0  0
 19 44  1  0  0  0  0
 19 45  1  0  0  0  0
 20 46  1  0  0  0  0
 20 47  1  0  0  0  0
M  END
> <clash_score>
0

> <docking_score>
-9.044541358947754

> <overlap_score>
0.9408422112464905

$$$$
BENZO_493_1
  -OEChem-08232013473D

 48 51  0     0  0  0  0  0  0999 V2000
   14.3785    1.0574   23.5366 C   0  0  0  0  0  0  0  0  0  0  0  0
   13.7492    2.2980   23.6387 C   0  0  0  0  0  0  0  0  0  0  0  0
   13.6151   -0.1073   23.4555 C   0  0  0  0  0  0  0  0  0  0  0  0
   12.3566    2.3740   23.6599 C   0  0  0  0  0  0  0  0  0  0  0  0
   12.2225   -0.0313   23.4767 C   0  0  0  0  0  0  0  0  0  0  0  0
    9.0720   -1.1280   24.8640 C   0  0  0  0  0  0  0  0  0  0  0  0
    9.7200   -2.2600   22.8630 C   0  0  0  0  0  0  0  0  0  0  0  0
    8.9960   -2.3380   25.5320 C   0  0  0  0  0  0  0  0  0  0  0  0
    9.6730   -3.4710   23.5300 C   0  0  0  0  0  0  0  0  0  0  0  0
   11.5932    1.2094   23.5789 C   0  0  0  0  0  0  0  0  0  0  0  0
    9.3350   -1.0880   23.5010 C   0  0  0  0  0  0  0  0  0  0  0  0
    9.3070   -3.5340   24.8780 C   0  0  0  0  0  0  0  0  0  0  0  0
    5.8300    0.9190   18.6970 C   0  0  0  0  0  0  0  0  0  0  0  0
    7.3170   -0.1610   19.8550 C   0  0  0  0  0  0  0  0  0  0  0  0
    4.6890    1.6810   18.4640 C   0  0  0  0  0  0  0  0  0  0  0  0
    3.9160    2.0630   19.5520 C   0  0  0  0  0  0  0  0  0  0  0  0
    4.2750    1.7050   20.8490 C   0  0  0  0  0  0  0  0  0  0  0  0
    5.4210    0.9600   21.0930 C   0  0  0  0  0  0  0  0  0  0  0  0
    9.0420    0.3700   21.5280 C   0  0  0  0  0  0  0  0  0  0  0  0
    8.8720   -4.6805   26.9013 C   0  0  0  0  0  0  0  0  0  0  0  0
   10.0942    1.2904   23.6018 C   0  0  0  0  0  0  0  0  0  0  0  0
    8.1890   -0.7180   20.8700 C   0  0  0  0  0  0  0  0  0  0  0  0
    6.7580    0.3810   17.8350 N   0  0  0  0  0  0  0  0  0  0  0  0
    7.6390   -0.2680   18.5410 N   0  0  0  0  0  0  0  0  0  0  0  0
    6.1790    0.5730   19.9990 N   0  0  0  0  0  0  0  0  0  0  0  0
    9.4560    0.1560   22.8130 N   0  0  0  0  0  0  0  0  0  0  0  0
    9.2690    1.4140   20.9380 O   0  0  0  0  0  0  0  0  0  0  0  0
    9.2555   -4.7124   25.5274 O   0  0  0  0  0  0  0  0  0  0  0  0
   15.4628    0.9985   23.5188 H   0  0  0  0  0  0  0  0  0  0  0  0
   14.3434    3.2051   23.7008 H   0  0  0  0  0  0  0  0  0  0  0  0
   14.1047   -1.0732   23.3749 H   0  0  0  0  0  0  0  0  0  0  0  0
   11.8749    3.3450   23.7399 H   0  0  0  0  0  0  0  0  0  0  0  0
   11.6359   -0.9440   23.4132 H   0  0  0  0  0  0  0  0  0  0  0  0
    8.9221   -0.1995   25.4231 H   0  0  0  0  0  0  0  0  0  0  0  0
   10.0642   -2.2347   21.8253 H   0  0  0  0  0  0  0  0  0  0  0  0
    8.6902   -2.3588   26.5805 H   0  0  0  0  0  0  0  0  0  0  0  0
    9.9254   -4.3921   22.9961 H   0  0  0  0  0  0  0  0  0  0  0  0
    4.3966    1.9781   17.4720 H   0  0  0  0  0  0  0  0  0  0  0  0
    3.0227    2.6498   19.3695 H   0  0  0  0  0  0  0  0  0  0  0  0
    3.6570    2.0037   21.7071 H   0  0  0  0  0  0  0  0  0  0  0  0
    5.7202    0.6868   22.0802 H   0  0  0  0  0  0  0  0  0  0  0  0
    8.8711   -5.6964   27.3038 H   0  0  0  0  0  0  0  0  0  0  0  0
    7.8758   -4.2402   26.9923 H   0  0  0  0  0  0  0  0  0  0  0  0
    9.5894   -4.0716   27.4566 H   0  0  0  0  0  0  0  0  0  0  0  0
    9.7206    1.2426   24.6305 H   0  0  0  0  0  0  0  0  0  0  0  0
    9.7451    2.2354   23.1726 H   0  0  0  0  0  0  0  0  0  0  0  0
    7.6082   -1.2086   21.6619 H   0  0  0  0  0  0  0  0  0  0  0  0
    8.8721   -1.4652   20.4453 H   0  0  0  0  0  0  0  0  0  0  0  0
  1  2  1  0  0  0  0
  1  3  2  0  0  0  0
  2  4  2  0  0  0  0
  3  5  1  0  0  0  0
  4 10  1  0  0  0  0
  5 10  2  0  0  0  0
  6  8  2  0  0  0  0
  6 11  1  0  0  0  0
  7  9  1  0  0  0  0
  7 11  2  0  0  0  0
  8 12  1  0  0  0  0
  9 12  2  0  0  0  0
 10 21  1  0  0  0  0
 11 26  1  0  0  0  0
 12 28  1  0  0  0  0
 13 15  1  0  0  0  0
 13 23  2  0  0  0  0
 13 25  1  0  0  0  0
 14 22  1  0  0  0  0
 14 24  2  0  0  0  0
 14 25  1  0  0  0  0
 15 16  2  0  0  0  0
 16 17  1  0  0  0  0
 17 18  2  0  0  0  0
 18 25  1  0  0  0  0
 19 22  1  0  0  0  0
 19 26  1  0  0  0  0
 19 27  2  0  0  0  0
 20 28  1  0  0  0  0
 21 26  1  0  0  0  0
 23 24  1  0  0  0  0
  1 29  1  0  0  0  0
  2 30  1  0  0  0  0
  3 31  1  0  0  0  0
  4 32  1  0  0  0  0
  5 33  1  0  0  0  0
  6 34  1  0  0  0  0
  7 35  1  0  0  0  0
  8 36  1  0  0  0  0
  9 37  1  0  0  0  0
 15 38  1  0  0  0  0
 16 39  1  0  0  0  0
 17 40  1  0  0  0  0
 18 41  1  0  0  0  0
 20 42  1  0  0  0  0
 20 43  1  0  0  0  0
 20 44  1  0  0  0  0
 21 45  1  0  0  0  0
 21 46  1  0  0  0  0
 22 47  1  0  0  0  0
 22 48  1  0  0  0  0
M  END
> <clash_score>
0

> <docking_score>
-7.763545989990234

> <overlap_score>
0.9646068215370178

$$$$
BENZO_492_1
  -OEChem-08232013473D

 45 48  0     0  0  0  0  0  0999 V2000
    9.0720   -1.1280   24.8640 C   0  0  0  0  0  0  0  0  0  0  0  0
    9.7200   -2.2600   22.8630 C   0  0  0  0  0  0  0  0  0  0  0  0
    8.9960   -2.3380   25.5320 C   0  0  0  0  0  0  0  0  0  0  0  0
    9.6730   -3.4710   23.5300 C   0  0  0  0  0  0  0  0  0  0  0  0
   12.4514    2.3448   23.6450 C   0  0  0  0  0  0  0  0  0  0  0  0
   13.7820    1.9908   23.6050 C   0  0  0  0  0  0  0  0  0  0  0  0
   12.3007    0.0306   23.4906 C   0  0  0  0  0  0  0  0  0  0  0  0
   11.5932    1.2094   23.5789 C   0  0  0  0  0  0  0  0  0  0  0  0
    9.3350   -1.0880   23.5010 C   0  0  0  0  0  0  0  0  0  0  0  0
    9.3070   -3.5340   24.8780 C   0  0  0  0  0  0  0  0  0  0  0  0
    5.8300    0.9190   18.6970 C   0  0  0  0  0  0  0  0  0  0  0  0
    7.3170   -0.1610   19.8550 C   0  0  0  0  0  0  0  0  0  0  0  0
    4.6890    1.6810   18.4640 C   0  0  0  0  0  0  0  0  0  0  0  0
    3.9160    2.0630   19.5520 C   0  0  0  0  0  0  0  0  0  0  0  0
    4.2750    1.7050   20.8490 C   0  0  0  0  0  0  0  0  0  0  0  0
    5.4210    0.9600   21.0930 C   0  0  0  0  0  0  0  0  0  0  0  0
    9.0420    0.3700   21.5280 C   0  0  0  0  0  0  0  0  0  0  0  0
    8.8720   -4.6805   26.9013 C   0  0  0  0  0  0  0  0  0  0  0  0
   10.0942    1.2904   23.6018 C   0  0  0  0  0  0  0  0  0  0  0  0
    8.1890   -0.7180   20.8700 C   0  0  0  0  0  0  0  0  0  0  0  0
    6.7580    0.3810   17.8350 N   0  0  0  0  0  0  0  0  0  0  0  0
    7.6390   -0.2680   18.5410 N   0  0  0  0  0  0  0  0  0  0  0  0
    6.1790    0.5730   19.9990 N   0  0  0  0  0  0  0  0  0  0  0  0
    9.4560    0.1560   22.8130 N   0  0  0  0  0  0  0  0  0  0  0  0
    9.2690    1.4140   20.9380 O   0  0  0  0  0  0  0  0  0  0  0  0
    9.2555   -4.7124   25.5274 O   0  0  0  0  0  0  0  0  0  0  0  0
   13.9925    0.2954   23.4880 S   0  0  0  0  0  0  0  0  0  0  0  0
    8.9221   -0.1995   25.4231 H   0  0  0  0  0  0  0  0  0  0  0  0
   10.0642   -2.2347   21.8253 H   0  0  0  0  0  0  0  0  0  0  0  0
    8.6902   -2.3588   26.5805 H   0  0  0  0  0  0  0  0  0  0  0  0
    9.9254   -4.3921   22.9961 H   0  0  0  0  0  0  0  0  0  0  0  0
   12.1141    3.3711   23.7179 H   0  0  0  0  0  0  0  0  0  0  0  0
   14.6406    2.6465   23.6381 H   0  0  0  0  0  0  0  0  0  0  0  0
   11.9091   -0.9752   23.4261 H   0  0  0  0  0  0  0  0  0  0  0  0
    4.3966    1.9781   17.4720 H   0  0  0  0  0  0  0  0  0  0  0  0
    3.0227    2.6498   19.3695 H   0  0  0  0  0  0  0  0  0  0  0  0
    3.6570    2.0037   21.7071 H   0  0  0  0  0  0  0  0  0  0  0  0
    5.7202    0.6868   22.0802 H   0  0  0  0  0  0  0  0  0  0  0  0
    8.8711   -5.6964   27.3038 H   0  0  0  0  0  0  0  0  0  0  0  0
    7.8758   -4.2402   26.9923 H   0  0  0  0  0  0  0  0  0  0  0  0
    9.5894   -4.0716   27.4566 H   0  0  0  0  0  0  0  0  0  0  0  0
    9.7206    1.2426   24.6305 H   0  0  0  0  0  0  0  0  0  0  0  0
    9.7451    2.2354   23.1726 H   0  0  0  0  0  0  0  0  0  0  0  0
    7.6082   -1.2086   21.6619 H   0  0  0  0  0  0  0  0  0  0  0  0
    8.8721   -1.4652   20.4453 H   0  0  0  0  0  0  0  0  0  0  0  0
  1  3  2  0  0  0  0
  1  9  1  0  0  0  0
  2  4  1  0  0  0  0
  2  9  2  0  0  0  0
  3 10  1  0  0  0  0
  4 10  2  0  0  0  0
  5  6  2  0  0  0  0
  5  8  1  0  0  0  0
  6 27  1  0  0  0  0
  7  8  2  0  0  0  0
  7 27  1  0  0  0  0
  8 19  1  0  0  0  0
  9 24  1  0  0  0  0
 10 26  1  0  0  0  0
 11 13  1  0  0  0  0
 11 21  2  0  0  0  0
 11 23  1  0  0  0  0
 12 20  1  0  0  0  0
 12 22  2  0  0  0  0
 12 23  1  0  0  0  0
 13 14  2  0  0  0  0
 14 15  1  0  0  0  0
 15 16  2  0  0  0  0
 16 23  1  0  0  0  0
 17 20  1  0  0  0  0
 17 24  1  0  0  0  0
 17 25  2  0  0  0  0
 18 26  1  0  0  0  0
 19 24  1  0  0  0  0
 21 22  1  0  0  0  0
  1 28  1  0  0  0  0
  2 29  1  0  0  0  0
  3 30  1  0  0  0  0
  4 31  1  0  0  0  0
  5 32  1  0  0  0  0
  6 33  1  0  0  0  0
  7 34  1  0  0  0  0
 13 35  1  0  0  0  0
 14 36  1  0  0  0  0
 15 37  1  0  0  0  0
 16 38  1  0  0  0  0
 18 39  1  0  0  0  0
 18 40  1  0  0  0  0
 18 41  1  0  0  0  0
 19 42  1  0  0  0  0
 19 43  1  0  0  0  0
 20 44  1  0  0  0  0
 20 45  1  0  0  0  0
M  END
> <clash_score>
0

> <docking_score>
-8.537531852722168

> <overlap_score>
0.9530397653579712

$$$$
BENZO_495_1
  -OEChem-08232013473D

 48 51  0     0  0  0  0  0  0999 V2000
    9.0720   -1.1280   24.8640 C   0  0  0  0  0  0  0  0  0  0  0  0
    9.7200   -2.2600   22.8630 C   0  0  0  0  0  0  0  0  0  0  0  0
    8.9960   -2.3380   25.5320 C   0  0  0  0  0  0  0  0  0  0  0  0
    9.6730   -3.4710   23.5300 C   0  0  0  0  0  0  0  0  0  0  0  0
   12.4896    1.9984   22.8335 C   0  0  0  0  0  0  0  0  0  0  0  0
   12.3982    0.3485   24.2841 C   0  0  0  0  0  0  0  0  0  0  0  0
   11.5932    1.2094   23.5789 C   0  0  0  0  0  0  0  0  0  0  0  0
    9.3350   -1.0880   23.5010 C   0  0  0  0  0  0  0  0  0  0  0  0
    9.3070   -3.5340   24.8780 C   0  0  0  0  0  0  0  0  0  0  0  0
    5.8300    0.9190   18.6970 C   0  0  0  0  0  0  0  0  0  0  0  0
    7.3170   -0.1610   19.8550 C   0  0  0  0  0  0  0  0  0  0  0  0
    4.6890    1.6810   18.4640 C   0  0  0  0  0  0  0  0  0  0  0  0
    3.9160    2.0630   19.5520 C   0  0  0  0  0  0  0  0  0  0  0  0
    4.2750    1.7050   20.8490 C   0  0  0  0  0  0  0  0  0  0  0  0
    5.4210    0.9600   21.0930 C   0  0  0  0  0  0  0  0  0  0  0  0
    9.0420    0.3700   21.5280 C   0  0  0  0  0  0  0  0  0  0  0  0
   14.8796    0.0264   24.4169 C   0  0  0  0  0  0  0  0  0  0  0  0
    8.8720   -4.6805   26.9013 C   0  0  0  0  0  0  0  0  0  0  0  0
   10.0942    1.2904   23.6018 C   0  0  0  0  0  0  0  0  0  0  0  0
    8.1890   -0.7180   20.8700 C   0  0  0  0  0  0  0  0  0  0  0  0
   13.7663    1.6683   23.0456 N   0  0  0  0  0  0  0  0  0  0  0  0
    6.7580    0.3810   17.8350 N   0  0  0  0  0  0  0  0  0  0  0  0
    7.6390   -0.2680   18.5410 N   0  0  0  0  0  0  0  0  0  0  0  0
   13.6780    0.6623   23.9323 N   0  0  0  0  0  0  0  0  0  0  0  0
    6.1790    0.5730   19.9990 N   0  0  0  0  0  0  0  0  0  0  0  0
    9.4560    0.1560   22.8130 N   0  0  0  0  0  0  0  0  0  0  0  0
    9.2690    1.4140   20.9380 O   0  0  0  0  0  0  0  0  0  0  0  0
    9.2555   -4.7124   25.5274 O   0  0  0  0  0  0  0  0  0  0  0  0
    8.9221   -0.1995   25.4231 H   0  0  0  0  0  0  0  0  0  0  0  0
   10.0642   -2.2347   21.8253 H   0  0  0  0  0  0  0  0  0  0  0  0
    8.6902   -2.3588   26.5805 H   0  0  0  0  0  0  0  0  0  0  0  0
    9.9254   -4.3921   22.9961 H   0  0  0  0  0  0  0  0  0  0  0  0
   12.2682    2.8014   22.1447 H   0  0  0  0  0  0  0  0  0  0  0  0
   12.1749   -0.4402   24.9898 H   0  0  0  0  0  0  0  0  0  0  0  0
    4.3966    1.9781   17.4720 H   0  0  0  0  0  0  0  0  0  0  0  0
    3.0227    2.6498   19.3695 H   0  0  0  0  0  0  0  0  0  0  0  0
    3.6570    2.0037   21.7071 H   0  0  0  0  0  0  0  0  0  0  0  0
    5.7202    0.6868   22.0802 H   0  0  0  0  0  0  0  0  0  0  0  0
   15.1133   -0.8066   23.7486 H   0  0  0  0  0  0  0  0  0  0  0  0
   15.6979    0.7518   24.4243 H   0  0  0  0  0  0  0  0  0  0  0  0
   14.7118   -0.3346   25.4354 H   0  0  0  0  0  0  0  0  0  0  0  0
    8.8711   -5.6964   27.3038 H   0  0  0  0  0  0  0  0  0  0  0  0
    7.8758   -4.2402   26.9923 H   0  0  0  0  0  0  0  0  0  0  0  0
    9.5894   -4.0716   27.4566 H   0  0  0  0  0  0  0  0  0  0  0  0
    9.7206    1.2426   24.6305 H   0  0  0  0  0  0  0  0  0  0  0  0
    9.7451    2.2354   23.1726 H   0  0  0  0  0  0  0  0  0  0  0  0
    7.6082   -1.2086   21.6619 H   0  0  0  0  0  0  0  0  0  0  0  0
    8.8721   -1.4652   20.4453 H   0  0  0  0  0  0  0  0  0  0  0  0
  1  3  2  0  0  0  0
  1  8  1  0  0  0  0
  2  4  1  0  0  0  0
  2  8  2  0  0  0  0
  3  9  1  0  0  0  0
  4  9  2  0  0  0  0
  5  7  1  0  0  0  0
  5 21  2  0  0  0  0
  6  7  2  0  0  0  0
  6 24  1  0  0  0  0
  7 19  1  0  0  0  0
  8 26  1  0  0  0  0
  9 28  1  0  0  0  0
 10 12  1  0  0  0  0
 10 22  2  0  0  0  0
 10 25  1  0  0  0  0
 11 20  1  0  0  0  0
 11 23  2  0  0  0  0
 11 25  1  0  0  0  0
 12 13  2  0  0  0  0
 13 14  1  0  0  0  0
 14 15  2  0  0  0  0
 15 25  1  0  0  0  0
 16 20  1  0  0  0  0
 16 26  1  0  0  0  0
 16 27  2  0  0  0  0
 17 24  1  0  0  0  0
 18 28  1  0  0  0  0
 19 26  1  0  0  0  0
 21 24  1  0  0  0  0
 22 23  1  0  0  0  0
  1 29  1  0  0  0  0
  2 30  1  0  0  0  0
  3 31  1  0  0  0  0
  4 32  1  0  0  0  0
  5 33  1  0  0  0  0
  6 34  1  0  0  0  0
 12 35  1  0  0  0  0
 13 36  1  0  0  0  0
 14 37  1  0  0  0  0
 15 38  1  0  0  0  0
 17 39  1  0  0  0  0
 17 40  1  0  0  0  0
 17 41  1  0  0  0  0
 18 42  1  0  0  0  0
 18 43  1  0  0  0  0
 18 44  1  0  0  0  0
 19 45  1  0  0  0  0
 19 46  1  0  0  0  0
 20 47  1  0  0  0  0
 20 48  1  0  0  0  0
M  END
> <clash_score>
0

> <docking_score>
-8.780845642089844

> <overlap_score>
0.963191568851471

$$$$
BENZO_494_1
  -OEChem-08232013473D

 48 51  0     0  0  0  0  0  0999 V2000
   13.7185    2.0062   22.7514 C   0  0  0  0  0  0  0  0  0  0  0  0
   12.3258    2.0802   22.7723 C   0  0  0  0  0  0  0  0  0  0  0  0
    9.0720   -1.1280   24.8640 C   0  0  0  0  0  0  0  0  0  0  0  0
    9.7200   -2.2600   22.8630 C   0  0  0  0  0  0  0  0  0  0  0  0
    8.9960   -2.3380   25.5320 C   0  0  0  0  0  0  0  0  0  0  0  0
    9.6730   -3.4710   23.5300 C   0  0  0  0  0  0  0  0  0  0  0  0
   14.3787    1.0613   23.5369 C   0  0  0  0  0  0  0  0  0  0  0  0
   12.2533    0.2645   24.3645 C   0  0  0  0  0  0  0  0  0  0  0  0
   11.5932    1.2094   23.5789 C   0  0  0  0  0  0  0  0  0  0  0  0
    9.3350   -1.0880   23.5010 C   0  0  0  0  0  0  0  0  0  0  0  0
    9.3070   -3.5340   24.8780 C   0  0  0  0  0  0  0  0  0  0  0  0
   13.6460    0.1905   24.3435 C   0  0  0  0  0  0  0  0  0  0  0  0
    5.8300    0.9190   18.6970 C   0  0  0  0  0  0  0  0  0  0  0  0
    7.3170   -0.1610   19.8550 C   0  0  0  0  0  0  0  0  0  0  0  0
    4.6890    1.6810   18.4640 C   0  0  0  0  0  0  0  0  0  0  0  0
    3.9160    2.0630   19.5520 C   0  0  0  0  0  0  0  0  0  0  0  0
    4.2750    1.7050   20.8490 C   0  0  0  0  0  0  0  0  0  0  0  0
    5.4210    0.9600   21.0930 C   0  0  0  0  0  0  0  0  0  0  0  0
    9.0420    0.3700   21.5280 C   0  0  0  0  0  0  0  0  0  0  0  0
    9.5894   -5.8809   24.7798 C   0  0  0  0  0  0  0  0  0  0  0  0
   10.0942    1.2904   23.6018 C   0  0  0  0  0  0  0  0  0  0  0  0
    8.1890   -0.7180   20.8700 C   0  0  0  0  0  0  0  0  0  0  0  0
    6.7580    0.3810   17.8350 N   0  0  0  0  0  0  0  0  0  0  0  0
    7.6390   -0.2680   18.5410 N   0  0  0  0  0  0  0  0  0  0  0  0
    6.1790    0.5730   19.9990 N   0  0  0  0  0  0  0  0  0  0  0  0
    9.4560    0.1560   22.8130 N   0  0  0  0  0  0  0  0  0  0  0  0
    9.2690    1.4140   20.9380 O   0  0  0  0  0  0  0  0  0  0  0  0
    9.2555   -4.7124   25.5274 O   0  0  0  0  0  0  0  0  0  0  0  0
   14.4611   -0.9743   25.3134 Cl  0  0  0  0  0  0  0  0  0  0  0  0
   14.2887    2.6846   22.1233 H   0  0  0  0  0  0  0  0  0  0  0  0
   11.8198    2.8196   22.1570 H   0  0  0  0  0  0  0  0  0  0  0  0
    8.9221   -0.1995   25.4231 H   0  0  0  0  0  0  0  0  0  0  0  0
   10.0642   -2.2347   21.8253 H   0  0  0  0  0  0  0  0  0  0  0  0
    8.6902   -2.3588   26.5805 H   0  0  0  0  0  0  0  0  0  0  0  0
    9.9254   -4.3921   22.9961 H   0  0  0  0  0  0  0  0  0  0  0  0
   15.4646    1.0153   23.5108 H   0  0  0  0  0  0  0  0  0  0  0  0
   11.6775   -0.4126   24.9912 H   0  0  0  0  0  0  0  0  0  0  0  0
    4.3966    1.9781   17.4720 H   0  0  0  0  0  0  0  0  0  0  0  0
    3.0227    2.6498   19.3695 H   0  0  0  0  0  0  0  0  0  0  0  0
    3.6570    2.0037   21.7071 H   0  0  0  0  0  0  0  0  0  0  0  0
    5.7202    0.6868   22.0802 H   0  0  0  0  0  0  0  0  0  0  0  0
    9.5074   -6.7611   25.4222 H   0  0  0  0  0  0  0  0  0  0  0  0
   10.6088   -5.7902   24.3963 H   0  0  0  0  0  0  0  0  0  0  0  0
    8.8944   -5.9778   23.9424 H   0  0  0  0  0  0  0  0  0  0  0  0
    9.7206    1.2426   24.6305 H   0  0  0  0  0  0  0  0  0  0  0  0
    9.7451    2.2354   23.1726 H   0  0  0  0  0  0  0  0  0  0  0  0
    7.6082   -1.2086   21.6619 H   0  0  0  0  0  0  0  0  0  0  0  0
    8.8721   -1.4652   20.4453 H   0  0  0  0  0  0  0  0  0  0  0  0
  1  2  2  0  0  0  0
  1  7  1  0  0  0  0
  2  9  1  0  0  0  0
  3  5  2  0  0  0  0
  3 10  1  0  0  0  0
  4  6  1  0  0  0  0
  4 10  2  0  0  0  0
  5 11  1  0  0  0  0
  6 11  2  0  0  0  0
  7 12  2  0  0  0  0
  8  9  2  0  0  0  0
  8 12  1  0  0  0  0
  9 21  1  0  0  0  0
 10 26  1  0  0  0  0
 11 28  1  0  0  0  0
 12 29  1  0  0  0  0
 13 15  1  0  0  0  0
 13 23  2  0  0  0  0
 13 25  1  0  0  0  0
 14 22  1  0  0  0  0
 14 24  2  0  0  0  0
 14 25  1  0  0  0  0
 15 16  2  0  0  0  0
 16 17  1  0  0  0  0
 17 18  2  0  0  0  0
 18 25  1  0  0  0  0
 19 22  1  0  0  0  0
 19 26  1  0  0  0  0
 19 27  2  0  0  0  0
 20 28  1  0  0  0  0
 21 26  1  0  0  0  0
 23 24  1  0  0  0  0
  1 30  1  0  0  0  0
  2 31  1  0  0  0  0
  3 32  1  0  0  0  0
  4 33  1  0  0  0  0
  5 34  1  0  0  0  0
  6 35  1  0  0  0  0
  7 36  1  0  0  0  0
  8 37  1  0  0  0  0
 15 38  1  0  0  0  0
 16 39  1  0  0  0  0
 17 40  1  0  0  0  0
 18 41  1  0  0  0  0
 20 42  1  0  0  0  0
 20 43  1  0  0  0  0
 20 44  1  0  0  0  0
 21 45  1  0  0  0  0
 21 46  1  0  0  0  0
 22 47  1  0  0  0  0
 22 48  1  0  0  0  0
M  END
> <clash_score>
0.7378218241428487

> <docking_score>
-8.040225982666016

> <overlap_score>
0.9685941338539124

$$$$
BENZO_497_1
  -OEChem-08232013473D

 58 62  0     0  0  0  0  0  0999 V2000
   14.2723    1.3590   23.9041 C   0  0  0  0  0  0  0  0  0  0  0  0
   13.5225    0.6658   24.8543 C   0  0  0  0  0  0  0  0  0  0  0  0
   13.6300    2.0357   22.8672 C   0  0  0  0  0  0  0  0  0  0  0  0
   12.1304    0.6493   24.7676 C   0  0  0  0  0  0  0  0  0  0  0  0
   12.2379    2.0193   22.7805 C   0  0  0  0  0  0  0  0  0  0  0  0
    8.9960   -2.3380   25.5320 C   0  0  0  0  0  0  0  0  0  0  0  0
    9.6730   -3.4710   23.5300 C   0  0  0  0  0  0  0  0  0  0  0  0
    9.0720   -1.1280   24.8640 C   0  0  0  0  0  0  0  0  0  0  0  0
    9.7200   -2.2600   22.8630 C   0  0  0  0  0  0  0  0  0  0  0  0
   11.4881    1.3261   23.7307 C   0  0  0  0  0  0  0  0  0  0  0  0
    9.3070   -3.5340   24.8780 C   0  0  0  0  0  0  0  0  0  0  0  0
    9.3350   -1.0880   23.5010 C   0  0  0  0  0  0  0  0  0  0  0  0
    5.8300    0.9190   18.6970 C   0  0  0  0  0  0  0  0  0  0  0  0
    7.3170   -0.1610   19.8550 C   0  0  0  0  0  0  0  0  0  0  0  0
    4.6890    1.6810   18.4640 C   0  0  0  0  0  0  0  0  0  0  0  0
    3.9160    2.0630   19.5520 C   0  0  0  0  0  0  0  0  0  0  0  0
    4.2750    1.7050   20.8490 C   0  0  0  0  0  0  0  0  0  0  0  0
    5.4210    0.9600   21.0930 C   0  0  0  0  0  0  0  0  0  0  0  0
    8.3597   -5.0073   26.6307 C   0  0  0  0  0  0  0  0  0  0  0  0
    9.0420    0.3700   21.5280 C   0  0  0  0  0  0  0  0  0  0  0  0
    8.4720   -6.3981   27.2296 C   0  0  0  0  0  0  0  0  0  0  0  0
    9.9252   -6.7605   27.4803 C   0  0  0  0  0  0  0  0  0  0  0  0
   10.7833   -6.6094   26.2282 C   0  0  0  0  0  0  0  0  0  0  0  0
   10.0539   -5.9099   25.0823 C   0  0  0  0  0  0  0  0  0  0  0  0
    9.9898    1.3085   23.6366 C   0  0  0  0  0  0  0  0  0  0  0  0
    8.1890   -0.7180   20.8700 C   0  0  0  0  0  0  0  0  0  0  0  0
    6.7580    0.3810   17.8350 N   0  0  0  0  0  0  0  0  0  0  0  0
    7.6390   -0.2680   18.5410 N   0  0  0  0  0  0  0  0  0  0  0  0
    6.1790    0.5730   19.9990 N   0  0  0  0  0  0  0  0  0  0  0  0
    9.2529   -4.7797   25.5644 N   0  0  0  0  0  0  0  0  0  0  0  0
    9.4560    0.1560   22.8130 N   0  0  0  0  0  0  0  0  0  0  0  0
    7.4954   -4.2356   27.0449 O   0  0  0  0  0  0  0  0  0  0  0  0
    9.2690    1.4140   20.9380 O   0  0  0  0  0  0  0  0  0  0  0  0
   15.3561    1.3728   23.9725 H   0  0  0  0  0  0  0  0  0  0  0  0
   14.0223    0.1397   25.6624 H   0  0  0  0  0  0  0  0  0  0  0  0
   14.2134    2.5764   22.1278 H   0  0  0  0  0  0  0  0  0  0  0  0
   11.5543    0.1064   25.5124 H   0  0  0  0  0  0  0  0  0  0  0  0
   11.7461    2.5493   21.9691 H   0  0  0  0  0  0  0  0  0  0  0  0
    8.6895   -2.3529   26.5807 H   0  0  0  0  0  0  0  0  0  0  0  0
    9.9262   -4.3897   22.9916 H   0  0  0  0  0  0  0  0  0  0  0  0
    8.9224   -0.1998   25.4238 H   0  0  0  0  0  0  0  0  0  0  0  0
   10.0649   -2.2343   21.8258 H   0  0  0  0  0  0  0  0  0  0  0  0
    4.3966    1.9781   17.4720 H   0  0  0  0  0  0  0  0  0  0  0  0
    3.0227    2.6498   19.3695 H   0  0  0  0  0  0  0  0  0  0  0  0
    3.6570    2.0037   21.7071 H   0  0  0  0  0  0  0  0  0  0  0  0
    5.7202    0.6868   22.0802 H   0  0  0  0  0  0  0  0  0  0  0  0
    7.9325   -6.4148   28.1641 H   0  0  0  0  0  0  0  0  0  0  0  0
    8.0254   -7.0920   26.5333 H   0  0  0  0  0  0  0  0  0  0  0  0
   10.3387   -6.1267   28.2923 H   0  0  0  0  0  0  0  0  0  0  0  0
    9.9904   -7.8023   27.8537 H   0  0  0  0  0  0  0  0  0  0  0  0
   11.7037   -6.0404   26.4771 H   0  0  0  0  0  0  0  0  0  0  0  0
   11.1411   -7.6068   25.8918 H   0  0  0  0  0  0  0  0  0  0  0  0
   10.7782   -5.5162   24.3756 H   0  0  0  0  0  0  0  0  0  0  0  0
    9.4042   -6.6189   24.5807 H   0  0  0  0  0  0  0  0  0  0  0  0
    9.5411    1.2412   24.6337 H   0  0  0  0  0  0  0  0  0  0  0  0
    9.6144    2.2265   23.1724 H   0  0  0  0  0  0  0  0  0  0  0  0
    7.5972   -1.2056   21.6500 H   0  0  0  0  0  0  0  0  0  0  0  0
    8.8612   -1.4622   20.4334 H   0  0  0  0  0  0  0  0  0  0  0  0
  1  2  1  0  0  0  0
  1  3  2  0  0  0  0
  2  4  2  0  0  0  0
  3  5  1  0  0  0  0
  4 10  1  0  0  0  0
  5 10  2  0  0  0  0
  6  8  2  0  0  0  0
  6 11  1  0  0  0  0
  7  9  1  0  0  0  0
  7 11  2  0  0  0  0
  8 12  1  0  0  0  0
  9 12  2  0  0  0  0
 10 25  1  0  0  0  0
 11 30  1  0  0  0  0
 12 31  1  0  0  0  0
 13 15  1  0  0  0  0
 13 27  2  0  0  0  0
 13 29  1  0  0  0  0
 14 26  1  0  0  0  0
 14 28  2  0  0  0  0
 14 29  1  0  0  0  0
 15 16  2  0  0  0  0
 16 17  1  0  0  0  0
 17 18  2  0  0  0  0
 18 29  1  0  0  0  0
 19 21  1  0  0  0  0
 19 30  1  0  0  0  0
 19 32  2  0  0  0  0
 20 26  1  0  0  0  0
 20 31  1  0  0  0  0
 20 33  2  0  0  0  0
 21 22  1  0  0  0  0
 22 23  1  0  0  0  0
 23 24  1  0  0  0  0
 24 30  1  0  0  0  0
 25 31  1  0  0  0  0
 27 28  1  0  0  0  0
  1 34  1  0  0  0  0
  2 35  1  0  0  0  0
  3 36  1  0  0  0  0
  4 37  1  0  0  0  0
  5 38  1  0  0  0  0
  6 39  1  0  0  0  0
  7 40  1  0  0  0  0
  8 41  1  0  0  0  0
  9 42  1  0  0  0  0
 15 43  1  0  0  0  0
 16 44  1  0  0  0  0
 17 45  1  0  0  0  0
 18 46  1  0  0  0  0
 21 47  1  0  0  0  0
 21 48  1  0  0  0  0
 22 49  1  0  0  0  0
 22 50  1  0  0  0  0
 23 51  1  0  0  0  0
 23 52  1  0  0  0  0
 24 53  1  0  0  0  0
 24 54  1  0  0  0  0
 25 55  1  0  0  0  0
 25 56  1  0  0  0  0
 26 57  1  0  0  0  0
 26 58  1  0  0  0  0
M  END
> <clash_score>
0.7790751876189459

> <docking_score>
-8.396596908569336

> <overlap_score>
1.0036615133285522

$$$$
BENZO_496_1
  -OEChem-08232013473D

 55 59  0     0  0  0  0  0  0999 V2000
    8.9960   -2.3380   25.5320 C   0  0  0  0  0  0  0  0  0  0  0  0
    9.6730   -3.4710   23.5300 C   0  0  0  0  0  0  0  0  0  0  0  0
    9.0720   -1.1280   24.8640 C   0  0  0  0  0  0  0  0  0  0  0  0
    9.7200   -2.2600   22.8630 C   0  0  0  0  0  0  0  0  0  0  0  0
   12.3542    1.4078   22.6022 C   0  0  0  0  0  0  0  0  0  0  0  0
   13.6822    1.4056   22.9680 C   0  0  0  0  0  0  0  0  0  0  0  0
   12.1874    1.2641   24.9161 C   0  0  0  0  0  0  0  0  0  0  0  0
   11.4881    1.3261   23.7307 C   0  0  0  0  0  0  0  0  0  0  0  0
    9.3070   -3.5340   24.8780 C   0  0  0  0  0  0  0  0  0  0  0  0
    9.3350   -1.0880   23.5010 C   0  0  0  0  0  0  0  0  0  0  0  0
    5.8300    0.9190   18.6970 C   0  0  0  0  0  0  0  0  0  0  0  0
    7.3170   -0.1610   19.8550 C   0  0  0  0  0  0  0  0  0  0  0  0
    4.6890    1.6810   18.4640 C   0  0  0  0  0  0  0  0  0  0  0  0
    3.9160    2.0630   19.5520 C   0  0  0  0  0  0  0  0  0  0  0  0
    4.2750    1.7050   20.8490 C   0  0  0  0  0  0  0  0  0  0  0  0
    5.4210    0.9600   21.0930 C   0  0  0  0  0  0  0  0  0  0  0  0
    8.3596   -5.0074   26.6308 C   0  0  0  0  0  0  0  0  0  0  0  0
    9.0420    0.3700   21.5280 C   0  0  0  0  0  0  0  0  0  0  0  0
    8.4579   -6.4047   27.2169 C   0  0  0  0  0  0  0  0  0  0  0  0
    8.4717   -7.4504   26.1159 C   0  0  0  0  0  0  0  0  0  0  0  0
    9.5645   -7.1893   25.0842 C   0  0  0  0  0  0  0  0  0  0  0  0
   10.2327   -5.8252   25.2501 C   0  0  0  0  0  0  0  0  0  0  0  0
    9.9898    1.3085   23.6366 C   0  0  0  0  0  0  0  0  0  0  0  0
    8.1890   -0.7180   20.8700 C   0  0  0  0  0  0  0  0  0  0  0  0
    6.7580    0.3810   17.8350 N   0  0  0  0  0  0  0  0  0  0  0  0
    7.6390   -0.2680   18.5410 N   0  0  0  0  0  0  0  0  0  0  0  0
    6.1790    0.5730   19.9990 N   0  0  0  0  0  0  0  0  0  0  0  0
    9.2529   -4.7798   25.5645 N   0  0  0  0  0  0  0  0  0  0  0  0
    9.4560    0.1560   22.8130 N   0  0  0  0  0  0  0  0  0  0  0  0
    7.5990   -4.1865   27.1424 O   0  0  0  0  0  0  0  0  0  0  0  0
    9.2690    1.4140   20.9380 O   0  0  0  0  0  0  0  0  0  0  0  0
   13.8809    1.3050   24.6659 S   0  0  0  0  0  0  0  0  0  0  0  0
    8.6895   -2.3529   26.5807 H   0  0  0  0  0  0  0  0  0  0  0  0
    9.9262   -4.3897   22.9916 H   0  0  0  0  0  0  0  0  0  0  0  0
    8.9224   -0.1998   25.4238 H   0  0  0  0  0  0  0  0  0  0  0  0
   10.0649   -2.2343   21.8258 H   0  0  0  0  0  0  0  0  0  0  0  0
   12.0240    1.4652   21.5727 H   0  0  0  0  0  0  0  0  0  0  0  0
   14.5454    1.4574   22.3195 H   0  0  0  0  0  0  0  0  0  0  0  0
   11.7888    1.1956   25.9188 H   0  0  0  0  0  0  0  0  0  0  0  0
    4.3966    1.9781   17.4720 H   0  0  0  0  0  0  0  0  0  0  0  0
    3.0227    2.6498   19.3695 H   0  0  0  0  0  0  0  0  0  0  0  0
    3.6570    2.0037   21.7071 H   0  0  0  0  0  0  0  0  0  0  0  0
    5.7202    0.6868   22.0802 H   0  0  0  0  0  0  0  0  0  0  0  0
    9.3706   -6.4745   27.7885 H   0  0  0  0  0  0  0  0  0  0  0  0
    7.6055   -6.5497   27.8636 H   0  0  0  0  0  0  0  0  0  0  0  0
    8.6095   -8.4604   26.5550 H   0  0  0  0  0  0  0  0  0  0  0  0
    7.4835   -7.4763   25.6142 H   0  0  0  0  0  0  0  0  0  0  0  0
   10.3359   -7.9850   25.1531 H   0  0  0  0  0  0  0  0  0  0  0  0
    9.1458   -7.2796   24.0582 H   0  0  0  0  0  0  0  0  0  0  0  0
   10.9408   -5.8640   26.0725 H   0  0  0  0  0  0  0  0  0  0  0  0
   10.7521   -5.5631   24.3347 H   0  0  0  0  0  0  0  0  0  0  0  0
    9.5411    1.2412   24.6337 H   0  0  0  0  0  0  0  0  0  0  0  0
    9.6144    2.2265   23.1724 H   0  0  0  0  0  0  0  0  0  0  0  0
    7.5972   -1.2056   21.6500 H   0  0  0  0  0  0  0  0  0  0  0  0
    8.8612   -1.4622   20.4334 H   0  0  0  0  0  0  0  0  0  0  0  0
  1  3  2  0  0  0  0
  1  9  1  0  0  0  0
  2  4  1  0  0  0  0
  2  9  2  0  0  0  0
  3 10  1  0  0  0  0
  4 10  2  0  0  0  0
  5  6  2  0  0  0  0
  5  8  1  0  0  0  0
  6 32  1  0  0  0  0
  7  8  2  0  0  0  0
  7 32  1  0  0  0  0
  8 23  1  0  0  0  0
  9 28  1  0  0  0  0
 10 29  1  0  0  0  0
 11 13  1  0  0  0  0
 11 25  2  0  0  0  0
 11 27  1  0  0  0  0
 12 24  1  0  0  0  0
 12 26  2  0  0  0  0
 12 27  1  0  0  0  0
 13 14  2  0  0  0  0
 14 15  1  0  0  0  0
 15 16  2  0  0  0  0
 16 27  1  0  0  0  0
 17 19  1  0  0  0  0
 17 28  1  0  0  0  0
 17 30  2  0  0  0  0
 18 24  1  0  0  0  0
 18 29  1  0  0  0  0
 18 31  2  0  0  0  0
 19 20  1  0  0  0  0
 20 21  1  0  0  0  0
 21 22  1  0  0  0  0
 22 28  1  0  0  0  0
 23 29  1  0  0  0  0
 25 26  1  0  0  0  0
  1 33  1  0  0  0  0
  2 34  1  0  0  0  0
  3 35  1  0  0  0  0
  4 36  1  0  0  0  0
  5 37  1  0  0  0  0
  6 38  1  0  0  0  0
  7 39  1  0  0  0  0
 13 40  1  0  0  0  0
 14 41  1  0  0  0  0
 15 42  1  0  0  0  0
 16 43  1  0  0  0  0
 19 44  1  0  0  0  0
 19 45  1  0  0  0  0
 20 46  1  0  0  0  0
 20 47  1  0  0  0  0
 21 48  1  0  0  0  0
 21 49  1  0  0  0  0
 22 50  1  0  0  0  0
 22 51  1  0  0  0  0
 23 52  1  0  0  0  0
 23 53  1  0  0  0  0
 24 54  1  0  0  0  0
 24 55  1  0  0  0  0
M  END
> <clash_score>
0.6354466317061015

> <docking_score>
-8.350055694580078

> <overlap_score>
0.98652583360672

$$$$
BENZO_499_1
  -OEChem-08232013473D

 58 62  0     0  0  0  0  0  0999 V2000
    8.9960   -2.3380   25.5320 C   0  0  0  0  0  0  0  0  0  0  0  0
    9.6730   -3.4710   23.5300 C   0  0  0  0  0  0  0  0  0  0  0  0
    9.0720   -1.1280   24.8640 C   0  0  0  0  0  0  0  0  0  0  0  0
    9.7200   -2.2600   22.8630 C   0  0  0  0  0  0  0  0  0  0  0  0
   12.2814    1.2680   24.8922 C   0  0  0  0  0  0  0  0  0  0  0  0
   12.3931    1.3998   22.7001 C   0  0  0  0  0  0  0  0  0  0  0  0
   11.4881    1.3261   23.7307 C   0  0  0  0  0  0  0  0  0  0  0  0
    9.3070   -3.5340   24.8780 C   0  0  0  0  0  0  0  0  0  0  0  0
    9.3350   -1.0880   23.5010 C   0  0  0  0  0  0  0  0  0  0  0  0
    5.8300    0.9190   18.6970 C   0  0  0  0  0  0  0  0  0  0  0  0
    7.3170   -0.1610   19.8550 C   0  0  0  0  0  0  0  0  0  0  0  0
    4.6890    1.6810   18.4640 C   0  0  0  0  0  0  0  0  0  0  0  0
    3.9160    2.0630   19.5520 C   0  0  0  0  0  0  0  0  0  0  0  0
    4.2750    1.7050   20.8490 C   0  0  0  0  0  0  0  0  0  0  0  0
    5.4210    0.9600   21.0930 C   0  0  0  0  0  0  0  0  0  0  0  0
    8.3597   -5.0073   26.6307 C   0  0  0  0  0  0  0  0  0  0  0  0
    9.0420    0.3700   21.5280 C   0  0  0  0  0  0  0  0  0  0  0  0
    8.4720   -6.3981   27.2296 C   0  0  0  0  0  0  0  0  0  0  0  0
    9.9252   -6.7605   27.4803 C   0  0  0  0  0  0  0  0  0  0  0  0
   10.7833   -6.6094   26.2282 C   0  0  0  0  0  0  0  0  0  0  0  0
   10.0539   -5.9099   25.0823 C   0  0  0  0  0  0  0  0  0  0  0  0
   14.8966    1.4396   22.6032 C   0  0  0  0  0  0  0  0  0  0  0  0
    9.9898    1.3085   23.6366 C   0  0  0  0  0  0  0  0  0  0  0  0
    8.1890   -0.7180   20.8700 C   0  0  0  0  0  0  0  0  0  0  0  0
   13.5897    1.3018   24.6252 N   0  0  0  0  0  0  0  0  0  0  0  0
    6.7580    0.3810   17.8350 N   0  0  0  0  0  0  0  0  0  0  0  0
    7.6390   -0.2680   18.5410 N   0  0  0  0  0  0  0  0  0  0  0  0
   13.6254    1.3818   23.2842 N   0  0  0  0  0  0  0  0  0  0  0  0
    6.1790    0.5730   19.9990 N   0  0  0  0  0  0  0  0  0  0  0  0
    9.2529   -4.7797   25.5644 N   0  0  0  0  0  0  0  0  0  0  0  0
    9.4560    0.1560   22.8130 N   0  0  0  0  0  0  0  0  0  0  0  0
    7.4954   -4.2356   27.0449 O   0  0  0  0  0  0  0  0  0  0  0  0
    9.2690    1.4140   20.9380 O   0  0  0  0  0  0  0  0  0  0  0  0
    8.6895   -2.3529   26.5807 H   0  0  0  0  0  0  0  0  0  0  0  0
    9.9262   -4.3897   22.9916 H   0  0  0  0  0  0  0  0  0  0  0  0
    8.9224   -0.1998   25.4238 H   0  0  0  0  0  0  0  0  0  0  0  0
   10.0649   -2.2343   21.8258 H   0  0  0  0  0  0  0  0  0  0  0  0
   11.9631    1.2015   25.9229 H   0  0  0  0  0  0  0  0  0  0  0  0
   12.2682    1.4607   21.6275 H   0  0  0  0  0  0  0  0  0  0  0  0
    4.3966    1.9781   17.4720 H   0  0  0  0  0  0  0  0  0  0  0  0
    3.0227    2.6498   19.3695 H   0  0  0  0  0  0  0  0  0  0  0  0
    3.6570    2.0037   21.7071 H   0  0  0  0  0  0  0  0  0  0  0  0
    5.7202    0.6868   22.0802 H   0  0  0  0  0  0  0  0  0  0  0  0
    7.9325   -6.4148   28.1641 H   0  0  0  0  0  0  0  0  0  0  0  0
    8.0254   -7.0920   26.5333 H   0  0  0  0  0  0  0  0  0  0  0  0
   10.3387   -6.1267   28.2923 H   0  0  0  0  0  0  0  0  0  0  0  0
    9.9904   -7.8023   27.8537 H   0  0  0  0  0  0  0  0  0  0  0  0
   11.7037   -6.0404   26.4771 H   0  0  0  0  0  0  0  0  0  0  0  0
   11.1411   -7.6068   25.8918 H   0  0  0  0  0  0  0  0  0  0  0  0
   10.7782   -5.5162   24.3756 H   0  0  0  0  0  0  0  0  0  0  0  0
    9.4042   -6.6189   24.5807 H   0  0  0  0  0  0  0  0  0  0  0  0
   15.1796    2.4910   22.5059 H   0  0  0  0  0  0  0  0  0  0  0  0
   15.6459    0.8942   23.1838 H   0  0  0  0  0  0  0  0  0  0  0  0
   14.8000    0.9757   21.6176 H   0  0  0  0  0  0  0  0  0  0  0  0
    9.5411    1.2412   24.6337 H   0  0  0  0  0  0  0  0  0  0  0  0
    9.6144    2.2265   23.1724 H   0  0  0  0  0  0  0  0  0  0  0  0
    7.5972   -1.2056   21.6500 H   0  0  0  0  0  0  0  0  0  0  0  0
    8.8612   -1.4622   20.4334 H   0  0  0  0  0  0  0  0  0  0  0  0
  1  3  2  0  0  0  0
  1  8  1  0  0  0  0
  2  4  1  0  0  0  0
  2  8  2  0  0  0  0
  3  9  1  0  0  0  0
  4  9  2  0  0  0  0
  5  7  1  0  0  0  0
  5 25  2  0  0  0  0
  6  7  2  0  0  0  0
  6 28  1  0  0  0  0
  7 23  1  0  0  0  0
  8 30  1  0  0  0  0
  9 31  1  0  0  0  0
 10 12  1  0  0  0  0
 10 26  2  0  0  0  0
 10 29  1  0  0  0  0
 11 24  1  0  0  0  0
 11 27  2  0  0  0  0
 11 29  1  0  0  0  0
 12 13  2  0  0  0  0
 13 14  1  0  0  0  0
 14 15  2  0  0  0  0
 15 29  1  0  0  0  0
 16 18  1  0  0  0  0
 16 30  1  0  0  0  0
 16 32  2  0  0  0  0
 17 24  1  0  0  0  0
 17 31  1  0  0  0  0
 17 33  2  0  0  0  0
 18 19  1  0  0  0  0
 19 20  1  0  0  0  0
 20 21  1  0  0  0  0
 21 30  1  0  0  0  0
 22 28  1  0  0  0  0
 23 31  1  0  0  0  0
 25 28  1  0  0  0  0
 26 27  1  0  0  0  0
  1 34  1  0  0  0  0
  2 35  1  0  0  0  0
  3 36  1  0  0  0  0
  4 37  1  0  0  0  0
  5 38  1  0  0  0  0
  6 39  1  0  0  0  0
 12 40  1  0  0  0  0
 13 41  1  0  0  0  0
 14 42  1  0  0  0  0
 15 43  1  0  0  0  0
 18 44  1  0  0  0  0
 18 45  1  0  0  0  0
 19 46  1  0  0  0  0
 19 47  1  0  0  0  0
 20 48  1  0  0  0  0
 20 49  1  0  0  0  0
 21 50  1  0  0  0  0
 21 51  1  0  0  0  0
 22 52  1  0  0  0  0
 22 53  1  0  0  0  0
 22 54  1  0  0  0  0
 23 55  1  0  0  0  0
 23 56  1  0  0  0  0
 24 57  1  0  0  0  0
 24 58  1  0  0  0  0
M  END
> <clash_score>
0.7790751876189459

> <docking_score>
-8.19617748260498

> <overlap_score>
0.9967290759086609

$$$$
BENZO_498_1
  -OEChem-08232013473D

 58 62  0     0  0  0  0  0  0999 V2000
   13.5359    0.4440   24.6609 C   0  0  0  0  0  0  0  0  0  0  0  0
   12.1439    0.4290   24.5739 C   0  0  0  0  0  0  0  0  0  0  0  0
    8.9960   -2.3380   25.5320 C   0  0  0  0  0  0  0  0  0  0  0  0
    9.6730   -3.4710   23.5300 C   0  0  0  0  0  0  0  0  0  0  0  0
    9.0720   -1.1280   24.8640 C   0  0  0  0  0  0  0  0  0  0  0  0
    9.7200   -2.2600   22.8630 C   0  0  0  0  0  0  0  0  0  0  0  0
   14.2722    1.3561   23.9048 C   0  0  0  0  0  0  0  0  0  0  0  0
   12.2244    2.2381   22.9745 C   0  0  0  0  0  0  0  0  0  0  0  0
   11.4881    1.3261   23.7307 C   0  0  0  0  0  0  0  0  0  0  0  0
    9.3070   -3.5340   24.8780 C   0  0  0  0  0  0  0  0  0  0  0  0
    9.3350   -1.0880   23.5010 C   0  0  0  0  0  0  0  0  0  0  0  0
   13.6165    2.2531   23.0616 C   0  0  0  0  0  0  0  0  0  0  0  0
    5.8300    0.9190   18.6970 C   0  0  0  0  0  0  0  0  0  0  0  0
    7.3170   -0.1610   19.8550 C   0  0  0  0  0  0  0  0  0  0  0  0
    4.6890    1.6810   18.4640 C   0  0  0  0  0  0  0  0  0  0  0  0
    3.9160    2.0630   19.5520 C   0  0  0  0  0  0  0  0  0  0  0  0
    4.2750    1.7050   20.8490 C   0  0  0  0  0  0  0  0  0  0  0  0
    5.4210    0.9600   21.0930 C   0  0  0  0  0  0  0  0  0  0  0  0
    8.3597   -5.0073   26.6307 C   0  0  0  0  0  0  0  0  0  0  0  0
    9.0420    0.3700   21.5280 C   0  0  0  0  0  0  0  0  0  0  0  0
    8.4720   -6.3981   27.2296 C   0  0  0  0  0  0  0  0  0  0  0  0
    9.9252   -6.7605   27.4803 C   0  0  0  0  0  0  0  0  0  0  0  0
   10.7833   -6.6094   26.2282 C   0  0  0  0  0  0  0  0  0  0  0  0
   10.0539   -5.9099   25.0823 C   0  0  0  0  0  0  0  0  0  0  0  0
    9.9898    1.3085   23.6366 C   0  0  0  0  0  0  0  0  0  0  0  0
    8.1890   -0.7180   20.8700 C   0  0  0  0  0  0  0  0  0  0  0  0
    6.7580    0.3810   17.8350 N   0  0  0  0  0  0  0  0  0  0  0  0
    7.6390   -0.2680   18.5410 N   0  0  0  0  0  0  0  0  0  0  0  0
    6.1790    0.5730   19.9990 N   0  0  0  0  0  0  0  0  0  0  0  0
    9.2529   -4.7797   25.5644 N   0  0  0  0  0  0  0  0  0  0  0  0
    9.4560    0.1560   22.8130 N   0  0  0  0  0  0  0  0  0  0  0  0
    7.4954   -4.2356   27.0449 O   0  0  0  0  0  0  0  0  0  0  0  0
    9.2690    1.4140   20.9380 O   0  0  0  0  0  0  0  0  0  0  0  0
   14.5255    3.3774   22.1281 Cl  0  0  0  0  0  0  0  0  0  0  0  0
   14.0462   -0.2547   25.3175 H   0  0  0  0  0  0  0  0  0  0  0  0
   11.5782   -0.2852   25.1666 H   0  0  0  0  0  0  0  0  0  0  0  0
    8.6895   -2.3529   26.5807 H   0  0  0  0  0  0  0  0  0  0  0  0
    9.9262   -4.3897   22.9916 H   0  0  0  0  0  0  0  0  0  0  0  0
    8.9224   -0.1998   25.4238 H   0  0  0  0  0  0  0  0  0  0  0  0
   10.0649   -2.2343   21.8258 H   0  0  0  0  0  0  0  0  0  0  0  0
   15.3567    1.3562   23.9825 H   0  0  0  0  0  0  0  0  0  0  0  0
   11.7084    2.9358   22.3190 H   0  0  0  0  0  0  0  0  0  0  0  0
    4.3966    1.9781   17.4720 H   0  0  0  0  0  0  0  0  0  0  0  0
    3.0227    2.6498   19.3695 H   0  0  0  0  0  0  0  0  0  0  0  0
    3.6570    2.0037   21.7071 H   0  0  0  0  0  0  0  0  0  0  0  0
    5.7202    0.6868   22.0802 H   0  0  0  0  0  0  0  0  0  0  0  0
    7.9325   -6.4148   28.1641 H   0  0  0  0  0  0  0  0  0  0  0  0
    8.0254   -7.0920   26.5333 H   0  0  0  0  0  0  0  0  0  0  0  0
   10.3387   -6.1267   28.2923 H   0  0  0  0  0  0  0  0  0  0  0  0
    9.9904   -7.8023   27.8537 H   0  0  0  0  0  0  0  0  0  0  0  0
   11.7037   -6.0404   26.4771 H   0  0  0  0  0  0  0  0  0  0  0  0
   11.1411   -7.6068   25.8918 H   0  0  0  0  0  0  0  0  0  0  0  0
   10.7782   -5.5162   24.3756 H   0  0  0  0  0  0  0  0  0  0  0  0
    9.4042   -6.6189   24.5807 H   0  0  0  0  0  0  0  0  0  0  0  0
    9.5411    1.2412   24.6337 H   0  0  0  0  0  0  0  0  0  0  0  0
    9.6144    2.2265   23.1724 H   0  0  0  0  0  0  0  0  0  0  0  0
    7.5972   -1.2056   21.6500 H   0  0  0  0  0  0  0  0  0  0  0  0
    8.8612   -1.4622   20.4334 H   0  0  0  0  0  0  0  0  0  0  0  0
  1  2  2  0  0  0  0
  1  7  1  0  0  0  0
  2  9  1  0  0  0  0
  3  5  2  0  0  0  0
  3 10  1  0  0  0  0
  4  6  1  0  0  0  0
  4 10  2  0  0  0  0
  5 11  1  0  0  0  0
  6 11  2  0  0  0  0
  7 12  2  0  0  0  0
  8  9  2  0  0  0  0
  8 12  1  0  0  0  0
  9 25  1  0  0  0  0
 10 30  1  0  0  0  0
 11 31  1  0  0  0  0
 12 34  1  0  0  0  0
 13 15  1  0  0  0  0
 13 27  2  0  0  0  0
 13 29  1  0  0  0  0
 14 26  1  0  0  0  0
 14 28  2  0  0  0  0
 14 29  1  0  0  0  0
 15 16  2  0  0  0  0
 16 17  1  0  0  0  0
 17 18  2  0  0  0  0
 18 29  1  0  0  0  0
 19 21  1  0  0  0  0
 19 30  1  0  0  0  0
 19 32  2  0  0  0  0
 20 26  1  0  0  0  0
 20 31  1  0  0  0  0
 20 33  2  0  0  0  0
 21 22  1  0  0  0  0
 22 23  1  0  0  0  0
 23 24  1  0  0  0  0
 24 30  1  0  0  0  0
 25 31  1  0  0  0  0
 27 28  1  0  0  0  0
  1 35  1  0  0  0  0
  2 36  1  0  0  0  0
  3 37  1  0  0  0  0
  4 38  1  0  0  0  0
  5 39  1  0  0  0  0
  6 40  1  0  0  0  0
  7 41  1  0  0  0  0
  8 42  1  0  0  0  0
 15 43  1  0  0  0  0
 16 44  1  0  0  0  0
 17 45  1  0  0  0  0
 18 46  1  0  0  0  0
 21 47  1  0  0  0  0
 21 48  1  0  0  0  0
 22 49  1  0  0  0  0
 22 50  1  0  0  0  0
 23 51  1  0  0  0  0
 23 52  1  0  0  0  0
 24 53  1  0  0  0  0
 24 54  1  0  0  0  0
 25 55  1  0  0  0  0
 25 56  1  0  0  0  0
 26 57  1  0  0  0  0
 26 58  1  0  0  0  0
M  END
> <clash_score>
0.7790751876189459

> <docking_score>
-7.3065080642700195

> <overlap_score>
1.0141552686691284

$$$$
BENZO_501_1
  -OEChem-08232013473D

 57 61  0     0  0  0  0  0  0999 V2000
   14.2720    1.3593   23.9077 C   0  0  0  0  0  0  0  0  0  0  0  0
   13.5215    0.6664   24.8575 C   0  0  0  0  0  0  0  0  0  0  0  0
   13.6306    2.0358   22.8701 C   0  0  0  0  0  0  0  0  0  0  0  0
   12.1295    0.6498   24.7696 C   0  0  0  0  0  0  0  0  0  0  0  0
   12.2386    2.0192   22.7822 C   0  0  0  0  0  0  0  0  0  0  0  0
    8.9960   -2.3380   25.5320 C   0  0  0  0  0  0  0  0  0  0  0  0
    9.6730   -3.4710   23.5300 C   0  0  0  0  0  0  0  0  0  0  0  0
    9.0720   -1.1280   24.8640 C   0  0  0  0  0  0  0  0  0  0  0  0
    9.7200   -2.2600   22.8630 C   0  0  0  0  0  0  0  0  0  0  0  0
   11.4880    1.3262   23.7320 C   0  0  0  0  0  0  0  0  0  0  0  0
    9.3070   -3.5340   24.8780 C   0  0  0  0  0  0  0  0  0  0  0  0
    9.3350   -1.0880   23.5010 C   0  0  0  0  0  0  0  0  0  0  0  0
    5.8300    0.9190   18.6970 C   0  0  0  0  0  0  0  0  0  0  0  0
    7.3170   -0.1610   19.8550 C   0  0  0  0  0  0  0  0  0  0  0  0
    4.6890    1.6810   18.4640 C   0  0  0  0  0  0  0  0  0  0  0  0
    3.9160    2.0630   19.5520 C   0  0  0  0  0  0  0  0  0  0  0  0
    4.2750    1.7050   20.8490 C   0  0  0  0  0  0  0  0  0  0  0  0
    5.4210    0.9600   21.0930 C   0  0  0  0  0  0  0  0  0  0  0  0
    9.0420    0.3700   21.5280 C   0  0  0  0  0  0  0  0  0  0  0  0
   10.0771   -5.0255   26.7193 C   0  0  0  0  0  0  0  0  0  0  0  0
    8.0927   -5.6195   25.4071 C   0  0  0  0  0  0  0  0  0  0  0  0
    9.1933   -4.9427   27.9592 C   0  0  0  0  0  0  0  0  0  0  0  0
    7.2756   -5.5290   26.6967 C   0  0  0  0  0  0  0  0  0  0  0  0
    9.9898    1.3085   23.6366 C   0  0  0  0  0  0  0  0  0  0  0  0
    8.1890   -0.7180   20.8700 C   0  0  0  0  0  0  0  0  0  0  0  0
    6.7580    0.3810   17.8350 N   0  0  0  0  0  0  0  0  0  0  0  0
    7.6390   -0.2680   18.5410 N   0  0  0  0  0  0  0  0  0  0  0  0
    6.1790    0.5730   19.9990 N   0  0  0  0  0  0  0  0  0  0  0  0
    9.2563   -4.7368   25.5413 N   0  0  0  0  0  0  0  0  0  0  0  0
    9.4560    0.1560   22.8130 N   0  0  0  0  0  0  0  0  0  0  0  0
    9.2690    1.4140   20.9380 O   0  0  0  0  0  0  0  0  0  0  0  0
    8.0883   -5.8459   27.8325 O   0  0  0  0  0  0  0  0  0  0  0  0
   15.3558    1.3733   23.9771 H   0  0  0  0  0  0  0  0  0  0  0  0
   14.0207    0.1405   25.6662 H   0  0  0  0  0  0  0  0  0  0  0  0
   14.2146    2.5763   22.1311 H   0  0  0  0  0  0  0  0  0  0  0  0
   11.5528    0.1071   25.5140 H   0  0  0  0  0  0  0  0  0  0  0  0
   11.7475    2.5489   21.9702 H   0  0  0  0  0  0  0  0  0  0  0  0
    8.6905   -2.3533   26.5810 H   0  0  0  0  0  0  0  0  0  0  0  0
    9.9266   -4.3896   22.9917 H   0  0  0  0  0  0  0  0  0  0  0  0
    8.9233   -0.1992   25.4232 H   0  0  0  0  0  0  0  0  0  0  0  0
   10.0650   -2.2330   21.8256 H   0  0  0  0  0  0  0  0  0  0  0  0
    4.3966    1.9781   17.4720 H   0  0  0  0  0  0  0  0  0  0  0  0
    3.0227    2.6498   19.3695 H   0  0  0  0  0  0  0  0  0  0  0  0
    3.6570    2.0037   21.7071 H   0  0  0  0  0  0  0  0  0  0  0  0
    5.7202    0.6868   22.0802 H   0  0  0  0  0  0  0  0  0  0  0  0
   10.8985   -4.3115   26.8085 H   0  0  0  0  0  0  0  0  0  0  0  0
   10.4915   -6.0334   26.6323 H   0  0  0  0  0  0  0  0  0  0  0  0
    8.4327   -6.6456   25.2620 H   0  0  0  0  0  0  0  0  0  0  0  0
    7.4725   -5.3241   24.5619 H   0  0  0  0  0  0  0  0  0  0  0  0
    9.7636   -5.2398   28.8419 H   0  0  0  0  0  0  0  0  0  0  0  0
    8.8236   -3.9268   28.1248 H   0  0  0  0  0  0  0  0  0  0  0  0
    6.8339   -4.5337   26.8232 H   0  0  0  0  0  0  0  0  0  0  0  0
    6.4550   -6.2521   26.6643 H   0  0  0  0  0  0  0  0  0  0  0  0
    9.5403    1.2398   24.6332 H   0  0  0  0  0  0  0  0  0  0  0  0
    9.6146    2.2271   23.1732 H   0  0  0  0  0  0  0  0  0  0  0  0
    7.5972   -1.2056   21.6500 H   0  0  0  0  0  0  0  0  0  0  0  0
    8.8612   -1.4622   20.4334 H   0  0  0  0  0  0  0  0  0  0  0  0
  1  2  1  0  0  0  0
  1  3  2  0  0  0  0
  2  4  2  0  0  0  0
  3  5  1  0  0  0  0
  4 10  1  0  0  0  0
  5 10  2  0  0  0  0
  6  8  2  0  0  0  0
  6 11  1  0  0  0  0
  7  9  1  0  0  0  0
  7 11  2  0  0  0  0
  8 12  1  0  0  0  0
  9 12  2  0  0  0  0
 10 24  1  0  0  0  0
 11 29  1  0  0  0  0
 12 30  1  0  0  0  0
 13 15  1  0  0  0  0
 13 26  2  0  0  0  0
 13 28  1  0  0  0  0
 14 25  1  0  0  0  0
 14 27  2  0  0  0  0
 14 28  1  0  0  0  0
 15 16  2  0  0  0  0
 16 17  1  0  0  0  0
 17 18  2  0  0  0  0
 18 28  1  0  0  0  0
 19 25  1  0  0  0  0
 19 30  1  0  0  0  0
 19 31  2  0  0  0  0
 20 22  1  0  0  0  0
 20 29  1  0  0  0  0
 21 23  1  0  0  0  0
 21 29  1  0  0  0  0
 22 32  1  0  0  0  0
 23 32  1  0  0  0  0
 24 30  1  0  0  0  0
 26 27  1  0  0  0  0
  1 33  1  0  0  0  0
  2 34  1  0  0  0  0
  3 35  1  0  0  0  0
  4 36  1  0  0  0  0
  5 37  1  0  0  0  0
  6 38  1  0  0  0  0
  7 39  1  0  0  0  0
  8 40  1  0  0  0  0
  9 41  1  0  0  0  0
 15 42  1  0  0  0  0
 16 43  1  0  0  0  0
 17 44  1  0  0  0  0
 18 45  1  0  0  0  0
 20 46  1  0  0  0  0
 20 47  1  0  0  0  0
 21 48  1  0  0  0  0
 21 49  1  0  0  0  0
 22 50  1  0  0  0  0
 22 51  1  0  0  0  0
 23 52  1  0  0  0  0
 23 53  1  0  0  0  0
 24 54  1  0  0  0  0
 24 55  1  0  0  0  0
 25 56  1  0  0  0  0
 25 57  1  0  0  0  0
M  END
> <clash_score>
0

> <docking_score>
-9.373451232910156

> <overlap_score>
0.9898089170455933

$$$$
BENZO_500_1
  -OEChem-08232013473D

 54 58  0     0  0  0  0  0  0999 V2000
    8.9960   -2.3380   25.5320 C   0  0  0  0  0  0  0  0  0  0  0  0
    9.6730   -3.4710   23.5300 C   0  0  0  0  0  0  0  0  0  0  0  0
    9.0720   -1.1280   24.8640 C   0  0  0  0  0  0  0  0  0  0  0  0
    9.7200   -2.2600   22.8630 C   0  0  0  0  0  0  0  0  0  0  0  0
   12.2995    0.1552   23.7094 C   0  0  0  0  0  0  0  0  0  0  0  0
   13.6405    0.4528   23.8132 C   0  0  0  0  0  0  0  0  0  0  0  0
   12.2399    2.4743   23.8523 C   0  0  0  0  0  0  0  0  0  0  0  0
   11.4880    1.3262   23.7320 C   0  0  0  0  0  0  0  0  0  0  0  0
    9.3070   -3.5340   24.8780 C   0  0  0  0  0  0  0  0  0  0  0  0
    9.3350   -1.0880   23.5010 C   0  0  0  0  0  0  0  0  0  0  0  0
    5.8300    0.9190   18.6970 C   0  0  0  0  0  0  0  0  0  0  0  0
    7.3170   -0.1610   19.8550 C   0  0  0  0  0  0  0  0  0  0  0  0
    4.6890    1.6810   18.4640 C   0  0  0  0  0  0  0  0  0  0  0  0
    3.9160    2.0630   19.5520 C   0  0  0  0  0  0  0  0  0  0  0  0
    4.2750    1.7050   20.8490 C   0  0  0  0  0  0  0  0  0  0  0  0
    5.4210    0.9600   21.0930 C   0  0  0  0  0  0  0  0  0  0  0  0
    9.0420    0.3700   21.5280 C   0  0  0  0  0  0  0  0  0  0  0  0
   10.0771   -5.0255   26.7193 C   0  0  0  0  0  0  0  0  0  0  0  0
    8.0927   -5.6195   25.4071 C   0  0  0  0  0  0  0  0  0  0  0  0
    9.1933   -4.9427   27.9592 C   0  0  0  0  0  0  0  0  0  0  0  0
    7.2756   -5.5290   26.6967 C   0  0  0  0  0  0  0  0  0  0  0  0
    9.9898    1.3085   23.6366 C   0  0  0  0  0  0  0  0  0  0  0  0
    8.1890   -0.7180   20.8700 C   0  0  0  0  0  0  0  0  0  0  0  0
    6.7580    0.3810   17.8350 N   0  0  0  0  0  0  0  0  0  0  0  0
    7.6390   -0.2680   18.5410 N   0  0  0  0  0  0  0  0  0  0  0  0
    6.1790    0.5730   19.9990 N   0  0  0  0  0  0  0  0  0  0  0  0
    9.2563   -4.7368   25.5413 N   0  0  0  0  0  0  0  0  0  0  0  0
    9.4560    0.1560   22.8130 N   0  0  0  0  0  0  0  0  0  0  0  0
    9.2690    1.4140   20.9380 O   0  0  0  0  0  0  0  0  0  0  0  0
    8.0883   -5.8459   27.8325 O   0  0  0  0  0  0  0  0  0  0  0  0
   13.9168    2.1382   23.9372 S   0  0  0  0  0  0  0  0  0  0  0  0
    8.6905   -2.3533   26.5810 H   0  0  0  0  0  0  0  0  0  0  0  0
    9.9266   -4.3896   22.9917 H   0  0  0  0  0  0  0  0  0  0  0  0
    8.9233   -0.1992   25.4232 H   0  0  0  0  0  0  0  0  0  0  0  0
   10.0650   -2.2330   21.8256 H   0  0  0  0  0  0  0  0  0  0  0  0
   11.9228   -0.8561   23.6221 H   0  0  0  0  0  0  0  0  0  0  0  0
   14.4710   -0.2387   23.8228 H   0  0  0  0  0  0  0  0  0  0  0  0
   11.8886    3.4960   23.8960 H   0  0  0  0  0  0  0  0  0  0  0  0
    4.3966    1.9781   17.4720 H   0  0  0  0  0  0  0  0  0  0  0  0
    3.0227    2.6498   19.3695 H   0  0  0  0  0  0  0  0  0  0  0  0
    3.6570    2.0037   21.7071 H   0  0  0  0  0  0  0  0  0  0  0  0
    5.7202    0.6868   22.0802 H   0  0  0  0  0  0  0  0  0  0  0  0
   10.8985   -4.3115   26.8085 H   0  0  0  0  0  0  0  0  0  0  0  0
   10.4915   -6.0334   26.6323 H   0  0  0  0  0  0  0  0  0  0  0  0
    8.4327   -6.6456   25.2620 H   0  0  0  0  0  0  0  0  0  0  0  0
    7.4725   -5.3241   24.5619 H   0  0  0  0  0  0  0  0  0  0  0  0
    9.7636   -5.2398   28.8419 H   0  0  0  0  0  0  0  0  0  0  0  0
    8.8236   -3.9268   28.1248 H   0  0  0  0  0  0  0  0  0  0  0  0
    6.8339   -4.5337   26.8232 H   0  0  0  0  0  0  0  0  0  0  0  0
    6.4550   -6.2521   26.6643 H   0  0  0  0  0  0  0  0  0  0  0  0
    9.5403    1.2398   24.6332 H   0  0  0  0  0  0  0  0  0  0  0  0
    9.6146    2.2271   23.1732 H   0  0  0  0  0  0  0  0  0  0  0  0
    7.5972   -1.2056   21.6500 H   0  0  0  0  0  0  0  0  0  0  0  0
    8.8612   -1.4622   20.4334 H   0  0  0  0  0  0  0  0  0  0  0  0
  1  3  2  0  0  0  0
  1  9  1  0  0  0  0
  2  4  1  0  0  0  0
  2  9  2  0  0  0  0
  3 10  1  0  0  0  0
  4 10  2  0  0  0  0
  5  6  2  0  0  0  0
  5  8  1  0  0  0  0
  6 31  1  0  0  0  0
  7  8  2  0  0  0  0
  7 31  1  0  0  0  0
  8 22  1  0  0  0  0
  9 27  1  0  0  0  0
 10 28  1  0  0  0  0
 11 13  1  0  0  0  0
 11 24  2  0  0  0  0
 11 26  1  0  0  0  0
 12 23  1  0  0  0  0
 12 25  2  0  0  0  0
 12 26  1  0  0  0  0
 13 14  2  0  0  0  0
 14 15  1  0  0  0  0
 15 16  2  0  0  0  0
 16 26  1  0  0  0  0
 17 23  1  0  0  0  0
 17 28  1  0  0  0  0
 17 29  2  0  0  0  0
 18 20  1  0  0  0  0
 18 27  1  0  0  0  0
 19 21  1  0  0  0  0
 19 27  1  0  0  0  0
 20 30  1  0  0  0  0
 21 30  1  0  0  0  0
 22 28  1  0  0  0  0
 24 25  1  0  0  0  0
  1 32  1  0  0  0  0
  2 33  1  0  0  0  0
  3 34  1  0  0  0  0
  4 35  1  0  0  0  0
  5 36  1  0  0  0  0
  6 37  1  0  0  0  0
  7 38  1  0  0  0  0
 13 39  1  0  0  0  0
 14 40  1  0  0  0  0
 15 41  1  0  0  0  0
 16 42  1  0  0  0  0
 18 43  1  0  0  0  0
 18 44  1  0  0  0  0
 19 45  1  0  0  0  0
 19 46  1  0  0  0  0
 20 47  1  0  0  0  0
 20 48  1  0  0  0  0
 21 49  1  0  0  0  0
 21 50  1  0  0  0  0
 22 51  1  0  0  0  0
 22 52  1  0  0  0  0
 23 53  1  0  0  0  0
 23 54  1  0  0  0  0
M  END
> <clash_score>
0

> <docking_score>
-8.477684020996094

> <overlap_score>
0.9743606448173523

$$$$
BENZO_503_1
  -OEChem-08232013473D

 57 61  0     0  0  0  0  0  0999 V2000
    8.9960   -2.3380   25.5320 C   0  0  0  0  0  0  0  0  0  0  0  0
    9.6730   -3.4710   23.5300 C   0  0  0  0  0  0  0  0  0  0  0  0
    9.0720   -1.1280   24.8640 C   0  0  0  0  0  0  0  0  0  0  0  0
    9.7200   -2.2600   22.8630 C   0  0  0  0  0  0  0  0  0  0  0  0
   12.2804    1.2668   24.8940 C   0  0  0  0  0  0  0  0  0  0  0  0
   12.3938    1.4014   22.7022 C   0  0  0  0  0  0  0  0  0  0  0  0
   11.4880    1.3262   23.7320 C   0  0  0  0  0  0  0  0  0  0  0  0
    9.3070   -3.5340   24.8780 C   0  0  0  0  0  0  0  0  0  0  0  0
    9.3350   -1.0880   23.5010 C   0  0  0  0  0  0  0  0  0  0  0  0
    5.8300    0.9190   18.6970 C   0  0  0  0  0  0  0  0  0  0  0  0
    7.3170   -0.1610   19.8550 C   0  0  0  0  0  0  0  0  0  0  0  0
    4.6890    1.6810   18.4640 C   0  0  0  0  0  0  0  0  0  0  0  0
    3.9160    2.0630   19.5520 C   0  0  0  0  0  0  0  0  0  0  0  0
    4.2750    1.7050   20.8490 C   0  0  0  0  0  0  0  0  0  0  0  0
    5.4210    0.9600   21.0930 C   0  0  0  0  0  0  0  0  0  0  0  0
    9.0420    0.3700   21.5280 C   0  0  0  0  0  0  0  0  0  0  0  0
    9.5175   -4.8597   26.9771 C   0  0  0  0  0  0  0  0  0  0  0  0
    8.5165   -5.8725   24.9808 C   0  0  0  0  0  0  0  0  0  0  0  0
    8.1868   -5.0439   27.6987 C   0  0  0  0  0  0  0  0  0  0  0  0
    7.2200   -6.0347   25.7755 C   0  0  0  0  0  0  0  0  0  0  0  0
   14.8975    1.4417   22.6075 C   0  0  0  0  0  0  0  0  0  0  0  0
    9.9898    1.3085   23.6366 C   0  0  0  0  0  0  0  0  0  0  0  0
    8.1890   -0.7180   20.8700 C   0  0  0  0  0  0  0  0  0  0  0  0
   13.5889    1.3011   24.6282 N   0  0  0  0  0  0  0  0  0  0  0  0
    6.7580    0.3810   17.8350 N   0  0  0  0  0  0  0  0  0  0  0  0
    7.6390   -0.2680   18.5410 N   0  0  0  0  0  0  0  0  0  0  0  0
   13.6257    1.3828   23.2873 N   0  0  0  0  0  0  0  0  0  0  0  0
    6.1790    0.5730   19.9990 N   0  0  0  0  0  0  0  0  0  0  0  0
    9.2563   -4.7368   25.5413 N   0  0  0  0  0  0  0  0  0  0  0  0
    9.4560    0.1560   22.8130 N   0  0  0  0  0  0  0  0  0  0  0  0
    9.2690    1.4140   20.9380 O   0  0  0  0  0  0  0  0  0  0  0  0
    7.4994   -6.1853   27.1719 O   0  0  0  0  0  0  0  0  0  0  0  0
    8.6905   -2.3533   26.5810 H   0  0  0  0  0  0  0  0  0  0  0  0
    9.9266   -4.3896   22.9917 H   0  0  0  0  0  0  0  0  0  0  0  0
    8.9233   -0.1992   25.4232 H   0  0  0  0  0  0  0  0  0  0  0  0
   10.0650   -2.2330   21.8256 H   0  0  0  0  0  0  0  0  0  0  0  0
   11.9612    1.1990   25.9244 H   0  0  0  0  0  0  0  0  0  0  0  0
   12.2699    1.4636   21.6296 H   0  0  0  0  0  0  0  0  0  0  0  0
    4.3966    1.9781   17.4720 H   0  0  0  0  0  0  0  0  0  0  0  0
    3.0227    2.6498   19.3695 H   0  0  0  0  0  0  0  0  0  0  0  0
    3.6570    2.0037   21.7071 H   0  0  0  0  0  0  0  0  0  0  0  0
    5.7202    0.6868   22.0802 H   0  0  0  0  0  0  0  0  0  0  0  0
   10.0205   -3.9698   27.3609 H   0  0  0  0  0  0  0  0  0  0  0  0
   10.1535   -5.7310   27.1549 H   0  0  0  0  0  0  0  0  0  0  0  0
    9.1181   -6.7773   25.0755 H   0  0  0  0  0  0  0  0  0  0  0  0
    8.2812   -5.7064   23.9305 H   0  0  0  0  0  0  0  0  0  0  0  0
    8.3629   -5.2252   28.7611 H   0  0  0  0  0  0  0  0  0  0  0  0
    7.5530   -4.1570   27.6103 H   0  0  0  0  0  0  0  0  0  0  0  0
    6.5459   -5.1839   25.6221 H   0  0  0  0  0  0  0  0  0  0  0  0
    6.6948   -6.9354   25.4436 H   0  0  0  0  0  0  0  0  0  0  0  0
   15.1803    2.4933   22.5117 H   0  0  0  0  0  0  0  0  0  0  0  0
   15.6463    0.8957   23.1880 H   0  0  0  0  0  0  0  0  0  0  0  0
   14.8017    0.9790   21.6212 H   0  0  0  0  0  0  0  0  0  0  0  0
    9.5403    1.2398   24.6332 H   0  0  0  0  0  0  0  0  0  0  0  0
    9.6146    2.2271   23.1732 H   0  0  0  0  0  0  0  0  0  0  0  0
    7.5972   -1.2056   21.6500 H   0  0  0  0  0  0  0  0  0  0  0  0
    8.8612   -1.4622   20.4334 H   0  0  0  0  0  0  0  0  0  0  0  0
  1  3  2  0  0  0  0
  1  8  1  0  0  0  0
  2  4  1  0  0  0  0
  2  8  2  0  0  0  0
  3  9  1  0  0  0  0
  4  9  2  0  0  0  0
  5  7  1  0  0  0  0
  5 24  2  0  0  0  0
  6  7  2  0  0  0  0
  6 27  1  0  0  0  0
  7 22  1  0  0  0  0
  8 29  1  0  0  0  0
  9 30  1  0  0  0  0
 10 12  1  0  0  0  0
 10 25  2  0  0  0  0
 10 28  1  0  0  0  0
 11 23  1  0  0  0  0
 11 26  2  0  0  0  0
 11 28  1  0  0  0  0
 12 13  2  0  0  0  0
 13 14  1  0  0  0  0
 14 15  2  0  0  0  0
 15 28  1  0  0  0  0
 16 23  1  0  0  0  0
 16 30  1  0  0  0  0
 16 31  2  0  0  0  0
 17 19  1  0  0  0  0
 17 29  1  0  0  0  0
 18 20  1  0  0  0  0
 18 29  1  0  0  0  0
 19 32  1  0  0  0  0
 20 32  1  0  0  0  0
 21 27  1  0  0  0  0
 22 30  1  0  0  0  0
 24 27  1  0  0  0  0
 25 26  1  0  0  0  0
  1 33  1  0  0  0  0
  2 34  1  0  0  0  0
  3 35  1  0  0  0  0
  4 36  1  0  0  0  0
  5 37  1  0  0  0  0
  6 38  1  0  0  0  0
 12 39  1  0  0  0  0
 13 40  1  0  0  0  0
 14 41  1  0  0  0  0
 15 42  1  0  0  0  0
 17 43  1  0  0  0  0
 17 44  1  0  0  0  0
 18 45  1  0  0  0  0
 18 46  1  0  0  0  0
 19 47  1  0  0  0  0
 19 48  1  0  0  0  0
 20 49  1  0  0  0  0
 20 50  1  0  0  0  0
 21 51  1  0  0  0  0
 21 52  1  0  0  0  0
 21 53  1  0  0  0  0
 22 54  1  0  0  0  0
 22 55  1  0  0  0  0
 23 56  1  0  0  0  0
 23 57  1  0  0  0  0
M  END
> <clash_score>
0

> <docking_score>
-9.134366989135742

> <overlap_score>
0.9866517186164856

$$$$
BENZO_502_1
  -OEChem-08232013473D

 57 61  0     0  0  0  0  0  0999 V2000
   13.5352    0.4433   24.6627 C   0  0  0  0  0  0  0  0  0  0  0  0
   12.1432    0.4282   24.5746 C   0  0  0  0  0  0  0  0  0  0  0  0
    8.9960   -2.3380   25.5320 C   0  0  0  0  0  0  0  0  0  0  0  0
    9.6730   -3.4710   23.5300 C   0  0  0  0  0  0  0  0  0  0  0  0
    9.0720   -1.1280   24.8640 C   0  0  0  0  0  0  0  0  0  0  0  0
    9.7200   -2.2600   22.8630 C   0  0  0  0  0  0  0  0  0  0  0  0
   14.2720    1.3564   23.9084 C   0  0  0  0  0  0  0  0  0  0  0  0
   12.2248    2.2393   22.9776 C   0  0  0  0  0  0  0  0  0  0  0  0
   11.4880    1.3262   23.7320 C   0  0  0  0  0  0  0  0  0  0  0  0
    9.3070   -3.5340   24.8780 C   0  0  0  0  0  0  0  0  0  0  0  0
    9.3350   -1.0880   23.5010 C   0  0  0  0  0  0  0  0  0  0  0  0
   13.6168    2.2544   23.0658 C   0  0  0  0  0  0  0  0  0  0  0  0
    5.8300    0.9190   18.6970 C   0  0  0  0  0  0  0  0  0  0  0  0
    7.3170   -0.1610   19.8550 C   0  0  0  0  0  0  0  0  0  0  0  0
    4.6890    1.6810   18.4640 C   0  0  0  0  0  0  0  0  0  0  0  0
    3.9160    2.0630   19.5520 C   0  0  0  0  0  0  0  0  0  0  0  0
    4.2750    1.7050   20.8490 C   0  0  0  0  0  0  0  0  0  0  0  0
    5.4210    0.9600   21.0930 C   0  0  0  0  0  0  0  0  0  0  0  0
    9.0420    0.3700   21.5280 C   0  0  0  0  0  0  0  0  0  0  0  0
   10.0771   -5.0255   26.7193 C   0  0  0  0  0  0  0  0  0  0  0  0
    8.0927   -5.6195   25.4071 C   0  0  0  0  0  0  0  0  0  0  0  0
    9.1933   -4.9427   27.9592 C   0  0  0  0  0  0  0  0  0  0  0  0
    7.2756   -5.5290   26.6967 C   0  0  0  0  0  0  0  0  0  0  0  0
    9.9898    1.3085   23.6366 C   0  0  0  0  0  0  0  0  0  0  0  0
    8.1890   -0.7180   20.8700 C   0  0  0  0  0  0  0  0  0  0  0  0
    6.7580    0.3810   17.8350 N   0  0  0  0  0  0  0  0  0  0  0  0
    7.6390   -0.2680   18.5410 N   0  0  0  0  0  0  0  0  0  0  0  0
    6.1790    0.5730   19.9990 N   0  0  0  0  0  0  0  0  0  0  0  0
    9.2563   -4.7368   25.5413 N   0  0  0  0  0  0  0  0  0  0  0  0
    9.4560    0.1560   22.8130 N   0  0  0  0  0  0  0  0  0  0  0  0
    9.2690    1.4140   20.9380 O   0  0  0  0  0  0  0  0  0  0  0  0
    8.0883   -5.8459   27.8325 O   0  0  0  0  0  0  0  0  0  0  0  0
   14.5264    3.3800   22.1345 Cl  0  0  0  0  0  0  0  0  0  0  0  0
   14.0450   -0.2562   25.3189 H   0  0  0  0  0  0  0  0  0  0  0  0
   11.5772   -0.2868   25.1659 H   0  0  0  0  0  0  0  0  0  0  0  0
    8.6905   -2.3533   26.5810 H   0  0  0  0  0  0  0  0  0  0  0  0
    9.9266   -4.3896   22.9917 H   0  0  0  0  0  0  0  0  0  0  0  0
    8.9233   -0.1992   25.4232 H   0  0  0  0  0  0  0  0  0  0  0  0
   10.0650   -2.2330   21.8256 H   0  0  0  0  0  0  0  0  0  0  0  0
   15.3564    1.3566   23.9870 H   0  0  0  0  0  0  0  0  0  0  0  0
   11.7092    2.9378   22.3225 H   0  0  0  0  0  0  0  0  0  0  0  0
    4.3966    1.9781   17.4720 H   0  0  0  0  0  0  0  0  0  0  0  0
    3.0227    2.6498   19.3695 H   0  0  0  0  0  0  0  0  0  0  0  0
    3.6570    2.0037   21.7071 H   0  0  0  0  0  0  0  0  0  0  0  0
    5.7202    0.6868   22.0802 H   0  0  0  0  0  0  0  0  0  0  0  0
   10.8985   -4.3115   26.8085 H   0  0  0  0  0  0  0  0  0  0  0  0
   10.4915   -6.0334   26.6323 H   0  0  0  0  0  0  0  0  0  0  0  0
    8.4327   -6.6456   25.2620 H   0  0  0  0  0  0  0  0  0  0  0  0
    7.4725   -5.3241   24.5619 H   0  0  0  0  0  0  0  0  0  0  0  0
    9.7636   -5.2398   28.8419 H   0  0  0  0  0  0  0  0  0  0  0  0
    8.8236   -3.9268   28.1248 H   0  0  0  0  0  0  0  0  0  0  0  0
    6.8339   -4.5337   26.8232 H   0  0  0  0  0  0  0  0  0  0  0  0
    6.4550   -6.2521   26.6643 H   0  0  0  0  0  0  0  0  0  0  0  0
    9.5403    1.2398   24.6332 H   0  0  0  0  0  0  0  0  0  0  0  0
    9.6146    2.2271   23.1732 H   0  0  0  0  0  0  0  0  0  0  0  0
    7.5972   -1.2056   21.6500 H   0  0  0  0  0  0  0  0  0  0  0  0
    8.8612   -1.4622   20.4334 H   0  0  0  0  0  0  0  0  0  0  0  0
  1  2  2  0  0  0  0
  1  7  1  0  0  0  0
  2  9  1  0  0  0  0
  3  5  2  0  0  0  0
  3 10  1  0  0  0  0
  4  6  1  0  0  0  0
  4 10  2  0  0  0  0
  5 11  1  0  0  0  0
  6 11  2  0  0  0  0
  7 12  2  0  0  0  0
  8  9  2  0  0  0  0
  8 12  1  0  0  0  0
  9 24  1  0  0  0  0
 10 29  1  0  0  0  0
 11 30  1  0  0  0  0
 12 33  1  0  0  0  0
 13 15  1  0  0  0  0
 13 26  2  0  0  0  0
 13 28  1  0  0  0  0
 14 25  1  0  0  0  0
 14 27  2  0  0  0  0
 14 28  1  0  0  0  0
 15 16  2  0  0  0  0
 16 17  1  0  0  0  0
 17 18  2  0  0  0  0
 18 28  1  0  0  0  0
 19 25  1  0  0  0  0
 19 30  1  0  0  0  0
 19 31  2  0  0  0  0
 20 22  1  0  0  0  0
 20 29  1  0  0  0  0
 21 23  1  0  0  0  0
 21 29  1  0  0  0  0
 22 32  1  0  0  0  0
 23 32  1  0  0  0  0
 24 30  1  0  0  0  0
 26 27  1  0  0  0  0
  1 34  1  0  0  0  0
  2 35  1  0  0  0  0
  3 36  1  0  0  0  0
  4 37  1  0  0  0  0
  5 38  1  0  0  0  0
  6 39  1  0  0  0  0
  7 40  1  0  0  0  0
  8 41  1  0  0  0  0
 15 42  1  0  0  0  0
 16 43  1  0  0  0  0
 17 44  1  0  0  0  0
 18 45  1  0  0  0  0
 20 46  1  0  0  0  0
 20 47  1  0  0  0  0
 21 48  1  0  0  0  0
 21 49  1  0  0  0  0
 22 50  1  0  0  0  0
 22 51  1  0  0  0  0
 23 52  1  0  0  0  0
 23 53  1  0  0  0  0
 24 54  1  0  0  0  0
 24 55  1  0  0  0  0
 25 56  1  0  0  0  0
 25 57  1  0  0  0  0
M  END
> <clash_score>
0

> <docking_score>
-8.282291412353516

> <overlap_score>
1.0003458261489868

$$$$
